# generated using pymatgen
data_CuH11C15SN3(OF)3
_symmetry_space_group_name_H-M   'P 1'
_cell_length_a   7.90293816
_cell_length_b   13.22845615
_cell_length_c   15.24805566
_cell_angle_alpha   103.67466075
_cell_angle_beta   89.99984910
_cell_angle_gamma   89.99967850
_symmetry_Int_Tables_number   1
_chemical_formula_structural   CuH11C15SN3(OF)3
_chemical_formula_sum   'Cu4 H44 C60 S4 N12 O12 F12'
_cell_volume   1548.90133109
_cell_formula_units_Z   4
loop_
 _symmetry_equiv_pos_site_id
 _symmetry_equiv_pos_as_xyz
  1  'x, y, z'
loop_
 _atom_site_type_symbol
 _atom_site_label
 _atom_site_symmetry_multiplicity
 _atom_site_fract_x
 _atom_site_fract_y
 _atom_site_fract_z
 _atom_site_occupancy
 _atom_site_hle17_bader_spin_density
 _atom_site_hle17_ddec_charge
 _atom_site_hle17_ddec_spin_density
 _atom_site_hle17_ddec_sum_bond_order
 _atom_site_hle17_magmom
 _atom_site_hse06_10hf_bader_spin_density
 _atom_site_hse06_10hf_ddec_charge
 _atom_site_hse06_10hf_ddec_spin_density
 _atom_site_hse06_10hf_ddec_sum_bond_order
 _atom_site_hse06_10hf_magmom
 _atom_site_hse06_bader_spin_density
 _atom_site_hse06_ddec_charge
 _atom_site_hse06_ddec_spin_density
 _atom_site_hse06_ddec_sum_bond_order
 _atom_site_hse06_magmom
 _atom_site_pbe_bader_spin_density
 _atom_site_pbe_cm5_charge
 _atom_site_pbe_ddec_charge
 _atom_site_pbe_ddec_spin_density
 _atom_site_pbe_ddec_sum_bond_order
 _atom_site_pbe_magmom
Cu  Cu0  1  0.09904133  0.26641589  0.12883602  1  0  0.56534  0  1.865706  0  0  0.458269  0  2.347611  0  0  0.449125  0  2.308396  0  0  0.590951  0.469126  0  2.370723  0
Cu  Cu1  1  0.40096067  0.26641070  0.62883429  1  0  0.565342  0  1.865556  0  0  0.458287  0  2.347393  0  0  0.449124  0  2.308171  0  0  0.590915  0.469137  0  2.370508  0
Cu  Cu2  1  0.90095797  0.73358404  0.87116222  1  0  0.565367  0  1.86569  0  0  0.458293  0  2.347612  0  0  0.449138  0  2.308386  0  0  0.590953  0.469149  0  2.37073  0
Cu  Cu3  1  0.59904116  0.73358534  0.37116576  1  0  0.565433  0  1.865761  0  0  0.458369  0  2.347619  0  0  0.449204  0  2.308395  0  0  0.591027  0.469227  0  2.37073  0
H  H4  1  0.04010403  0.29885538  0.94794440  1  0  0.081043  0  0.9467  0  0  0.092337  0  1.007014  0  0  0.094045  0  1.005424  0  0  0.115594  0.09096  0  1.008298  0
H  H5  1  0.45988716  0.29884049  0.44793885  1  0  0.081025  0  0.946533  0  0  0.092388  0  1.006765  0  0  0.094079  0  1.005173  0  0  0.115608  0.091018  0  1.008052  0
H  H6  1  0.95988641  0.70114922  0.05205546  1  0  0.08097  0  0.946748  0  0  0.092255  0  1.007077  0  0  0.093993  0  1.00544  0  0  0.115537  0.090879  0  1.00836  0
H  H7  1  0.54010327  0.70115166  0.55205842  1  0  0.081089  0  0.946585  0  0  0.092416  0  1.006857  0  0  0.094103  0  1.005273  0  0  0.115653  0.091044  0  1.008138  0
H  H8  1  0.11106336  0.42318517  0.85801255  1  0  0.110333  0  0.96563  0  0  0.123233  0  1.023546  0  0  0.125575  0  1.023894  0  0  0.107305  0.121558  0  1.023392  0
H  H9  1  0.38893219  0.42317289  0.35800829  1  0  0.110231  0  0.965721  0  0  0.123153  0  1.023622  0  0  0.125487  0  1.02399  0  0  0.107312  0.121502  0  1.023413  0
H  H10  1  0.88892328  0.57682331  0.14199009  1  0  0.110326  0  0.965667  0  0  0.123249  0  1.023558  0  0  0.125587  0  1.023918  0  0  0.107336  0.121582  0  1.023387  0
H  H11  1  0.61106837  0.57682469  0.64199340  1  0  0.110233  0  0.965648  0  0  0.123156  0  1.023555  0  0  0.125491  0  1.023922  0  0  0.107299  0.121494  0  1.023373  0
H  H12  1  0.28440936  0.58225150  0.92665471  1  0  0.112523  0  0.956369  0  0  0.126705  0  1.013662  0  0  0.129289  0  1.011636  0  0  0.111679  0.124729  0  1.015264  0
H  H13  1  0.21559573  0.58224302  0.42664950  1  0  0.112546  0  0.956455  0  0  0.126741  0  1.013735  0  0  0.129311  0  1.011726  0  0  0.111723  0.12477  0  1.015331  0
H  H14  1  0.71557602  0.41775697  0.07335120  1  0  0.112573  0  0.956409  0  0  0.126757  0  1.013719  0  0  0.129335  0  1.01169  0  0  0.111701  0.12478  0  1.01532  0
H  H15  1  0.78442381  0.41775845  0.57335365  1  0  0.112546  0  0.956406  0  0  0.126734  0  1.013715  0  0  0.129311  0  1.011686  0  0  0.111683  0.124757  0  1.015318  0
H  H16  1  0.27128392  0.41392459  0.22807050  1  0  0.096886  0  0.988677  0  0  0.101247  0  1.063318  0  0  0.106053  0  1.059122  0  0  0.101186  0.097701  0  1.066435  0
H  H17  1  0.22871239  0.41391853  0.72806686  1  0  0.096862  0  0.988755  0  0  0.101228  0  1.063364  0  0  0.106056  0  1.059143  0  0  0.101193  0.097688  0  1.066472  0
H  H18  1  0.72870146  0.58607844  0.77193231  1  0  0.096849  0  0.988736  0  0  0.101186  0  1.063427  0  0  0.105983  0  1.059241  0  0  0.101165  0.09764  0  1.066544  0
H  H19  1  0.77130589  0.58608605  0.27193758  1  0  0.096777  0  0.988762  0  0  0.101194  0  1.063371  0  0  0.105976  0  1.059198  0  0  0.101156  0.097645  0  1.066493  0
H  H20  1  0.43837147  0.56865358  0.30891208  1  0  0.094837  0  0.985839  0  0  0.100336  0  1.059865  0  0  0.1054  0  1.054789  0  0  0.102026  0.096593  0  1.063691  0
H  H21  1  0.06162929  0.56865285  0.80890781  1  0  0.094802  0  0.985852  0  0  0.100327  0  1.059842  0  0  0.105375  0  1.054805  0  0  0.102015  0.096584  0  1.063674  0
H  H22  1  0.56162783  0.43134479  0.69108911  1  0  0.094869  0  0.985841  0  0  0.100379  0  1.059831  0  0  0.105445  0  1.054743  0  0  0.10205  0.096631  0  1.063672  0
H  H23  1  0.93838013  0.43134941  0.19109288  1  0  0.09484  0  0.985888  0  0  0.100373  0  1.059872  0  0  0.10542  0  1.054839  0  0  0.10203  0.096628  0  1.063707  0
H  H24  1  0.43072889  0.70440224  0.99054012  1  0  0.112257  0  0.978826  0  0  0.122692  0  1.040353  0  0  0.125856  0  1.037615  0  0  0.107585  0.120308  0  1.042438  0
H  H25  1  0.06927346  0.70439668  0.49053440  1  0  0.112274  0  0.979014  0  0  0.122714  0  1.040511  0  0  0.125883  0  1.037766  0  0  0.107598  0.120329  0  1.042599  0
H  H26  1  0.56926155  0.29560235  0.00946368  1  0  0.112271  0  0.978889  0  0  0.122685  0  1.040425  0  0  0.125852  0  1.037682  0  0  0.107601  0.120301  0  1.042508  0
H  H27  1  0.93073595  0.29560092  0.50946401  1  0  0.112279  0  0.978984  0  0  0.122722  0  1.040493  0  0  0.125888  0  1.037754  0  0  0.107625  0.120338  0  1.042578  0
H  H28  1  0.61918581  0.84229604  0.07545152  1  0  0.109855  0  0.946164  0  0  0.11824  0  1.0067  0  0  0.121701  0  1.005315  0  0  0.103716  0.11564  0  1.008019  0
H  H29  1  0.88081760  0.84229328  0.57544574  1  0  0.109855  0  0.9463  0  0  0.118257  0  1.006808  0  0  0.121718  0  1.005424  0  0  0.103733  0.115658  0  1.008131  0
H  H30  1  0.38080842  0.15770621  0.92455179  1  0  0.109825  0  0.946225  0  0  0.118227  0  1.006739  0  0  0.121687  0  1.005355  0  0  0.103702  0.115626  0  1.00806  0
H  H31  1  0.11918675  0.15770277  0.42455038  1  0  0.109801  0  0.946183  0  0  0.118206  0  1.006699  0  0  0.121666  0  1.005314  0  0  0.10369  0.115605  0  1.00802  0
H  H32  1  0.69303513  0.84625966  0.23617300  1  0  0.078741  0  0.938746  0  0  0.087293  0  1.004667  0  0  0.090055  0  1.001112  0  0  0.112844  0.085096  0  1.007496  0
H  H33  1  0.80696869  0.84625874  0.73616705  1  0  0.078757  0  0.93871  0  0  0.087305  0  1.004627  0  0  0.090069  0  1.001072  0  0  0.112855  0.085109  0  1.007459  0
H  H34  1  0.30696796  0.15373793  0.76382868  1  0  0.078727  0  0.938758  0  0  0.087275  0  1.004687  0  0  0.090039  0  1.001133  0  0  0.11284  0.085078  0  1.007517  0
H  H35  1  0.19303440  0.15373887  0.26382874  1  0  0.078722  0  0.938762  0  0  0.087267  0  1.004687  0  0  0.090033  0  1.001134  0  0  0.112845  0.085073  0  1.007518  0
H  H36  1  0.92678219  0.01370865  0.84605524  1  0  0.153744  0  0.941707  0  0  0.168016  0  1.006822  0  0  0.170776  0  1.004113  0  0  0.10676  0.165995  0  1.008798  0
H  H37  1  0.57322256  0.01370150  0.34605378  1  0  0.153756  0  0.941803  0  0  0.168069  0  1.006835  0  0  0.170828  0  1.004126  0  0  0.10677  0.16605  0  1.008807  0
H  H38  1  0.07322090  0.98629750  0.15394494  1  0  0.153787  0  0.94172  0  0  0.168097  0  1.006768  0  0  0.170857  0  1.004058  0  0  0.106787  0.166076  0  1.008743  0
H  H39  1  0.42677800  0.98628985  0.65394858  1  0  0.153773  0  0.941736  0  0  0.168069  0  1.006787  0  0  0.17083  0  1.004076  0  0  0.106786  0.166049  0  1.00876  0
H  H40  1  0.74937175  0.09847396  0.87515020  1  0  0.15545  0  0.932204  0  0  0.17087  0  0.99436  0  0  0.172864  0  0.993703  0  0  0.10903  0.1695  0  0.994819  0
H  H41  1  0.75063459  0.09846301  0.37514313  1  0  0.155526  0  0.932102  0  0  0.170939  0  0.994237  0  0  0.172932  0  0.993581  0  0  0.109046  0.169571  0  0.994695  0
H  H42  1  0.25063640  0.90153063  0.12485293  1  0  0.155481  0  0.932189  0  0  0.1709  0  0.994347  0  0  0.172895  0  0.993691  0  0  0.109029  0.169529  0  0.994806  0
H  H43  1  0.24936218  0.90152602  0.62485612  1  0  0.155525  0  0.932107  0  0  0.170904  0  0.99428  0  0  0.172898  0  0.993623  0  0  0.109028  0.169534  0  0.994741  0
H  H44  1  0.76785933  0.98490024  0.91946940  1  0  0.163829  0  0.931985  0  0  0.178212  0  0.996108  0  0  0.180935  0  0.994181  0  0  0.110633  0.176207  0  0.997529  0
H  H45  1  0.73214731  0.98489247  0.41946498  1  0  0.163891  0  0.931862  0  0  0.178262  0  0.995977  0  0  0.180981  0  0.99405  0  0  0.110599  0.176259  0  0.997402  0
H  H46  1  0.23214376  0.01509972  0.08052359  1  0  0.163816  0  0.931897  0  0  0.178198  0  0.996044  0  0  0.180922  0  0.994122  0  0  0.110607  0.176192  0  0.997468  0
H  H47  1  0.26785072  0.01510278  0.58053622  1  0  0.163823  0  0.931934  0  0  0.178198  0  0.996065  0  0  0.180917  0  0.994138  0  0  0.110587  0.176194  0  0.997488  0
C  C48  1  0.11485811  0.36737265  0.97822107  1  0  0.141063  0  3.710182  0  0  0.108528  0  3.964996  0  0  0.116514  0  3.981272  0  0  0.048899  0.103323  0  3.954321  0
C  C49  1  0.38514115  0.36736350  0.47821615  1  0  0.141025  0  3.709937  0  0  0.108453  0  3.964744  0  0  0.116467  0  3.981023  0  0  0.048866  0.10323  0  3.954068  0
C  C50  1  0.88513233  0.63263116  0.02178060  1  0  0.141167  0  3.710152  0  0  0.108659  0  3.964939  0  0  0.116629  0  3.981215  0  0  0.049009  0.103454  0  3.954264  0
C  C51  1  0.61486195  0.63263409  0.52178291  1  0  0.140969  0  3.71003  0  0  0.108403  0  3.964847  0  0  0.116415  0  3.981128  0  0  0.048859  0.103187  0  3.954181  0
C  C52  1  0.15650823  0.43890293  0.92719612  1  0  -0.112799  0  3.72915  0  0  -0.1293  0  3.985913  0  0  -0.137181  0  4.009644  0  0  -0.087686  -0.124278  0  3.970169  0
C  C53  1  0.34348808  0.43889239  0.42719031  1  0  -0.112537  0  3.729067  0  0  -0.129061  0  3.98583  0  0  -0.136944  0  4.009551  0  0  -0.087641  -0.124037  0  3.970099  0
C  C54  1  0.84347588  0.56110477  0.07280767  1  0  -0.11282  0  3.729223  0  0  -0.129352  0  3.98602  0  0  -0.137238  0  4.009758  0  0  -0.087777  -0.12433  0  3.970276  0
C  C55  1  0.65651628  0.56110520  0.57280941  1  0  -0.112627  0  3.728944  0  0  -0.129152  0  3.985747  0  0  -0.137038  0  4.009474  0  0  -0.0877  -0.124127  0  3.97001  0
C  C56  1  0.25158503  0.52579301  0.96574282  1  0  -0.046593  0  3.674587  0  0  -0.073616  0  3.925586  0  0  -0.07002  0  3.943514  0  0  -0.0643  -0.075958  0  3.913633  0
C  C57  1  0.24841787  0.52578440  0.46573820  1  0  -0.046693  0  3.674867  0  0  -0.073762  0  3.925882  0  0  -0.070155  0  3.943801  0  0  -0.064363  -0.076108  0  3.913928  0
C  C58  1  0.74840162  0.47421392  0.03426080  1  0  -0.046703  0  3.67454  0  0  -0.073762  0  3.925564  0  0  -0.070156  0  3.943481  0  0  -0.064323  -0.076103  0  3.913608  0
C  C59  1  0.75159914  0.47421553  0.53426332  1  0  -0.046665  0  3.674472  0  0  -0.073715  0  3.925489  0  0  -0.070107  0  3.94341  0  0  -0.064297  -0.076046  0  3.913515  0
C  C60  1  0.30425125  0.54057605  0.05638009  1  0  -0.010321  0  3.725513  0  0  0.003281  0  3.951986  0  0  -0.001238  0  3.977608  0  0  0.003563  0.006175  0  3.934839  0
C  C61  1  0.19575108  0.54056856  0.55637489  1  0  -0.010542  0  3.725639  0  0  0.003159  0  3.952065  0  0  -0.001361  0  3.977685  0  0  0.003546  0.006051  0  3.934924  0
C  C62  1  0.69573666  0.45942932  0.94362189  1  0  -0.010353  0  3.725531  0  0  0.003304  0  3.951947  0  0  -0.001212  0  3.977567  0  0  0.003641  0.006198  0  3.934795  0
C  C63  1  0.80426214  0.45943059  0.44362449  1  0  -0.010498  0  3.72552  0  0  0.003152  0  3.951989  0  0  -0.001368  0  3.977614  0  0  0.003543  0.006046  0  3.934841  0
C  C64  1  0.25755746  0.46374941  0.10348206  1  0  0.198719  0  3.75705  0  0  0.19813  0  3.990149  0  0  0.203209  0  4.0123  0  0  0.110386  0.194741  0  3.975417  0
C  C65  1  0.24244028  0.46374173  0.60347807  1  0  0.199013  0  3.75683  0  0  0.19839  0  3.989894  0  0  0.203467  0  4.012052  0  0  0.110448  0.194997  0  3.975169  0
C  C66  1  0.74242918  0.53625596  0.89651993  1  0  0.198775  0  3.757171  0  0  0.198163  0  3.990259  0  0  0.20324  0  4.012409  0  0  0.110371  0.194775  0  3.975526  0
C  C67  1  0.75757293  0.53625975  0.39652311  1  0  0.198881  0  3.756904  0  0  0.198223  0  3.990024  0  0  0.203301  0  4.012173  0  0  0.110443  0.194836  0  3.975295  0
C  C68  1  0.30848633  0.47499373  0.19492075  1  0  -0.119104  0  3.723221  0  0  -0.140896  0  3.975497  0  0  -0.143811  0  3.994213  0  0  -0.085773  -0.13897  0  3.963109  0
C  C69  1  0.19151463  0.47499014  0.69491833  1  0  -0.119193  0  3.723435  0  0  -0.140979  0  3.975734  0  0  -0.143913  0  3.994438  0  0  -0.085816  -0.139053  0  3.963342  0
C  C70  1  0.69150664  0.52500775  0.80508043  1  0  -0.119078  0  3.723386  0  0  -0.14086  0  3.975648  0  0  -0.14377  0  3.994371  0  0  -0.085765  -0.138936  0  3.963261  0
C  C71  1  0.80849858  0.52501289  0.30508448  1  0  -0.11905  0  3.723316  0  0  -0.14087  0  3.975584  0  0  -0.143765  0  3.994315  0  0  -0.0858  -0.138943  0  3.963193  0
C  C72  1  0.40066041  0.55875977  0.23867375  1  0  -0.100854  0  3.728632  0  0  -0.121658  0  3.979514  0  0  -0.123801  0  3.99719  0  0  -0.079604  -0.12037  0  3.967936  0
C  C73  1  0.09934081  0.55875578  0.73866874  1  0  -0.100791  0  3.728772  0  0  -0.121568  0  3.979631  0  0  -0.123713  0  3.997309  0  0  -0.079638  -0.120271  0  3.968032  0
C  C74  1  0.59933762  0.44124093  0.76132727  1  0  -0.100899  0  3.728699  0  0  -0.121668  0  3.979576  0  0  -0.123809  0  3.997255  0  0  -0.079606  -0.120382  0  3.967995  0
C  C75  1  0.90066861  0.44124337  0.26133064  1  0  -0.100846  0  3.728665  0  0  -0.121685  0  3.979562  0  0  -0.123828  0  3.997224  0  0  -0.079618  -0.120391  0  3.967969  0
C  C76  1  0.45291287  0.63658102  0.19397386  1  0  0.199014  0  3.756392  0  0  0.197926  0  3.986938  0  0  0.203253  0  4.008112  0  0  0.110646  0.194385  0  3.972931  0
C  C77  1  0.04709037  0.63657879  0.69396930  1  0  0.198791  0  3.756569  0  0  0.19764  0  3.987279  0  0  0.202966  0  4.008453  0  0  0.110635  0.194098  0  3.973276  0
C  C78  1  0.54708516  0.36341968  0.80602847  1  0  0.19898  0  3.756415  0  0  0.197809  0  3.987088  0  0  0.203135  0  4.008267  0  0  0.11058  0.19427  0  3.973078  0
C  C79  1  0.95291905  0.36342113  0.30603222  1  0  0.198927  0  3.756431  0  0  0.197821  0  3.987044  0  0  0.203148  0  4.008217  0  0  0.11066  0.194281  0  3.973037  0
C  C80  1  0.40562567  0.62852112  0.10248306  1  0  -0.008793  0  3.73478  0  0  0.00596  0  3.95919  0  0  0.00176  0  3.984559  0  0  0.003433  0.008604  0  3.942245  0
C  C81  1  0.09437685  0.62851559  0.60247775  1  0  -0.008425  0  3.734747  0  0  0.006229  0  3.959288  0  0  0.002031  0  3.984657  0  0  0.003486  0.008869  0  3.942347  0
C  C82  1  0.59436856  0.37148114  0.89751959  1  0  -0.008775  0  3.734764  0  0  0.005978  0  3.959184  0  0  0.001775  0  3.984557  0  0  0.003404  0.008622  0  3.942236  0
C  C83  1  0.90563130  0.37148278  0.39752213  1  0  -0.008663  0  3.73476  0  0  0.006081  0  3.959203  0  0  0.00188  0  3.984575  0  0  0.003404  0.008721  0  3.942258  0
C  C84  1  0.46409228  0.70574105  0.06015971  1  0  -0.04245  0  3.669585  0  0  -0.070304  0  3.917034  0  0  -0.066027  0  3.934459  0  0  -0.069281  -0.073065  0  3.905385  0
C  C85  1  0.03591100  0.70573575  0.56015387  1  0  -0.042599  0  3.669543  0  0  -0.070409  0  3.916998  0  0  -0.06613  0  3.93442  0  0  -0.069278  -0.073164  0  3.90535  0
C  C86  1  0.53589816  0.29426354  0.93984342  1  0  -0.042437  0  3.669568  0  0  -0.070276  0  3.917025  0  0  -0.065995  0  3.934447  0  0  -0.069274  -0.07303  0  3.905366  0
C  C87  1  0.96409715  0.29426185  0.43984454  1  0  -0.042511  0  3.669599  0  0  -0.070383  0  3.917069  0  0  -0.066106  0  3.934493  0  0  -0.069267  -0.07314  0  3.905417  0
C  C88  1  0.56830746  0.78373587  0.10777353  1  0  -0.11731  0  3.740551  0  0  -0.130805  0  4.000744  0  0  -0.138688  0  4.021825  0  0  -0.08861  -0.12595  0  3.987065  0
C  C89  1  0.93169508  0.78373369  0.60776779  1  0  -0.117406  0  3.740426  0  0  -0.130925  0  4.000609  0  0  -0.13881  0  4.02169  0  0  -0.088697  -0.126072  0  3.986941  0
C  C90  1  0.43168804  0.21626560  0.89222962  1  0  -0.117304  0  3.740445  0  0  -0.130826  0  4.000646  0  0  -0.138708  0  4.021723  0  0  -0.088603  -0.125972  0  3.986968  0
C  C91  1  0.06830801  0.21626392  0.39222930  1  0  -0.117263  0  3.740405  0  0  -0.130765  0  4.000585  0  0  -0.13865  0  4.02167  0  0  -0.08863  -0.125908  0  3.986907  0
C  C92  1  0.60984240  0.78634321  0.19755840  1  0  0.144399  0  3.690983  0  0  0.105318  0  3.956765  0  0  0.114325  0  3.970515  0  0  0.044214  0.099312  0  3.947984  0
C  C93  1  0.89015965  0.78634196  0.69755358  1  0  0.144423  0  3.690857  0  0  0.105373  0  3.956635  0  0  0.114375  0  3.97039  0  0  0.044228  0.099368  0  3.947856  0
C  C94  1  0.39015689  0.21365594  0.80244295  1  0  0.144358  0  3.690959  0  0  0.105285  0  3.956753  0  0  0.114289  0  3.970506  0  0  0.044176  0.09928  0  3.947972  0
C  C95  1  0.10984218  0.21365642  0.30244368  1  0  0.144369  0  3.690929  0  0  0.105315  0  3.956696  0  0  0.114316  0  3.970453  0  0  0.044212  0.099309  0  3.947916  0
C  C96  1  0.93066225  0.10846425  0.97609775  1  0  0.425918  0  3.656209  0  0  0.415568  0  3.933403  0  0  0.42741  0  3.947095  0  0  0.208843  0.407753  0  3.924133  0
C  C97  1  0.56934222  0.10845946  0.47609547  1  0  0.42609  0  3.656606  0  0  0.415725  0  3.933787  0  0  0.427563  0  3.94748  0  0  0.208978  0.407913  0  3.92451  0
C  C98  1  0.06934085  0.89153255  0.02390508  1  0  0.425947  0  3.656104  0  0  0.415605  0  3.933297  0  0  0.427447  0  3.946991  0  0  0.208833  0.407786  0  3.924026  0
C  C99  1  0.43065455  0.89153734  0.52390802  1  0  0.425983  0  3.656078  0  0  0.415627  0  3.933237  0  0  0.427469  0  3.946927  0  0  0.208868  0.407806  0  3.923973  0
C  C100  1  0.83809336  0.04793133  0.90023953  1  0  -0.379212  0  3.740683  0  0  -0.452641  0  3.974715  0  0  -0.455088  0  3.977013  0  0  -0.214548  -0.450765  0  3.973116  0
C  C101  1  0.66191333  0.04792384  0.40023591  1  0  -0.379449  0  3.740588  0  0  -0.452903  0  3.974638  0  0  -0.455343  0  3.976931  0  0  -0.214578  -0.451031  0  3.973042  0
C  C102  1  0.16191100  0.95207015  0.09976034  1  0  -0.379315  0  3.74068  0  0  -0.452774  0  3.974694  0  0  -0.455224  0  3.976991  0  0  -0.214559  -0.450894  0  3.973095  0
C  C103  1  0.33808470  0.95206907  0.59976546  1  0  -0.379396  0  3.740694  0  0  -0.452822  0  3.974805  0  0  -0.455263  0  3.977098  0  0  -0.21458  -0.450942  0  3.973208  0
C  C104  1  0.62137313  0.08807709  0.16303654  1  0  0.585417  0  3.653198  0  0  0.517599  0  4.017066  0  0  0.545328  0  3.990715  0  0  0.286875  0.497737  0  4.036028  0
C  C105  1  0.87860909  0.08808205  0.66305073  1  0  0.585337  0  3.652997  0  0  0.517697  0  4.016607  0  0  0.545503  0  3.990098  0  0  0.286913  0.497829  0  4.035565  0
C  C106  1  0.37861984  0.91191742  0.83695401  1  0  0.585455  0  3.653176  0  0  0.517887  0  4.016664  0  0  0.545689  0  3.990172  0  0  0.287072  0.498022  0  4.03562  0
C  C107  1  0.12138768  0.91192254  0.33695306  1  0  0.585416  0  3.653042  0  0  0.517881  0  4.016466  0  0  0.54565  0  3.990041  0  0  0.287059  0.498019  0  4.035425  0
S  S108  1  0.53875634  0.22345591  0.17978369  1  0  1.124462  0  5.84925  0  0  1.025633  0  6.386585  0  0  1.067972  0  6.367564  0  0  0.484176  0.99662  0  6.398811  0
S  S109  1  0.96123844  0.22345668  0.67979034  1  0  1.124867  0  5.849116  0  0  1.02597  0  6.386477  0  0  1.068296  0  6.367434  0  0  0.484309  0.996963  0  6.398698  0
S  S110  1  0.46124042  0.77653937  0.82020964  1  0  1.124868  0  5.849333  0  0  1.025991  0  6.386651  0  0  1.06832  0  6.367608  0  0  0.484293  0.996986  0  6.398875  0
S  S111  1  0.03876845  0.77654556  0.32021493  1  0  1.124593  0  5.849307  0  0  1.025679  0  6.386678  0  0  1.068013  0  6.367648  0  0  0.484229  0.99667  0  6.398902  0
N  N112  1  0.16305008  0.37808662  0.06392887  1  0  -0.357917  0  3.329462  0  0  -0.288021  0  3.617751  0  0  -0.299278  0  3.62595  0  0  -0.352507  -0.281358  0  3.612254  0
N  N113  1  0.33694741  0.37807779  0.56392320  1  0  -0.358117  0  3.329441  0  0  -0.288199  0  3.617741  0  0  -0.299458  0  3.625923  0  0  -0.352537  -0.281534  0  3.612253  0
N  N114  1  0.83694036  0.62191642  0.93607263  1  0  -0.357952  0  3.329503  0  0  -0.288055  0  3.6178  0  0  -0.299313  0  3.626003  0  0  -0.352527  -0.281393  0  3.612307  0
N  N115  1  0.66305695  0.62192058  0.43607536  1  0  -0.357993  0  3.329469  0  0  -0.288023  0  3.617721  0  0  -0.299278  0  3.625902  0  0  -0.352534  -0.281363  0  3.612235  0
N  N116  1  0.55236020  0.71631367  0.24109899  1  0  -0.352214  0  3.344716  0  0  -0.283149  0  3.645545  0  0  -0.292664  0  3.651256  0  0  -0.359286  -0.277774  0  3.641612  0
N  N117  1  0.94764228  0.71631141  0.74109388  1  0  -0.352081  0  3.344569  0  0  -0.282999  0  3.645429  0  0  -0.292516  0  3.651144  0  0  -0.35921  -0.27762  0  3.641495  0
N  N118  1  0.44764416  0.28368470  0.75890351  1  0  -0.3521  0  3.344627  0  0  -0.283013  0  3.645468  0  0  -0.292533  0  3.651191  0  0  -0.359195  -0.277637  0  3.641528  0
N  N119  1  0.05235828  0.28368619  0.25890387  1  0  -0.352077  0  3.344551  0  0  -0.283016  0  3.645391  0  0  -0.292536  0  3.651115  0  0  -0.35922  -0.277639  0  3.641456  0
N  N120  1  0.00525923  0.15828334  0.03720683  1  0  -0.468105  0  3.076741  0  0  -0.433112  0  3.41585  0  0  -0.436983  0  3.41206  0  0  -0.387984  -0.431649  0  3.417868  0
N  N121  1  0.49475184  0.15827391  0.53719820  1  0  -0.468142  0  3.07714  0  0  -0.433137  0  3.416205  0  0  -0.437006  0  3.412408  0  0  -0.38802  -0.431672  0  3.418216  0
N  N122  1  0.99473753  0.84171269  0.96279518  1  0  -0.468121  0  3.076642  0  0  -0.433121  0  3.415733  0  0  -0.43699  0  3.411935  0  0  -0.387978  -0.431661  0  3.417757  0
N  N123  1  0.50525378  0.84171670  0.46279548  1  0  -0.468089  0  3.076509  0  0  -0.433083  0  3.415578  0  0  -0.436947  0  3.411776  0  0  -0.387962  -0.431623  0  3.417605  0
O  O124  1  0.66592663  0.27620414  0.13780600  1  0  -0.600586  0  2.01737  0  0  -0.56796  0  2.276912  0  0  -0.586032  0  2.26515  0  0  -0.329387  -0.555206  0  2.284545  0
O  O125  1  0.83406534  0.27620929  0.63781504  1  0  -0.600641  0  2.017281  0  0  -0.568106  0  2.27693  0  0  -0.58618  0  2.265173  0  0  -0.329439  -0.555354  0  2.284562  0
O  O126  1  0.33406761  0.72378806  0.86217751  1  0  -0.600591  0  2.017419  0  0  -0.568047  0  2.277061  0  0  -0.586124  0  2.265306  0  0  -0.329365  -0.555295  0  2.284695  0
O  O127  1  0.16594155  0.72379996  0.36219103  1  0  -0.600603  0  2.017363  0  0  -0.568012  0  2.276968  0  0  -0.586087  0  2.265214  0  0  -0.329401  -0.55526  0  2.284599  0
O  O128  1  0.37823778  0.20336659  0.13020201  1  0  -0.631569  0  2.068946  0  0  -0.593822  0  2.357881  0  0  -0.609317  0  2.340233  0  0  -0.34776  -0.583232  0  2.369314  0
O  O129  1  0.12175214  0.20335861  0.63020009  1  0  -0.631624  0  2.068886  0  0  -0.593838  0  2.357765  0  0  -0.60933  0  2.340113  0  0  -0.34775  -0.583248  0  2.369187  0
O  O130  1  0.62175012  0.79663255  0.86979934  1  0  -0.631609  0  2.06909  0  0  -0.593826  0  2.357962  0  0  -0.609321  0  2.340315  0  0  -0.347728  -0.583238  0  2.369395  0
O  O131  1  0.87825348  0.79663898  0.36980094  1  0  -0.631533  0  2.069011  0  0  -0.593773  0  2.357932  0  0  -0.609265  0  2.340281  0  0  -0.347698  -0.583168  0  2.369322  0
O  O132  1  0.52371089  0.25813228  0.27739761  1  0  -0.596493  0  1.959139  0  0  -0.564558  0  2.204592  0  0  -0.583506  0  2.195705  0  0  -0.338828  -0.551132  0  2.210183  0
O  O133  1  0.97629824  0.25813533  0.77740143  1  0  -0.596828  0  1.959325  0  0  -0.564787  0  2.204721  0  0  -0.583741  0  2.195843  0  0  -0.338947  -0.551351  0  2.210296  0
O  O134  1  0.47630865  0.74186768  0.72259473  1  0  -0.596822  0  1.959075  0  0  -0.564863  0  2.204553  0  0  -0.583814  0  2.195667  0  0  -0.339011  -0.551428  0  2.210131  0
O  O135  1  0.02371244  0.74186537  0.22260155  1  0  -0.596625  0  1.959193  0  0  -0.564651  0  2.20464  0  0  -0.583604  0  2.195763  0  0  -0.338927  -0.551221  0  2.210223  0
F  F136  1  0.51293769  0.02956840  0.20064538  1  0  -0.237423  0  1.215133  0  0  -0.199881  0  1.396382  0  0  -0.211056  0  1.382561  0  0  -0.091648  -0.191862  0  1.405966  0
F  F137  1  0.98704236  0.02957294  0.70065802  1  0  -0.237375  0  1.215138  0  0  -0.199869  0  1.396329  0  0  -0.211061  0  1.382473  0  0  -0.09167  -0.19185  0  1.405915  0
F  F138  1  0.48705275  0.97042844  0.79934763  1  0  -0.237436  0  1.215187  0  0  -0.199958  0  1.396363  0  0  -0.211149  0  1.38251  0  0  -0.09171  -0.191937  0  1.405947  0
F  F139  1  0.01295314  0.97043010  0.29934349  1  0  -0.237409  0  1.215115  0  0  -0.199939  0  1.396269  0  0  -0.211121  0  1.382432  0  0  -0.0917  -0.191918  0  1.405854  0
F  F140  1  0.77583459  0.08450725  0.20159856  1  0  -0.236978  0  1.215145  0  0  -0.188452  0  1.37754  0  0  -0.198867  0  1.363722  0  0  -0.092306  -0.180965  0  1.387144  0
F  F141  1  0.72415379  0.08451825  0.70161815  1  0  -0.236884  0  1.215134  0  0  -0.188378  0  1.377477  0  0  -0.198816  0  1.363625  0  0  -0.092229  -0.180892  0  1.387079  0
F  F142  1  0.22416091  0.91548572  0.79838773  1  0  -0.236974  0  1.215286  0  0  -0.188479  0  1.377598  0  0  -0.198913  0  1.363751  0  0  -0.092312  -0.180991  0  1.3872  0
F  F143  1  0.27584297  0.91548711  0.29838712  1  0  -0.236931  0  1.215286  0  0  -0.188432  0  1.377579  0  0  -0.198857  0  1.363746  0  0  -0.092271  -0.180944  0  1.387181  0
F  F144  1  0.63527727  0.03997831  0.07401663  1  0  -0.235097  0  1.216746  0  0  -0.187218  0  1.380349  0  0  -0.197865  0  1.365992  0  0  -0.090878  -0.179554  0  1.390308  0
F  F145  1  0.86469573  0.03997865  0.57403250  1  0  -0.235126  0  1.21658  0  0  -0.187351  0  1.380165  0  0  -0.198019  0  1.365775  0  0  -0.09094  -0.179689  0  1.390124  0
F  F146  1  0.36470431  0.96001542  0.92597376  1  0  -0.23513  0  1.216536  0  0  -0.187375  0  1.380106  0  0  -0.198042  0  1.365719  0  0  -0.090977  -0.179711  0  1.390065  0
F  F147  1  0.13529977  0.96002671  0.42597079  1  0  -0.235167  0  1.216508  0  0  -0.187429  0  1.380064  0  0  -0.198089  0  1.36569  0  0  -0.09104  -0.179769  0  1.390024  0
