# generated using pymatgen
data_ZnCo4H12C36N18(Cl2O3)2
_symmetry_space_group_name_H-M   'P 1'
_cell_length_a   22.07466676
_cell_length_b   22.07485213
_cell_length_c   22.07518825
_cell_angle_alpha   60.00037359
_cell_angle_beta   60.00031360
_cell_angle_gamma   60.00015286
_symmetry_Int_Tables_number   1
_chemical_formula_structural   ZnCo4H12C36N18(Cl2O3)2
_chemical_formula_sum   'Zn2 Co8 H24 C72 N36 Cl8 O12'
_cell_volume   7606.48712345
_cell_formula_units_Z   2
loop_
 _symmetry_equiv_pos_site_id
 _symmetry_equiv_pos_as_xyz
  1  'x, y, z'
loop_
 _atom_site_type_symbol
 _atom_site_label
 _atom_site_symmetry_multiplicity
 _atom_site_fract_x
 _atom_site_fract_y
 _atom_site_fract_z
 _atom_site_occupancy
 _atom_site_pbe_bader_charge
 _atom_site_pbe_bader_spin_density
 _atom_site_pbe_cm5_charge
 _atom_site_pbe_ddec_charge
 _atom_site_pbe_ddec_spin_density
 _atom_site_pbe_ddec_sum_bond_order
 _atom_site_pbe_magmom
Zn  Zn0  1  0.25000376  0.24999964  0.24999420  1  1.254856  0.003968  0.706888  0.442194  0.004398  2.646738  0.002
Zn  Zn1  1  0.74999381  0.75000049  0.75000683  1  1.25487  0.003969  0.706819  0.442086  0.004399  2.646703  0.002
Co  Co2  1  0.44277680  0.18574311  0.18573959  1  1.088479  2.499483  0.640685  0.621916  2.74271  2.910795  2.429
Co  Co3  1  0.18574609  0.44276710  0.18574225  1  1.088524  2.499464  0.640548  0.6217  2.742663  2.910915  2.429
Co  Co4  1  0.18574934  0.18574657  0.44275724  1  1.088685  2.499479  0.64066  0.621932  2.742618  2.910693  2.429
Co  Co5  1  0.18574497  0.18574487  0.18574193  1  1.094902  2.499054  0.640554  0.621714  2.742663  2.91086  2.429
Co  Co6  1  0.81425480  0.55723092  0.81425703  1  1.088504  2.499475  0.640514  0.621734  2.742679  2.910835  2.429
Co  Co7  1  0.55722267  0.81425892  0.81426099  1  1.088391  2.499466  0.640676  0.621884  2.7427  2.910872  2.429
Co  Co8  1  0.81424858  0.81425119  0.55724750  1  1.088733  2.499517  0.640665  0.622086  2.742616  2.910436  2.429
Co  Co9  1  0.81425424  0.81425600  0.81425951  1  1.094935  2.499053  0.640519  0.621657  2.74267  2.91093  2.429
H  H10  1  0.54002737  0.07494616  0.07494671  1  0.126794  0.000615  0.118985  0.155359  0.000171  0.989929  0.0
H  H11  1  0.07494572  0.54002439  0.31008414  1  0.127255  0.000613  0.118997  0.155395  0.000171  0.990003  0.0
H  H12  1  0.07495186  0.31008001  0.54001922  1  0.127267  0.000614  0.119011  0.155364  0.000171  0.989774  0.0
H  H13  1  0.31007783  0.07495025  0.07494842  1  0.119  0.000621  0.11897  0.155347  0.000171  0.989758  0.0
H  H14  1  0.31008111  0.07495290  0.54001438  1  0.127222  0.000613  0.119  0.155354  0.000171  0.989881  0.0
H  H15  1  0.07494867  0.54002449  0.07494419  1  0.126892  0.000615  0.119014  0.155341  0.000171  0.989904  0.0
H  H16  1  0.07494722  0.31008324  0.07494375  1  0.118953  0.00062  0.119005  0.155319  0.000171  0.989938  0.0
H  H17  1  0.54002883  0.07494232  0.31008543  1  0.124205  0.000614  0.118985  0.155383  0.000171  0.990046  0.0
H  H18  1  0.07494571  0.07494253  0.31008609  1  0.11889  0.00062  0.118993  0.155419  0.000171  0.989963  0.0
H  H19  1  0.31008309  0.54002106  0.07494671  1  0.124289  0.000614  0.118975  0.155304  0.000171  0.989899  0.0
H  H20  1  0.54002925  0.31008286  0.07494324  1  0.12411  0.000614  0.119  0.155376  0.000171  0.989993  0.0
H  H21  1  0.07494999  0.07494786  0.54001869  1  0.126535  0.000615  0.119006  0.155341  0.000171  0.98981  0.0
H  H22  1  0.92505697  0.45997647  0.92504796  1  0.126857  0.000615  0.118983  0.15536  0.000171  0.98988  0.0
H  H23  1  0.45996313  0.92506580  0.68991601  1  0.124556  0.000614  0.119025  0.155367  0.000171  0.989769  0.0
H  H24  1  0.68991536  0.92504523  0.45998589  1  0.12728  0.000613  0.118997  0.155442  0.000171  0.990021  0.0
H  H25  1  0.92504933  0.68991949  0.92505572  1  0.119162  0.00062  0.118967  0.155296  0.000171  0.989852  0.0
H  H26  1  0.92505089  0.68991353  0.45998269  1  0.127213  0.000613  0.118982  0.15536  0.000171  0.990038  0.0
H  H27  1  0.45996763  0.92506046  0.92505707  1  0.126482  0.000615  0.119026  0.155411  0.000171  0.989913  0.0
H  H28  1  0.68991770  0.92505147  0.92505474  1  0.118968  0.00062  0.119006  0.155339  0.000171  0.989922  0.0
H  H29  1  0.92505852  0.45997154  0.68991499  1  0.124275  0.000614  0.118985  0.155311  0.000171  0.989878  0.0
H  H30  1  0.92505402  0.92505795  0.68991855  1  0.118942  0.000621  0.118998  0.155343  0.000171  0.989793  0.0
H  H31  1  0.45996943  0.68991839  0.92505891  1  0.12421  0.000614  0.119003  0.155343  0.000171  0.989876  0.0
H  H32  1  0.68991997  0.45997913  0.92504768  1  0.127165  0.000614  0.118987  0.15539  0.000171  0.989866  0.0
H  H33  1  0.92505129  0.92504602  0.45998657  1  0.126831  0.000614  0.118994  0.155424  0.000171  0.989942  0.0
C  C34  1  0.41848164  0.11363976  0.11363793  1  0.393834  0.007713  0.097904  0.141361  0.00471  4.073391  0.008
C  C35  1  0.49020337  0.07541158  0.07541362  1  0.148901  0.001728  -0.092344  -0.251396  0.000835  3.959496  0.001
C  C36  1  0.49441482  0.03794696  0.03794707  1  0.43816  0.000114  0.082394  0.157919  -1.3e-05  4.055366  0.0
C  C37  1  0.11363838  0.41848067  0.35424219  1  0.448455  0.007774  0.097923  0.141388  0.00471  4.073797  0.008
C  C38  1  0.07541640  0.49020180  0.35896568  1  0.064208  0.001736  -0.092464  -0.251589  0.000836  3.959381  0.001
C  C39  1  0.03794428  0.49441434  0.42969833  1  0.422099  0.000116  0.082531  0.157954  -1.3e-05  4.055185  0.0
C  C40  1  0.11364087  0.35424465  0.41847514  1  0.345607  0.007923  0.097876  0.141191  0.004709  4.073608  0.008
C  C41  1  0.07541408  0.35897728  0.49019523  1  0.091248  0.001731  -0.092372  -0.251363  0.000835  3.959579  0.001
C  C42  1  0.03794938  0.42969079  0.49441066  1  0.501917  0.00011  0.082349  0.157942  -1.3e-05  4.055618  0.0
C  C43  1  0.35424473  0.11363858  0.11363587  1  0.367338  0.007926  0.097863  0.141143  0.004711  4.073881  0.008
C  C44  1  0.35897213  0.07541790  0.07541688  1  0.128931  0.001732  -0.092372  -0.251319  0.000835  3.959673  0.001
C  C45  1  0.42969043  0.03794938  0.03794788  1  0.416836  0.00012  0.082403  0.157802  -1.3e-05  4.055229  0.0
C  C46  1  0.35424974  0.11364079  0.41846857  1  0.340463  0.007971  0.097754  0.141021  0.004709  4.073823  0.008
C  C47  1  0.35897586  0.07541573  0.49019311  1  0.089538  0.001735  -0.092364  -0.251303  0.000836  3.959635  0.001
C  C48  1  0.42969077  0.03795003  0.49440977  1  0.501876  0.00011  0.08229  0.15771  -1.3e-05  4.05586  0.0
C  C49  1  0.11364052  0.41847907  0.11363544  1  0.325519  0.00789  0.097877  0.141234  0.00471  4.073736  0.008
C  C50  1  0.07541718  0.49019989  0.07541052  1  0.148656  0.001728  -0.0924  -0.251294  0.000836  3.959367  0.001
C  C51  1  0.03794804  0.49441395  0.03794402  1  0.438369  0.000115  0.082407  0.157766  -1.3e-05  4.055368  0.0
C  C52  1  0.11364032  0.35424420  0.11363456  1  0.436109  0.007747  0.097886  0.141199  0.00471  4.07376  0.008
C  C53  1  0.07541598  0.35897330  0.07541011  1  0.12869  0.001733  -0.092378  -0.251291  0.000835  3.959498  0.001
C  C54  1  0.03794875  0.42969348  0.03794403  1  0.41613  0.00012  0.082408  0.157896  -1.3e-05  4.055329  0.0
C  C55  1  0.41848529  0.11363717  0.35423920  1  0.465548  0.007752  0.097866  0.141499  0.00471  4.073518  0.008
C  C56  1  0.49020822  0.07541368  0.35896462  1  0.077291  0.001753  -0.0924  -0.251532  0.000836  3.959069  0.001
C  C57  1  0.49441414  0.03794227  0.42970117  1  0.398609  0.000121  0.082538  0.158019  -1.3e-05  4.055274  0.0
C  C58  1  0.11363976  0.11363578  0.35424195  1  0.436653  0.007748  0.097875  0.141352  0.004711  4.073798  0.008
C  C59  1  0.07541719  0.07541202  0.35896654  1  0.128452  0.001734  -0.092441  -0.251601  0.000836  3.959341  0.001
C  C60  1  0.03794506  0.03794210  0.42969784  1  0.416637  0.00012  0.082513  0.157971  -1.3e-05  4.055233  0.0
C  C61  1  0.35424702  0.41847265  0.11363881  1  0.383346  0.007947  0.097864  0.141177  0.004709  4.073763  0.008
C  C62  1  0.35897472  0.49019928  0.07541273  1  0.094372  0.001751  -0.092417  -0.251281  0.000836  3.959248  0.001
C  C63  1  0.42969468  0.49441125  0.03794648  1  0.380295  0.000122  0.082487  0.157844  -1.3e-05  4.055548  0.0
C  C64  1  0.41848140  0.35424295  0.11363612  1  0.465651  0.007751  0.097885  0.141174  0.00471  4.07376  0.008
C  C65  1  0.49020651  0.35897173  0.07541025  1  0.094529  0.001751  -0.092501  -0.251502  0.000836  3.959432  0.001
C  C66  1  0.49441469  0.42969504  0.03794412  1  0.461946  0.000116  0.082498  0.158088  -1.3e-05  4.055425  0.0
C  C67  1  0.11364306  0.11363978  0.41847003  1  0.325639  0.007884  0.097825  0.141118  0.004708  4.073738  0.008
C  C68  1  0.07541437  0.07541059  0.49019783  1  0.148778  0.001729  -0.0924  -0.251355  0.000836  3.959331  0.001
C  C69  1  0.03794970  0.03794744  0.49440979  1  0.43801  0.000114  0.082392  0.157918  -1.3e-05  4.055748  0.0
C  C70  1  0.88635979  0.58152200  0.88636194  1  0.32564  0.007888  0.097892  0.141248  0.004709  4.073771  0.008
C  C71  1  0.92458866  0.50979945  0.92458249  1  0.148399  0.001729  -0.092356  -0.251324  0.000836  3.959367  0.001
C  C72  1  0.96205426  0.50558638  0.96205321  1  0.43857  0.000114  0.082428  0.157848  -1.3e-05  4.055388  0.0
C  C73  1  0.58150455  0.88637064  0.64576024  1  0.464991  0.007757  0.097887  0.141507  0.004712  4.073273  0.008
C  C74  1  0.50979787  0.92459317  0.64102285  1  0.094181  0.00175  -0.09249  -0.251656  0.000835  3.959908  0.001
C  C75  1  0.50558504  0.96205584  0.57030751  1  0.461837  0.000116  0.082433  0.158177  -1.3e-05  4.055364  0.0
C  C76  1  0.64575054  0.88635662  0.58153638  1  0.34515  0.007922  0.097969  0.141335  0.004708  4.073646  0.008
C  C77  1  0.64102812  0.92458266  0.50980162  1  0.090905  0.001733  -0.092522  -0.251706  0.000836  3.959278  0.001
C  C78  1  0.57030367  0.96205332  0.50558896  1  0.422057  0.000117  0.082474  0.15787  -1.2e-05  4.055341  0.0
C  C79  1  0.88635842  0.64575619  0.88636561  1  0.436236  0.007747  0.097862  0.141209  0.004711  4.07356  0.008
C  C80  1  0.92458510  0.64102491  0.92458936  1  0.128764  0.001732  -0.092408  -0.251333  0.000835  3.959591  0.001
C  C81  1  0.96205261  0.57030773  0.96205159  1  0.416513  0.00012  0.082418  0.157878  -1.3e-05  4.055498  0.0
C  C82  1  0.88635553  0.64575251  0.58153559  1  0.346278  0.007918  0.097993  0.141352  0.004707  4.073289  0.008
C  C83  1  0.92458840  0.64102595  0.50979725  1  0.136112  0.001727  -0.092526  -0.251671  0.000836  3.958986  0.001
C  C84  1  0.96205416  0.57030444  0.50558933  1  0.380544  0.000122  0.082499  0.15808  -1.3e-05  4.055495  0.0
C  C85  1  0.58151831  0.88636185  0.88636425  1  0.394257  0.007711  0.097857  0.141163  0.00471  4.073583  0.008
C  C86  1  0.50979295  0.92459003  0.92458831  1  0.149263  0.001728  -0.092463  -0.251481  0.000836  3.95938  0.001
C  C87  1  0.50558520  0.96205563  0.96205406  1  0.438287  0.000114  0.082467  0.157994  -1.3e-05  4.055437  0.0
C  C88  1  0.64575264  0.88636044  0.88636372  1  0.367909  0.007922  0.097812  0.141149  0.00471  4.073707  0.008
C  C89  1  0.64102570  0.92458612  0.92458779  1  0.128834  0.001732  -0.092419  -0.251307  0.000835  3.959395  0.001
C  C90  1  0.57030525  0.96205340  0.96205353  1  0.415932  0.000119  0.08247  0.15785  -1.3e-05  4.055566  0.0
C  C91  1  0.88636566  0.58151235  0.64575617  1  0.472018  0.007704  0.097815  0.141435  0.004712  4.07347  0.008
C  C92  1  0.92458806  0.50980160  0.64102631  1  0.094454  0.001751  -0.092413  -0.251451  0.000836  3.959572  0.001
C  C93  1  0.96205684  0.50558663  0.57030333  1  0.462043  0.000116  0.082445  0.157852  -1.3e-05  4.055458  0.0
C  C94  1  0.88636471  0.88636763  0.64575946  1  0.436332  0.007752  0.097864  0.141558  0.004713  4.07352  0.008
C  C95  1  0.92458448  0.92458496  0.64102634  1  0.128841  0.001732  -0.092412  -0.251594  0.000835  3.960108  0.001
C  C96  1  0.96205217  0.96205316  0.57030843  1  0.416656  0.00012  0.082378  0.157944  -1.3e-05  4.055413  0.0
C  C97  1  0.58151411  0.64575783  0.88636578  1  0.465438  0.007753  0.097833  0.141268  0.004711  4.073642  0.008
C  C98  1  0.50980052  0.64102699  0.92458774  1  0.094315  0.00175  -0.092381  -0.251375  0.000835  3.959679  0.001
C  C99  1  0.50558642  0.57030864  0.96205261  1  0.461952  0.000116  0.082407  0.157969  -1.2e-05  4.055281  0.0
C  C100  1  0.64575504  0.58152383  0.88636029  1  0.338775  0.007973  0.097907  0.14122  0.004709  4.073804  0.008
C  C101  1  0.64102746  0.50980185  0.92458327  1  0.090802  0.001732  -0.092405  -0.251389  0.000836  3.959524  0.001
C  C102  1  0.57030827  0.50558702  0.96205160  1  0.422014  0.000116  0.082425  0.15782  -1.3e-05  4.055364  0.0
C  C103  1  0.88635469  0.88635510  0.58153553  1  0.326932  0.007882  0.098063  0.141428  0.004707  4.073358  0.008
C  C104  1  0.92458966  0.92458423  0.50979986  1  0.147539  0.00173  -0.092529  -0.251735  0.000836  3.959273  0.001
C  C105  1  0.96205264  0.96205203  0.50558937  1  0.438239  0.000115  0.082493  0.158049  -1.2e-05  4.055497  0.0
N  N106  1  0.39443570  0.15550032  0.15549596  1  -0.727143  0.081651  -0.247898  -0.211114  0.042617  3.568349  0.056
N  N107  1  0.15549843  0.39443487  0.29456898  1  -0.642398  0.081272  -0.247846  -0.210986  0.042615  3.568272  0.056
N  N108  1  0.15550127  0.29457417  0.39442428  1  -0.648056  0.081313  -0.247995  -0.211237  0.04262  3.568619  0.056
N  N109  1  0.29457304  0.15550255  0.15549803  1  -0.673625  0.081381  -0.247935  -0.211082  0.042619  3.568478  0.056
N  N110  1  0.29457847  0.15549994  0.39442035  1  -0.646934  0.081285  -0.247965  -0.211191  0.042619  3.5686  0.056
N  N111  1  0.15550198  0.39443163  0.15549440  1  -0.72737  0.081656  -0.247862  -0.211031  0.042616  3.568595  0.056
N  N112  1  0.15550104  0.29457201  0.15549433  1  -0.673601  0.081376  -0.247865  -0.210992  0.042616  3.568538  0.056
N  N113  1  0.39444181  0.15549692  0.29456420  1  -0.64675  0.081294  -0.247945  -0.211079  0.042617  3.568204  0.056
N  N114  1  0.15549966  0.15549608  0.29456707  1  -0.673795  0.081374  -0.247886  -0.211017  0.042615  3.568129  0.056
N  N115  1  0.29457419  0.39442741  0.15549652  1  -0.646914  0.081293  -0.24798  -0.211142  0.042616  3.56891  0.056
N  N116  1  0.39443783  0.29456839  0.15549518  1  -0.646863  0.081295  -0.247895  -0.211006  0.042615  3.568523  0.056
N  N117  1  0.15550068  0.15549768  0.39442475  1  -0.727175  0.081657  -0.24799  -0.211179  0.042617  3.568812  0.056
N  N118  1  0.84449927  0.60556856  0.84450458  1  -0.727402  0.081656  -0.247901  -0.211193  0.042617  3.568659  0.056
N  N119  1  0.60555634  0.84450471  0.70543866  1  -0.646601  0.081301  -0.24798  -0.211142  0.042621  3.568109  0.056
N  N120  1  0.70541764  0.84450054  0.60558013  1  -0.648188  0.081303  -0.247988  -0.211246  0.042617  3.568826  0.056
N  N121  1  0.84449597  0.70542937  0.84450547  1  -0.673552  0.081377  -0.247844  -0.211083  0.042617  3.568459  0.056
N  N122  1  0.84450031  0.70542182  0.60557355  1  -0.648463  0.081299  -0.247998  -0.21125  0.042613  3.56917  0.056
N  N123  1  0.60556081  0.84450147  0.84450616  1  -0.727518  0.08165  -0.247882  -0.210934  0.04261  3.568411  0.056
N  N124  1  0.70542620  0.84449835  0.84450501  1  -0.67438  0.081376  -0.247907  -0.21108  0.042615  3.568774  0.056
N  N125  1  0.84450054  0.60556304  0.70543400  1  -0.648513  0.081324  -0.247844  -0.210993  0.042616  3.567849  0.056
N  N126  1  0.84449815  0.84450157  0.70543677  1  -0.673055  0.081383  -0.247793  -0.210907  0.042621  3.567707  0.056
N  N127  1  0.60556424  0.70543172  0.84450417  1  -0.646771  0.0813  -0.247841  -0.210927  0.042619  3.568162  0.056
N  N128  1  0.70542514  0.60557448  0.84450156  1  -0.646922  0.0813  -0.247999  -0.211217  0.04262  3.568788  0.056
N  N129  1  0.84449982  0.84450086  0.60557774  1  -0.727092  0.081637  -0.248069  -0.211404  0.042618  3.569046  0.056
N  N130  1  0.32025738  0.17975036  0.17974348  1  -0.215222  -0.000551  -0.114009  -0.019769  -0.003408  3.456412  -0.003
N  N131  1  0.17974822  0.32025788  0.32024844  1  -0.317025  -0.000127  -0.113973  -0.019709  -0.003405  3.456197  -0.003
N  N132  1  0.32026262  0.17974608  0.32024432  1  -0.305926  -0.000184  -0.113904  -0.019776  -0.003406  3.456278  -0.003
N  N133  1  0.17974973  0.32025441  0.17974083  1  -0.215363  -0.000549  -0.114032  -0.019827  -0.003405  3.456301  -0.003
N  N134  1  0.17974868  0.17974461  0.32024820  1  -0.215714  -0.000547  -0.11395  -0.019744  -0.003404  3.456236  -0.003
N  N135  1  0.32025943  0.32024984  0.17974279  1  -0.306331  -0.000181  -0.113968  -0.01976  -0.003406  3.456528  -0.003
N  N136  1  0.82024819  0.67974607  0.82025898  1  -0.215439  -0.000548  -0.114012  -0.019599  -0.003405  3.45628  -0.003
N  N137  1  0.67973405  0.82025496  0.67975672  1  -0.311036  -0.000158  -0.11385  -0.019698  -0.003405  3.456316  -0.003
N  N138  1  0.82025177  0.67974015  0.67975118  1  -0.316987  -0.000128  -0.11391  -0.019744  -0.003405  3.456245  -0.003
N  N139  1  0.67973942  0.82025172  0.82025971  1  -0.215061  -0.000552  -0.113884  -0.019733  -0.003408  3.456461  -0.003
N  N140  1  0.82025092  0.82025393  0.67975462  1  -0.216481  -0.000543  -0.114022  -0.019852  -0.003403  3.456372  -0.003
N  N141  1  0.67974128  0.67975163  0.82025656  1  -0.306145  -0.000181  -0.113988  -0.019821  -0.003405  3.45656  -0.003
Cl  Cl142  1  0.56265982  0.14578458  0.14577606  1  -0.569755  0.224204  -0.321953  -0.456929  0.116035  1.080247  0.147
Cl  Cl143  1  0.14579279  0.56264702  0.14577746  1  -0.569583  0.224214  -0.32191  -0.456832  0.116035  1.080233  0.147
Cl  Cl144  1  0.14579202  0.14578591  0.56263617  1  -0.569665  0.224201  -0.321869  -0.456825  0.116026  1.080274  0.147
Cl  Cl145  1  0.14579078  0.14578242  0.14577759  1  -0.580658  0.224669  -0.321916  -0.456857  0.116034  1.080233  0.147
Cl  Cl146  1  0.85420107  0.43735031  0.85423287  1  -0.569614  0.224206  -0.321898  -0.45685  0.116033  1.080266  0.147
Cl  Cl147  1  0.43733976  0.85420578  0.85422109  1  -0.569601  0.224209  -0.321946  -0.456936  0.116038  1.080311  0.147
Cl  Cl148  1  0.85420463  0.85422962  0.43736426  1  -0.569782  0.224186  -0.321859  -0.456824  0.116017  1.080133  0.147
Cl  Cl149  1  0.85422551  0.85421288  0.85421234  1  -0.580684  0.22467  -0.321892  -0.45683  0.116034  1.080246  0.147
O  O150  1  0.56424161  0.99999881  0.99999877  1  -1.07662  0.000484  -0.134264  -0.147919  0.000233  2.564689  0.0
O  O151  1  0.99999937  0.56424198  0.43576025  1  -1.08015  0.000484  -0.134277  -0.147933  0.000233  2.564695  0.0
O  O152  1  0.00000224  0.43576037  0.56423842  1  -1.080023  0.000484  -0.134271  -0.148017  0.000233  2.564523  0.0
O  O153  1  0.43575854  0.00000210  0.00000003  1  -1.076695  0.000484  -0.13425  -0.147928  0.000233  2.564574  0.0
O  O154  1  0.43575747  0.00000371  0.56423705  1  -1.080057  0.000484  -0.134251  -0.14802  0.000233  2.564504  0.0
O  O155  1  0.99999989  0.56424065  0.99999974  1  -1.076587  0.000484  -0.134253  -0.147865  0.000233  2.564561  0.0
O  O156  1  0.00000193  0.43575954  0.99999749  1  -1.076554  0.000484  -0.134266  -0.147916  0.000233  2.564576  0.0
O  O157  1  0.56424142  0.99999684  0.43576172  1  -1.080852  0.000484  -0.13426  -0.147898  0.000233  2.564757  0.0
O  O158  1  0.99999994  0.99999711  0.43576082  1  -1.07655  0.000484  -0.134262  -0.147885  0.000233  2.564641  0.0
O  O159  1  0.43575879  0.56423802  0.00000201  1  -1.084123  0.000484  -0.134243  -0.14798  0.000233  2.564554  0.0
O  O160  1  0.56424248  0.43575947  0.99999798  1  -1.080096  0.000484  -0.134259  -0.147912  0.000233  2.564624  0.0
O  O161  1  0.00000148  0.00000143  0.56423742  1  -1.076417  0.000484  -0.134245  -0.148013  0.000233  2.564532  0.0
