# generated using pymatgen
data_CoH24C34N4O5
_symmetry_space_group_name_H-M   'P 1'
_cell_length_a   9.15345851
_cell_length_b   11.48546037
_cell_length_c   13.02445779
_cell_angle_alpha   90.14452903
_cell_angle_beta   88.55850926
_cell_angle_gamma   89.87602951
_symmetry_Int_Tables_number   1
_chemical_formula_structural   CoH24C34N4O5
_chemical_formula_sum   'Co2 H48 C68 N8 O10'
_cell_volume   1368.84211112
_cell_formula_units_Z   2
loop_
 _symmetry_equiv_pos_site_id
 _symmetry_equiv_pos_as_xyz
  1  'x, y, z'
loop_
 _atom_site_type_symbol
 _atom_site_label
 _atom_site_symmetry_multiplicity
 _atom_site_fract_x
 _atom_site_fract_y
 _atom_site_fract_z
 _atom_site_occupancy
 _atom_site_pbe_bader_charge
 _atom_site_pbe_bader_spin_density
 _atom_site_pbe_cm5_charge
 _atom_site_pbe_ddec_charge
 _atom_site_pbe_ddec_spin_density
 _atom_site_pbe_ddec_sum_bond_order
 _atom_site_pbe_magmom
Co  Co0  1  0.24990164  0.44682349  0.50037014  1  1.354424  2.585206  0.668421  0.931314  2.809098  2.487943  2.575
Co  Co1  1  0.75009018  0.55317581  0.49963485  1  1.354344  2.585198  0.668377  0.931266  2.809088  2.487877  2.575
H  H2  1  0.76053054  0.55105167  0.24128147  1  0.14127  0.000135  0.106177  0.111886  -4.8e-05  1.052313  0.0
H  H3  1  0.74070597  0.55034952  0.75934245  1  0.145614  0.00015  0.106231  0.112158  -4.4e-05  1.051626  0.0
H  H4  1  0.23948552  0.44895457  0.75871653  1  0.141264  0.000135  0.106169  0.111875  -4.8e-05  1.052315  0.0
H  H5  1  0.25929136  0.44964804  0.24066099  1  0.145617  0.00015  0.106251  0.112211  -4.4e-05  1.051619  0.0
H  H6  1  0.65202837  0.46095999  0.08606746  1  0.069594  0.000152  0.102151  0.118514  5.5e-05  1.009302  0.0
H  H7  1  0.84814462  0.45985543  0.91464198  1  0.093358  0.000158  0.102204  0.118323  6.4e-05  1.009962  0.0
H  H8  1  0.34798098  0.53904017  0.91393594  1  0.069475  0.000152  0.102174  0.118517  5.5e-05  1.009392  0.0
H  H9  1  0.15185603  0.54013690  0.08536067  1  0.093228  0.000158  0.10221  0.118386  6.4e-05  1.009948  0.0
H  H10  1  0.97985239  0.19123937  0.09056056  1  0.037466  8e-05  0.101326  0.113396  2.8e-05  1.03117  0.0
H  H11  1  0.51878260  0.19267264  0.90896721  1  0.045276  0.000106  0.101055  0.11269  4.2e-05  1.032284  0.0
H  H12  1  0.02014385  0.80875732  0.90944288  1  0.037443  8e-05  0.101332  0.113427  2.8e-05  1.031201  0.0
H  H13  1  0.48122360  0.80731533  0.09103235  1  0.04541  0.000106  0.10106  0.112709  4.2e-05  1.032208  0.0
H  H14  1  0.08885659  0.28406646  0.24506725  1  0.092593  0.000181  0.105067  0.106485  3.4e-05  1.021667  0.0
H  H15  1  0.41069507  0.28582063  0.75454893  1  0.083402  0.0002  0.104808  0.106019  4.1e-05  1.021491  0.0
H  H16  1  0.91114744  0.71592847  0.75493155  1  0.092768  0.000181  0.105077  0.106575  3.4e-05  1.021657  0.0
H  H17  1  0.58930353  0.71416298  0.24544911  1  0.083628  0.0002  0.104823  0.106006  4.1e-05  1.021473  0.0
H  H18  1  0.05918335  0.24792755  0.41947540  1  0.119942  0.001532  0.114569  0.085753  0.000378  1.03293  0.001
H  H19  1  0.44028516  0.24844057  0.58139996  1  0.1172  0.001566  0.113902  0.084423  0.000401  1.033476  0.001
H  H20  1  0.94080741  0.75207089  0.58052882  1  0.120037  0.001532  0.11451  0.08572  0.000378  1.032851  0.001
H  H21  1  0.55971008  0.75155872  0.41860041  1  0.117157  0.001567  0.11389  0.084403  0.000401  1.033472  0.001
H  H22  1  0.05589462  0.03116477  0.40989990  1  0.078449  0.000861  0.105167  0.112619  0.000368  1.027106  0.0
H  H23  1  0.44498862  0.03168793  0.59078735  1  0.091308  0.000874  0.105194  0.11234  0.000375  1.027565  0.0
H  H24  1  0.94409302  0.96883018  0.59009895  1  0.078555  0.000861  0.10516  0.112642  0.000368  1.027074  0.0
H  H25  1  0.55501663  0.96830874  0.40920684  1  0.091693  0.000874  0.105175  0.112331  0.000374  1.027582  0.0
H  H26  1  0.14713785  0.86224155  0.35244148  1  0.110525  0.000845  0.101316  0.102828  0.000383  1.062063  0.0
H  H27  1  0.35480150  0.86324933  0.64820146  1  0.109863  0.000836  0.101247  0.102821  0.000382  1.063403  0.0
H  H28  1  0.85286755  0.13776294  0.64754734  1  0.110572  0.000845  0.101334  0.102825  0.000383  1.0622  0.0
H  H29  1  0.64518273  0.13675695  0.35180125  1  0.109868  0.000836  0.101266  0.102824  0.000382  1.063426  0.0
H  H30  1  0.15829662  0.64763835  0.35775593  1  0.093691  0.001418  0.114506  0.084797  0.00035  1.030918  0.001
H  H31  1  0.34293868  0.64864424  0.64378175  1  0.128223  0.00141  0.114478  0.08508  0.00034  1.031203  0.001
H  H32  1  0.84169006  0.35236268  0.64223833  1  0.09382  0.001418  0.114504  0.084739  0.00035  1.03096  0.001
H  H33  1  0.65704672  0.35135855  0.35621866  1  0.128231  0.00141  0.114517  0.085068  0.00034  1.03122  0.001
H  H34  1  0.86663932  0.05839913  0.24908689  1  0.066182  3.7e-05  0.107001  0.0753  1.5e-05  1.006441  0.0
H  H35  1  0.63385461  0.05803480  0.75127806  1  0.067231  3.3e-05  0.10712  0.074903  1.2e-05  1.006159  0.0
H  H36  1  0.13337248  0.94161146  0.75090730  1  0.066292  3.7e-05  0.107023  0.07529  1.5e-05  1.006528  0.0
H  H37  1  0.36615389  0.94197145  0.24871690  1  0.067247  3.3e-05  0.107094  0.0749  1.2e-05  1.006185  0.0
H  H38  1  0.74056377  0.06050493  0.08325649  1  0.080467  5e-06  0.104698  0.113416  3e-06  1.035008  0.0
H  H39  1  0.75976181  0.06026865  0.91717297  1  0.080272  5e-06  0.104941  0.113804  3e-06  1.034884  0.0
H  H40  1  0.25944584  0.93950044  0.91673770  1  0.080695  4e-06  0.10474  0.113458  3e-06  1.034873  0.0
H  H41  1  0.24024337  0.93973760  0.08282354  1  0.080105  5e-06  0.104927  0.113781  3e-06  1.034969  0.0
H  H42  1  0.84408436  0.69390111  0.05356655  1  0.064063  1e-05  0.103103  0.108484  4e-06  1.018908  0.0
H  H43  1  0.65594191  0.69418993  0.94635166  1  0.066644  7e-06  0.103056  0.108614  1e-06  1.018696  0.0
H  H44  1  0.15591630  0.30610080  0.94643534  1  0.064001  1e-05  0.103113  0.108507  4e-06  1.018922  0.0
H  H45  1  0.34405768  0.30581024  0.05364947  1  0.066589  7e-06  0.103052  0.108587  1e-06  1.018806  0.0
H  H46  1  0.95899406  0.70660899  0.22357369  1  0.099298  0.00014  0.111465  0.085654  8.1e-05  0.999976  0.0
H  H47  1  0.54110794  0.70676270  0.77636247  1  0.099751  0.00011  0.111291  0.085178  6.2e-05  1.000803  0.0
H  H48  1  0.04100984  0.29339466  0.77642896  1  0.099242  0.00014  0.111478  0.085665  8.1e-05  1.00002  0.0
H  H49  1  0.45889613  0.29324181  0.22363481  1  0.099618  0.00011  0.111288  0.085189  6.2e-05  1.000856  0.0
C  C50  1  0.98958404  0.47439201  0.34947540  1  1.562147  0.009311  0.213175  0.572046  0.006365  4.196865  0.009
C  C51  1  0.51173417  0.47589228  0.65091304  1  1.58012  0.007307  0.213057  0.572512  0.004715  4.194033  0.007
C  C52  1  0.01041777  0.52560902  0.65052418  1  1.56216  0.009315  0.21317  0.572044  0.006368  4.196527  0.009
C  C53  1  0.48826636  0.52410092  0.34909345  1  1.580353  0.007304  0.213187  0.57269  0.004713  4.194146  0.007
C  C54  1  0.93167766  0.42397947  0.25236198  1  -0.020801  0.006248  -0.027758  -0.064767  0.003104  3.989286  0.005
C  C55  1  0.56877015  0.42468975  0.74784381  1  -0.023759  0.006908  -0.02871  -0.065864  0.003444  3.99081  0.005
C  C56  1  0.06832852  0.57602330  0.74763759  1  -0.020774  0.006246  -0.027794  -0.064819  0.003103  3.98925  0.005
C  C57  1  0.43123376  0.57530084  0.25215959  1  -0.023594  0.00691  -0.028727  -0.06592  0.003445  3.990904  0.005
C  C58  1  0.81011898  0.47411114  0.20598928  1  0.003358  0.001181  -0.086754  -0.07991  0.000549  3.990744  0.001
C  C59  1  0.69063520  0.47388129  0.79447750  1  -0.003044  0.000484  -0.086504  -0.079861  -5e-06  3.990928  0.0
C  C60  1  0.18988168  0.52588728  0.79401260  1  0.003412  0.001183  -0.086697  -0.079826  0.00055  3.990781  0.001
C  C61  1  0.30936537  0.52611453  0.20552745  1  -0.003311  0.000483  -0.08652  -0.079834  -5e-06  3.99115  0.0
C  C62  1  0.74877367  0.42315562  0.12020810  1  -0.049415  0.000644  -0.108702  -0.217911  0.000281  4.012309  0.0
C  C63  1  0.75131441  0.42271160  0.88024837  1  -0.082085  0.000872  -0.108924  -0.21763  0.000373  4.013859  0.001
C  C64  1  0.25124023  0.57684627  0.87978914  1  -0.049493  0.000643  -0.108736  -0.21791  0.00028  4.012202  0.0
C  C65  1  0.24867952  0.57727988  0.11975967  1  -0.081539  0.000872  -0.108927  -0.217864  0.000373  4.013942  0.001
C  C66  1  0.81084856  0.32072243  0.08015709  1  0.345293  0.000172  0.081367  0.257095  -7.8e-05  4.050576  0.0
C  C67  1  0.68843271  0.32091882  0.92005671  1  0.33874  -0.000598  0.080751  0.256019  -0.000779  4.05054  0.0
C  C68  1  0.18915970  0.67927599  0.91984631  1  0.345383  0.000174  0.081348  0.257057  -7.6e-05  4.05062  0.0
C  C69  1  0.31156901  0.67907002  0.07994670  1  0.338641  -0.000599  0.080784  0.256279  -0.00078  4.050405  0.0
C  C70  1  0.93365266  0.27057283  0.12392628  1  0.06579  8.8e-05  -0.108144  -0.211332  -3.7e-05  4.014888  0.0
C  C71  1  0.56547133  0.27162562  0.87590303  1  0.059474  0.000389  -0.107321  -0.209685  0.000127  4.014571  0.0
C  C72  1  0.06635224  0.72942473  0.87608020  1  0.065764  8.8e-05  -0.108109  -0.211302  -3.7e-05  4.015236  0.0
C  C73  1  0.43453161  0.72836583  0.12409577  1  0.05923  0.00039  -0.107385  -0.209897  0.000127  4.01471  0.0
C  C74  1  0.99367811  0.32255683  0.20966444  1  -0.095944  0.001181  -0.086324  -0.077047  0.000341  3.988881  0.001
C  C75  1  0.50596472  0.32382089  0.79018487  1  -0.093951  0.000538  -0.085698  -0.076747  -0.000113  3.98705  0.0
C  C76  1  0.00632014  0.67743987  0.79034514  1  -0.095954  0.001183  -0.086289  -0.077122  0.000342  3.9892  0.001
C  C77  1  0.49403380  0.67616883  0.20981548  1  -0.09467  0.000537  -0.08568  -0.076597  -0.000114  3.986981  0.0
C  C78  1  0.14436035  0.19644070  0.45450005  1  0.499803  -0.004801  0.046756  0.10193  -0.005663  3.939193  -0.003
C  C79  1  0.35546922  0.19669981  0.54629598  1  0.500427  -0.004797  0.046639  0.10014  -0.005604  3.942448  -0.003
C  C80  1  0.85563035  0.80356122  0.54550571  1  0.499788  -0.004799  0.046795  0.10202  -0.005661  3.939115  -0.003
C  C81  1  0.64452824  0.80330122  0.45370285  1  0.500377  -0.004794  0.04667  0.100229  -0.005601  3.942409  -0.003
C  C82  1  0.14270131  0.07553153  0.45017375  1  -0.085569  0.003872  -0.084826  -0.178847  0.001841  3.950566  0.003
C  C83  1  0.35800095  0.07580889  0.55045679  1  -0.076639  0.003914  -0.085056  -0.177815  0.001849  3.951974  0.003
C  C84  1  0.85728972  0.92446950  0.54982126  1  -0.085499  0.003871  -0.084844  -0.179022  0.00184  3.95077  0.003
C  C85  1  0.64199877  0.92418952  0.44953972  1  -0.077039  0.003913  -0.084974  -0.177705  0.001849  3.951973  0.003
C  C86  1  0.25055728  0.01200548  0.50027285  1  0.026167  -0.006704  0.007096  0.096998  -0.00741  3.989401  -0.004
C  C87  1  0.74943814  0.98799468  0.49972138  1  0.026049  -0.006701  0.007006  0.096978  -0.007405  3.989582  -0.004
C  C88  1  0.25082600  0.88342220  0.50033998  1  0.023975  -0.005992  0.006373  0.096345  -0.006625  3.987312  -0.004
C  C89  1  0.74916607  0.11657623  0.49965656  1  0.023898  -0.005992  0.006425  0.096445  -0.006625  3.987371  -0.004
C  C90  1  0.19563397  0.81950916  0.41808267  1  -0.121556  0.003278  -0.087189  -0.180165  0.001542  3.93957  0.002
C  C91  1  0.30618685  0.82006376  0.58272832  1  -0.111946  0.003348  -0.086875  -0.180709  0.001583  3.941733  0.002
C  C92  1  0.80436042  0.18049013  0.58190926  1  -0.12131  0.003278  -0.087197  -0.18018  0.001542  3.939944  0.002
C  C93  1  0.69380516  0.17993728  0.41727053  1  -0.112205  0.003349  -0.086896  -0.180742  0.001584  3.941724  0.002
C  C94  1  0.19931791  0.69851894  0.42110697  1  0.534265  -0.00466  0.046861  0.112365  -0.005483  3.935433  -0.003
C  C95  1  0.30222214  0.69906775  0.58017247  1  0.50391  -0.004358  0.047381  0.113106  -0.005214  3.936858  -0.003
C  C96  1  0.80067645  0.30147774  0.57888649  1  0.534347  -0.004659  0.046857  0.112398  -0.005482  3.935766  -0.003
C  C97  1  0.69776227  0.30093155  0.41982486  1  0.503917  -0.004358  0.047336  0.113141  -0.005213  3.936824  -0.003
C  C98  1  0.85990893  0.97847587  0.20372411  1  0.490486  2.1e-05  0.037687  0.08747  7e-06  4.008596  0.0
C  C99  1  0.64045586  0.97829173  0.79658331  1  0.500018  1.9e-05  0.037935  0.087705  6e-06  4.007514  0.0
C  C100  1  0.14010392  0.02152602  0.79627160  1  0.491044  2.1e-05  0.037759  0.087534  7e-06  4.008586  0.0
C  C101  1  0.35955140  0.02171713  0.20341627  1  0.500306  1.9e-05  0.037902  0.08752  6e-06  4.007882  0.0
C  C102  1  0.79001349  0.98003039  0.10988226  1  -0.075621  5.5e-05  -0.088912  -0.180463  2.9e-05  3.936912  0.0
C  C103  1  0.71032385  0.97987078  0.89043488  1  -0.048618  5.2e-05  -0.08959  -0.180994  2.9e-05  3.936326  0.0
C  C104  1  0.20999601  0.01997586  0.89011577  1  -0.075905  5.5e-05  -0.089027  -0.18048  2.9e-05  3.936782  0.0
C  C105  1  0.28968566  0.02013111  0.10956315  1  -0.048792  5.2e-05  -0.089555  -0.180887  2.9e-05  3.936345  0.0
C  C106  1  0.78383320  0.87744332  0.05116845  1  -0.001255  2.1e-05  0.004238  0.092282  1e-05  3.989111  0.0
C  C107  1  0.71638180  0.87744956  0.94899742  1  -0.073763  2.3e-05  0.003943  0.091033  1.1e-05  3.989514  0.0
C  C108  1  0.21616974  0.12256119  0.94882960  1  -0.000796  2.1e-05  0.004244  0.092233  1e-05  3.989311  0.0
C  C109  1  0.28361899  0.12255060  0.05099986  1  -0.073779  2.3e-05  0.003965  0.09108  1.1e-05  3.989421  0.0
C  C110  1  0.84505455  0.77700609  0.09415393  1  0.00865  1.5e-05  -0.086137  -0.177944  -0.0  3.948548  0.0
C  C111  1  0.65499893  0.77714223  0.90588320  1  0.006775  2e-06  -0.085925  -0.177644  -1e-05  3.948911  0.0
C  C112  1  0.15495060  0.22300015  0.90584335  1  0.008372  1.5e-05  -0.086136  -0.177927  -0.0  3.948664  0.0
C  C113  1  0.34500188  0.22286054  0.09411332  1  0.006718  2e-06  -0.085946  -0.177667  -1e-05  3.948874  0.0
C  C114  1  0.91157820  0.78424566  0.18920434  1  0.476663  9.1e-05  0.042645  0.096579  2e-05  3.968631  0.0
C  C115  1  0.58853667  0.78434088  0.81083256  1  0.477657  7.8e-05  0.043124  0.097527  1.2e-05  3.969334  0.0
C  C116  1  0.08842361  0.21575799  0.81079525  1  0.476509  9.1e-05  0.04262  0.096583  2e-05  3.968667  0.0
C  C117  1  0.41146855  0.21566449  0.18916241  1  0.477663  7.8e-05  0.043204  0.097611  1.2e-05  3.969274  0.0
N  N118  1  0.24975585  0.25743354  0.50041221  1  -1.21329  0.047912  -0.306282  -0.211573  0.024848  3.488751  0.045
N  N119  1  0.75023712  0.74257186  0.49959048  1  -1.213323  0.047911  -0.306203  -0.211584  0.024848  3.488855  0.045
N  N120  1  0.25056554  0.63755361  0.50077871  1  -1.215359  0.045297  -0.315488  -0.260426  0.023314  3.52791  0.043
N  N121  1  0.74941994  0.36244395  0.49921939  1  -1.215515  0.045303  -0.315527  -0.26047  0.023315  3.528064  0.043
N  N122  1  0.92195640  0.88329837  0.24363257  1  -1.185275  0.000153  -0.318435  -0.263356  4.4e-05  3.313035  0.0
N  N123  1  0.57835027  0.88320825  0.75652444  1  -1.191435  0.000154  -0.318404  -0.262944  4.5e-05  3.314045  0.0
N  N124  1  0.07805099  0.11670526  0.75636315  1  -1.18582  0.000153  -0.318442  -0.263437  4.4e-05  3.312999  0.0
N  N125  1  0.42165706  0.11679887  0.24347283  1  -1.191141  0.000154  -0.318467  -0.262957  4.5e-05  3.31437  0.0
O  O126  1  0.10971383  0.43202172  0.37933045  1  -1.158593  0.076862  -0.300871  -0.552437  0.040543  2.462589  0.065
O  O127  1  0.39063936  0.43573728  0.62083630  1  -1.162157  0.077798  -0.301636  -0.554694  0.041062  2.46386  0.066
O  O128  1  0.89028014  0.56797585  0.62067607  1  -1.158498  0.076862  -0.300866  -0.552461  0.040543  2.462572  0.065
O  O129  1  0.60935793  0.56426203  0.37916867  1  -1.162095  0.077803  -0.301629  -0.554695  0.041064  2.46395  0.066
O  O130  1  0.91769955  0.55566030  0.39452115  1  -1.170544  0.067679  -0.317458  -0.566871  0.033875  2.417918  0.053
O  O131  1  0.58563032  0.55584356  0.60637845  1  -1.161625  0.070464  -0.316405  -0.564609  0.035427  2.422932  0.056
O  O132  1  0.08229244  0.44433116  0.60547845  1  -1.170483  0.067684  -0.31748  -0.566871  0.033876  2.417735  0.053
O  O133  1  0.41436570  0.44415750  0.39363267  1  -1.161883  0.070463  -0.316471  -0.56473  0.035426  2.423099  0.056
O  O134  1  0.74921730  0.26004757  0.00013559  1  -1.117545  -0.000585  -0.155186  -0.225678  -0.000807  2.603038  -0.001
O  O135  1  0.25078203  0.73994652  0.99987474  1  -1.117452  -0.000585  -0.155305  -0.22586  -0.000807  2.603338  -0.001
