# generated using pymatgen
data_CuH20C22SN4O7
_symmetry_space_group_name_H-M   'P 1'
_cell_length_a   10.50703385
_cell_length_b   11.32358336
_cell_length_c   21.90422263
_cell_angle_alpha   89.99967796
_cell_angle_beta   103.39779843
_cell_angle_gamma   89.99926228
_symmetry_Int_Tables_number   1
_chemical_formula_structural   CuH20C22SN4O7
_chemical_formula_sum   'Cu4 H80 C88 S4 N16 O28'
_cell_volume   2535.17898232
_cell_formula_units_Z   4
loop_
 _symmetry_equiv_pos_site_id
 _symmetry_equiv_pos_as_xyz
  1  'x, y, z'
loop_
 _atom_site_type_symbol
 _atom_site_label
 _atom_site_symmetry_multiplicity
 _atom_site_fract_x
 _atom_site_fract_y
 _atom_site_fract_z
 _atom_site_occupancy
 _atom_site_pbe_bader_charge
 _atom_site_pbe_bader_spin_density
 _atom_site_pbe_cm5_charge
 _atom_site_pbe_ddec_charge
 _atom_site_pbe_ddec_spin_density
 _atom_site_pbe_ddec_sum_bond_order
 _atom_site_pbe_magmom
Cu  Cu0  1  0.50835914  0.48199681  0.23829545  1  1.079179  -0.570452  0.748698  0.785965  -0.761092  2.290788  -0.569
Cu  Cu1  1  0.99164302  0.98198742  0.76170545  1  1.079231  -0.570461  0.748682  0.785902  -0.761098  2.290838  -0.569
Cu  Cu2  1  0.49166211  0.51800742  0.76169986  1  1.079218  0.570459  0.748621  0.785813  0.761103  2.290984  0.569
Cu  Cu3  1  0.00834110  0.01800268  0.23829946  1  1.079132  0.570452  0.748634  0.785798  0.761098  2.291012  0.569
H  H4  1  0.35163581  0.33337380  0.16664519  1  0.626095  -3.5e-05  0.281538  0.37746  -9e-06  0.96025  0.0
H  H5  1  0.14837212  0.83336773  0.83336058  1  0.626065  -3.5e-05  0.281547  0.377423  -9e-06  0.960277  0.0
H  H6  1  0.64838938  0.66661895  0.83335603  1  0.625887  3.5e-05  0.281521  0.377514  9e-06  0.960165  0.0
H  H7  1  0.85161101  0.16662325  0.16664012  1  0.625913  3.5e-05  0.281537  0.377502  9e-06  0.960182  0.0
H  H8  1  0.47567911  0.25127006  0.16949552  1  0.623714  0.000145  0.2917  0.375308  5.1e-05  0.942378  0.0
H  H9  1  0.02432914  0.75126374  0.83050505  1  0.623892  0.000145  0.291683  0.375282  5.1e-05  0.942406  0.0
H  H10  1  0.52434215  0.74872269  0.83050117  1  0.624031  -0.000144  0.291666  0.375346  -5.1e-05  0.942308  0.0
H  H11  1  0.97565009  0.24872813  0.16949749  1  0.623991  -0.000144  0.291705  0.375384  -5.1e-05  0.942254  0.0
H  H12  1  0.35037964  0.11751544  0.98759097  1  0.083954  1.5e-05  0.104967  0.09017  1.5e-05  0.999989  0.0
H  H13  1  0.14961707  0.61750321  0.01240552  1  0.083909  1.5e-05  0.10496  0.090214  1.5e-05  1.000037  0.0
H  H14  1  0.64962110  0.88250027  0.01241121  1  0.084226  -1.5e-05  0.104929  0.090163  -1.5e-05  0.999996  0.0
H  H15  1  0.85036994  0.38250278  0.98758647  1  0.084294  -1.5e-05  0.104961  0.090179  -1.5e-05  0.99996  0.0
H  H16  1  0.27434074  0.99920703  0.93751001  1  0.122866  3.9e-05  0.116258  0.112123  3.2e-05  0.994707  0.0
H  H17  1  0.22565762  0.49919718  0.06248600  1  0.122879  3.9e-05  0.116268  0.112213  3.2e-05  0.994614  0.0
H  H18  1  0.72566000  0.00080515  0.06249263  1  0.122723  -3.9e-05  0.116276  0.112149  -3.2e-05  0.994654  0.0
H  H19  1  0.77433526  0.50081234  0.93750618  1  0.122621  -3.9e-05  0.116281  0.112178  -3.2e-05  0.994609  0.0
H  H20  1  0.97961516  0.70889162  0.33469134  1  0.080711  4.7e-05  0.115511  0.132318  3.6e-05  0.975627  0.0
H  H21  1  0.52039239  0.20887506  0.66530867  1  0.080984  4.7e-05  0.1156  0.132391  3.6e-05  0.975588  0.0
H  H22  1  0.02041198  0.29108524  0.66530690  1  0.080281  -4.7e-05  0.115516  0.132272  -3.6e-05  0.975539  0.0
H  H23  1  0.47959565  0.79109473  0.33469804  1  0.080322  -4.7e-05  0.115514  0.132288  -3.6e-05  0.975534  0.0
H  H24  1  0.51784458  0.30918281  0.45288673  1  0.134626  -0.001106  0.11748  0.13487  -0.000593  0.994418  -0.001
H  H25  1  0.98215059  0.80920676  0.54711207  1  0.133971  -0.001107  0.11748  0.134819  -0.000593  0.994486  -0.001
H  H26  1  0.48214830  0.69080906  0.54710591  1  0.134393  0.001106  0.11744  0.134797  0.000593  0.994525  0.001
H  H27  1  0.01785213  0.19079747  0.45289489  1  0.134279  0.001107  0.117442  0.134836  0.000593  0.994513  0.001
H  H28  1  0.54981743  0.51468919  0.11226323  1  0.134618  -0.002136  0.129863  0.111898  -0.001039  0.966547  -0.002
H  H29  1  0.95018738  0.01468276  0.88773522  1  0.134668  -0.002135  0.129882  0.11189  -0.001039  0.966497  -0.002
H  H30  1  0.45018718  0.48531327  0.88772659  1  0.13467  0.002135  0.129875  0.111899  0.001038  0.966546  0.002
H  H31  1  0.04980849  0.98530734  0.11227281  1  0.134695  0.002135  0.129857  0.111882  0.001039  0.966412  0.002
H  H32  1  0.48933427  0.66455866  0.02569451  1  0.13022  -0.001096  0.118254  0.139334  -0.000582  0.983856  -0.001
H  H33  1  0.01066069  0.16455831  0.97429937  1  0.130699  -0.001095  0.118309  0.139438  -0.000582  0.983864  -0.001
H  H34  1  0.51066252  0.33544910  0.97429810  1  0.130345  0.001096  0.118246  0.139264  0.000582  0.984  0.001
H  H35  1  0.98932734  0.83544857  0.02570141  1  0.130014  0.001096  0.118291  0.139345  0.000582  0.983877  0.001
H  H36  1  0.54246479  0.89997899  0.10159446  1  0.058312  3.4e-05  0.108133  0.090288  2.7e-05  1.01467  0.0
H  H37  1  0.95752793  0.39998031  0.89840381  1  0.058208  3.4e-05  0.108127  0.090283  2.7e-05  1.014745  0.0
H  H38  1  0.45753693  0.10002700  0.89840645  1  0.058467  -3.4e-05  0.108143  0.090285  -2.7e-05  1.01468  0.0
H  H39  1  0.04246398  0.60002127  0.10159055  1  0.058327  -3.4e-05  0.10818  0.090359  -2.7e-05  1.014642  0.0
H  H40  1  0.51875191  0.05360755  0.08830901  1  0.065731  1e-05  0.106598  0.092721  -2e-06  0.98769  0.0
H  H41  1  0.98124640  0.55360637  0.91168815  1  0.065718  1e-05  0.10661  0.09273  -2e-06  0.98775  0.0
H  H42  1  0.48125178  0.94639845  0.91169669  1  0.066242  -1e-05  0.106606  0.092758  2e-06  0.987645  0.0
H  H43  1  0.01874647  0.44639432  0.08830220  1  0.066153  -1e-05  0.106588  0.09274  2e-06  0.987589  0.0
H  H44  1  0.73352365  0.95719503  0.53554245  1  0.109269  7e-06  0.114809  0.10678  8e-06  1.004464  0.0
H  H45  1  0.76646912  0.45721214  0.46445521  1  0.109316  7e-06  0.114822  0.106748  8e-06  1.004543  0.0
H  H46  1  0.26648393  0.04281450  0.46445684  1  0.109231  -7e-06  0.114863  0.106843  -8e-06  1.004529  0.0
H  H47  1  0.23351107  0.54280534  0.53554288  1  0.109399  -7e-06  0.114925  0.106856  -8e-06  1.004497  0.0
H  H48  1  0.61278221  0.85895323  0.49193713  1  0.065048  2.2e-05  0.109228  0.091747  1.5e-05  0.969012  0.0
H  H49  1  0.88720433  0.35896667  0.50806332  1  0.064687  2.2e-05  0.109287  0.091842  1.5e-05  0.969103  0.0
H  H50  1  0.38722927  0.14105100  0.50806212  1  0.064998  -2.2e-05  0.109225  0.091663  -1.5e-05  0.969137  0.0
H  H51  1  0.11277489  0.64104639  0.49193603  1  0.064996  -2.2e-05  0.109224  0.09167  -1.5e-05  0.969056  0.0
H  H52  1  0.26001002  0.84225581  0.13905878  1  0.09619  -0.001168  0.108913  0.118949  -0.000611  1.019355  -0.001
H  H53  1  0.23998697  0.34225130  0.86093663  1  0.096167  -0.001168  0.108916  0.118926  -0.000611  1.019313  -0.001
H  H54  1  0.73998973  0.15773870  0.86094055  1  0.096082  0.001168  0.108895  0.118916  0.000611  1.019464  0.001
H  H55  1  0.76001475  0.65773703  0.13906429  1  0.096419  0.001168  0.108901  0.118947  0.000611  1.019439  0.001
H  H56  1  0.68890549  0.28676677  0.26199695  1  0.149779  -0.001953  0.12151  0.101895  -0.000919  1.006842  -0.002
H  H57  1  0.81110570  0.78675361  0.73800551  1  0.149575  -0.001953  0.1215  0.10194  -0.000919  1.006692  -0.002
H  H58  1  0.31112557  0.71326042  0.73800675  1  0.149869  0.001953  0.121512  0.101908  0.000919  1.006757  0.002
H  H59  1  0.18887548  0.21326034  0.26199633  1  0.149769  0.001953  0.121475  0.101899  0.000919  1.006658  0.002
H  H60  1  0.33568106  0.68808199  0.22124948  1  0.135136  -0.001809  0.122058  0.0974  -0.000817  1.015149  -0.002
H  H61  1  0.16431646  0.18807750  0.77874644  1  0.134869  -0.00181  0.122091  0.097475  -0.000817  1.015049  -0.002
H  H62  1  0.66433726  0.31191252  0.77874597  1  0.135236  0.001809  0.122023  0.09737  0.000817  1.014957  0.002
H  H63  1  0.83567059  0.81190642  0.22125788  1  0.135321  0.001809  0.122127  0.097498  0.000817  1.01489  0.002
H  H64  1  0.46625293  0.45898686  0.36784270  1  0.15628  -0.001829  0.129343  0.108044  -0.000875  0.97725  -0.002
H  H65  1  0.03374024  0.95900023  0.63215924  1  0.156242  -0.001829  0.129343  0.108097  -0.000875  0.977198  -0.002
H  H66  1  0.53373996  0.54100677  0.63215177  1  0.156182  0.001829  0.129351  0.108043  0.000875  0.977306  0.002
H  H67  1  0.96626640  0.04099958  0.36785043  1  0.156329  0.001829  0.129385  0.108129  0.000875  0.977317  0.002
H  H68  1  0.42502549  0.95616871  0.41076848  1  0.080236  -1.2e-05  0.108211  0.0939  -1.1e-05  0.990862  0.0
H  H69  1  0.07496479  0.45616911  0.58923224  1  0.080174  -1.2e-05  0.108245  0.093895  -1.1e-05  0.990841  0.0
H  H70  1  0.57498111  0.04383993  0.58923070  1  0.080203  1.2e-05  0.108258  0.094071  1.1e-05  0.990633  0.0
H  H71  1  0.92502029  0.54383866  0.41076547  1  0.080141  1.2e-05  0.108235  0.094008  1.1e-05  0.990703  0.0
H  H72  1  0.42984072  0.11166309  0.40215568  1  0.075343  6e-06  0.111081  0.096926  4e-06  1.007765  0.0
H  H73  1  0.07015707  0.61166757  0.59784278  1  0.075329  6e-06  0.111069  0.096921  4e-06  1.00772  0.0
H  H74  1  0.57016783  0.88834202  0.59784326  1  0.075414  -7e-06  0.111155  0.097083  -4e-06  1.007657  0.0
H  H75  1  0.92982901  0.38833931  0.40215961  1  0.075418  -6e-06  0.111083  0.097018  -4e-06  1.007734  0.0
H  H76  1  0.21096621  0.65966367  0.31338741  1  0.11375  -0.000484  0.110071  0.137898  -0.000276  0.99459  0.0
H  H77  1  0.28903472  0.15965692  0.68661171  1  0.113812  -0.000484  0.110099  0.137911  -0.000276  0.994553  0.0
H  H78  1  0.78905996  0.34031406  0.68661392  1  0.113987  0.000484  0.110074  0.137956  0.000276  0.994609  0.0
H  H79  1  0.71094253  0.84031463  0.31338514  1  0.114248  0.000484  0.110086  0.137926  0.000276  0.994687  0.0
H  H80  1  0.75772094  0.13159065  0.34468267  1  0.106769  -0.001086  0.110515  0.119353  -0.000556  1.033069  -0.001
H  H81  1  0.74229078  0.63158803  0.65531529  1  0.105303  -0.001085  0.110554  0.119394  -0.000555  1.03303  -0.001
H  H82  1  0.24230326  0.86843036  0.65531708  1  0.105019  0.001085  0.110535  0.119439  0.000555  1.032971  0.001
H  H83  1  0.25769627  0.36842414  0.34468720  1  0.105207  0.001085  0.11053  0.119369  0.000555  1.033072  0.001
C  C84  1  0.36518363  0.02924039  0.96915423  1  0.261577  3.2e-05  -0.059949  -0.084385  3.1e-05  3.881477  0.0
C  C85  1  0.13481548  0.52923079  0.03084233  1  0.261672  3.2e-05  -0.059999  -0.084666  3.1e-05  3.881586  0.0
C  C86  1  0.63482004  0.97077355  0.03084828  1  0.261276  -3.2e-05  -0.059963  -0.084444  -3.1e-05  3.881545  0.0
C  C87  1  0.86517643  0.47077697  0.96915065  1  0.261232  -3.2e-05  -0.059998  -0.08446  -3.1e-05  3.881541  0.0
C  C88  1  0.99811044  0.63859237  0.30397337  1  0.030224  -0.000969  -0.093719  -0.109979  -0.000653  3.994551  -0.001
C  C89  1  0.50189337  0.13857747  0.69603146  1  0.029758  -0.000969  -0.093732  -0.110068  -0.000653  3.994737  -0.001
C  C90  1  0.00191475  0.36138801  0.69602831  1  0.030449  0.000969  -0.093578  -0.109695  0.000653  3.994834  0.001
C  C91  1  0.49809175  0.86139585  0.30397630  1  0.030233  0.000968  -0.093608  -0.109809  0.000653  3.994785  0.001
C  C92  1  0.55958903  0.29985358  0.41195252  1  -0.015806  -0.005952  -0.075439  -0.163585  -0.00412  3.939961  -0.005
C  C93  1  0.94041706  0.79986522  0.58804888  1  -0.015216  -0.005952  -0.075514  -0.163665  -0.004121  3.9404  -0.005
C  C94  1  0.44041560  0.70014800  0.58804324  1  -0.015694  0.005952  -0.075435  -0.163497  0.00412  3.940214  0.005
C  C95  1  0.05958370  0.20014078  0.41195786  1  -0.015875  0.005952  -0.075551  -0.163757  0.00412  3.940328  0.005
C  C96  1  0.64103366  0.20553140  0.40475669  1  -0.030239  0.003869  0.012798  0.038922  0.002607  3.96748  0.003
C  C97  1  0.85897785  0.70554305  0.59524240  1  -0.030387  0.003869  0.012899  0.038932  0.002607  3.967757  0.003
C  C98  1  0.35897978  0.79447813  0.59524004  1  -0.030876  -0.00387  0.012848  0.038792  -0.002608  3.967692  -0.003
C  C99  1  0.14101507  0.29447001  0.40476120  1  -0.030903  -0.003869  0.012923  0.038967  -0.002608  3.967665  -0.003
C  C100  1  0.48697633  0.58969407  0.11572771  1  0.46813  0.001541  0.056993  0.10817  0.000375  3.915703  0.001
C  C101  1  0.01302573  0.08969113  0.88427082  1  0.467693  0.001542  0.056929  0.108161  0.000375  3.915472  0.001
C  C102  1  0.51303024  0.41030927  0.88426370  1  0.466707  -0.001542  0.057007  0.108322  -0.000376  3.915537  -0.001
C  C103  1  0.98696329  0.91030691  0.11573600  1  0.466843  -0.001542  0.057005  0.108277  -0.000376  3.915674  -0.001
C  C104  1  0.90003318  0.56595359  0.27077059  1  -0.23243  -0.01173  -0.027043  -0.122679  -0.008252  3.995065  -0.009
C  C105  1  0.59996495  0.06593539  0.72923063  1  -0.231813  -0.011731  -0.027071  -0.122791  -0.008253  3.994879  -0.009
C  C106  1  0.09998807  0.43403475  0.72922244  1  -0.232727  0.011731  -0.027083  -0.122932  0.008253  3.994956  0.009
C  C107  1  0.40001332  0.93403352  0.27077683  1  -0.232582  0.011732  -0.027028  -0.12273  0.008254  3.994912  0.009
C  C108  1  0.11613570  0.51985018  0.25020855  1  -0.245608  -0.007265  -0.034453  -0.146723  -0.005119  4.021599  -0.005
C  C109  1  0.38386065  0.01984250  0.74979458  1  -0.245537  -0.007265  -0.034425  -0.146841  -0.005119  4.021658  -0.005
C  C110  1  0.88388751  0.48013285  0.74978835  1  -0.245893  0.007266  -0.034447  -0.14683  0.005119  4.022288  0.005
C  C111  1  0.61611271  0.98013170  0.25020777  1  -0.245464  0.007265  -0.034391  -0.146683  0.005118  4.021856  0.005
C  C112  1  0.45114135  0.67219052  0.06780715  1  -0.001165  -0.005575  -0.073243  -0.160421  -0.003873  3.920781  -0.004
C  C113  1  0.04885545  0.17218928  0.93218873  1  -0.00195  -0.005574  -0.0733  -0.160532  -0.003873  3.920951  -0.004
C  C114  1  0.54886620  0.32781724  0.93218619  1  -0.001558  0.005574  -0.073288  -0.160459  0.003873  3.92095  0.004
C  C115  1  0.95113356  0.82781230  0.06781489  1  -0.001229  0.005574  -0.073358  -0.160539  0.003873  3.920995  0.004
C  C116  1  0.75910000  0.56554908  0.27098620  1  1.591729  0.001066  0.181292  0.551011  -0.000384  4.305239  0.003
C  C117  1  0.74090206  0.06553008  0.72901910  1  1.590494  0.001073  0.181408  0.551356  -0.000382  4.304978  0.003
C  C118  1  0.24091731  0.43445515  0.72900092  1  1.591818  -0.001065  0.181248  0.551028  0.000383  4.305061  -0.003
C  C119  1  0.25908505  0.93445119  0.27099801  1  1.591719  -0.001065  0.181174  0.550888  0.000383  4.305206  -0.003
C  C120  1  0.52372190  0.96802401  0.06511715  1  0.32637  5.2e-05  -0.059298  -0.087703  3.6e-05  3.920113  0.0
C  C121  1  0.97627070  0.46802383  0.93488091  1  0.326649  5.2e-05  -0.059327  -0.087821  3.6e-05  3.920409  0.0
C  C122  1  0.47627689  0.03198375  0.93488573  1  0.325581  -5.2e-05  -0.059234  -0.087614  -3.6e-05  3.920058  0.0
C  C123  1  0.02372218  0.53197952  0.06511173  1  0.325558  -5.2e-05  -0.059222  -0.087627  -3.6e-05  3.920044  0.0
C  C124  1  0.62907051  0.94672735  0.51425384  1  0.307056  2.1e-05  -0.057762  -0.080609  2.4e-05  3.88782  0.0
C  C125  1  0.87092048  0.44673945  0.48574548  1  0.307822  2.1e-05  -0.057878  -0.080735  2.4e-05  3.888105  0.0
C  C126  1  0.37093804  0.05328218  0.48574327  1  0.307266  -2.1e-05  -0.057831  -0.080633  -2.4e-05  3.887834  0.0
C  C127  1  0.12905874  0.55327537  0.51425524  1  0.307355  -2.1e-05  -0.057867  -0.08059  -2.4e-05  3.887772  0.0
C  C128  1  0.22639599  0.46280320  0.23013912  1  1.557279  -0.000153  0.195752  0.566755  -0.001466  4.276179  0.001
C  C129  1  0.27360299  0.96279632  0.76986437  1  1.557415  -0.000155  0.1957  0.566702  -0.001467  4.276058  0.001
C  C130  1  0.77363113  0.53719220  0.76985821  1  1.556989  0.000154  0.19586  0.567001  0.001465  4.275756  -0.001
C  C131  1  0.72637037  0.03719024  0.23013707  1  1.557001  0.000152  0.195702  0.566726  0.001466  4.275833  -0.001
C  C132  1  0.36821287  0.76487365  0.07570213  1  -0.056129  0.003915  0.014693  0.041514  0.002629  3.991684  0.003
C  C133  1  0.13178341  0.26487239  0.92429160  1  -0.0559  0.003915  0.014819  0.041579  0.002629  3.991607  0.003
C  C134  1  0.63178492  0.23513058  0.92429379  1  -0.055618  -0.003915  0.014813  0.041638  -0.002629  3.991709  -0.003
C  C135  1  0.86821341  0.73512831  0.07570787  1  -0.055897  -0.003915  0.014807  0.041493  -0.002629  3.991794  -0.003
C  C136  1  0.68432523  0.11122592  0.45333328  1  1.400608  -0.000167  0.238934  0.411821  -0.000142  4.141489  0.0
C  C137  1  0.81567900  0.61124215  0.54666391  1  1.400467  -0.000167  0.238788  0.411632  -0.000142  4.141658  0.0
C  C138  1  0.31569016  0.88877919  0.54666184  1  1.400593  0.000167  0.238781  0.411824  0.000142  4.141717  0.0
C  C139  1  0.18430805  0.38877356  0.45333767  1  1.400593  0.000167  0.238792  0.41173  0.000142  4.141769  0.0
C  C140  1  0.32409751  0.77122142  0.13105872  1  -0.044923  -0.005857  -0.081521  -0.161148  -0.004057  3.949106  -0.005
C  C141  1  0.17589964  0.27121494  0.86893554  1  -0.044839  -0.005855  -0.08161  -0.161189  -0.004056  3.949186  -0.005
C  C142  1  0.67590811  0.22877574  0.86893852  1  -0.045076  0.005858  -0.081528  -0.161208  0.004057  3.949031  0.005
C  C143  1  0.82409523  0.72877428  0.13106553  1  -0.045324  0.005858  -0.081487  -0.161091  0.004057  3.94899  0.005
C  C144  1  0.31911681  0.85275541  0.02444081  1  1.444197  -0.000191  0.238116  0.407921  -0.000162  4.160008  0.0
C  C145  1  0.18087805  0.35274948  0.97555296  1  1.444597  -0.000191  0.238164  0.407859  -0.000162  4.159735  0.0
C  C146  1  0.68088295  0.14725589  0.97555944  1  1.444063  0.000191  0.238106  0.407883  0.000162  4.15994  0.0
C  C147  1  0.81911191  0.64725299  0.02444346  1  1.444437  0.000191  0.238218  0.408001  0.000163  4.15965  0.0
C  C148  1  0.65506754  0.28816117  0.30542233  1  0.457565  0.001628  0.045328  0.086649  0.000502  3.934664  0.001
C  C149  1  0.84494167  0.78815426  0.69457946  1  0.457558  0.001627  0.045268  0.086531  0.000502  3.934384  0.001
C  C150  1  0.34496058  0.71186160  0.69458013  1  0.457728  -0.001627  0.044995  0.086439  -0.000502  3.934407  -0.001
C  C151  1  0.15504245  0.21185616  0.30542317  1  0.458283  -0.001628  0.045141  0.086556  -0.000502  3.934476  -0.001
C  C152  1  0.36577414  0.68636175  0.17697770  1  0.487683  0.001043  0.048135  0.097101  -4.6e-05  3.934015  0.001
C  C153  1  0.13422146  0.18635979  0.82301847  1  0.487793  0.001042  0.048006  0.096888  -4.7e-05  3.933989  0.001
C  C154  1  0.63423831  0.31363365  0.82301756  1  0.488505  -0.001045  0.048069  0.097118  4.6e-05  3.933838  -0.001
C  C155  1  0.86576658  0.81362943  0.17698551  1  0.488147  -0.001045  0.04796  0.096924  4.6e-05  3.933688  -0.001
C  C156  1  0.52929810  0.38409590  0.36455093  1  0.451603  0.000924  0.057159  0.107918  -0.000183  3.917569  0.001
C  C157  1  0.97069978  0.88410931  0.63545160  1  0.451543  0.000925  0.057094  0.107847  -0.000183  3.917595  0.001
C  C158  1  0.47070555  0.61590480  0.63544472  1  0.452096  -0.000925  0.057107  0.107917  0.000183  3.917794  -0.001
C  C159  1  0.02929609  0.11589668  0.36455597  1  0.451529  -0.000926  0.057136  0.107889  0.000183  3.917688  -0.001
C  C160  1  0.45164191  0.03973590  0.43634716  1  0.28885  -2.4e-05  -0.056495  -0.084423  -1.9e-05  3.900107  0.0
C  C161  1  0.04835803  0.53973836  0.56365311  1  0.288934  -2.4e-05  -0.056506  -0.084421  -1.9e-05  3.899952  0.0
C  C162  1  0.54837349  0.96027186  0.56365252  1  0.288786  2.4e-05  -0.05668  -0.084904  2e-05  3.900274  0.0
C  C163  1  0.95162217  0.46027117  0.43634772  1  0.288824  2.4e-05  -0.056618  -0.084834  2e-05  3.900447  0.0
C  C164  1  0.12161228  0.61217847  0.29240193  1  0.032224  -0.002003  -0.095814  -0.096799  -0.001382  3.964822  -0.001
C  C165  1  0.37839236  0.11217219  0.70760093  1  0.032157  -0.002004  -0.095882  -0.096735  -0.001382  3.964688  -0.001
C  C166  1  0.87841976  0.38779750  0.70760097  1  0.0319  0.002004  -0.095844  -0.09695  0.001382  3.96554  0.001
C  C167  1  0.62158687  0.88780643  0.29240344  1  0.031654  0.002005  -0.095921  -0.096996  0.001383  3.96532  0.001
C  C168  1  0.69213183  0.20223296  0.35126433  1  -0.045353  -0.005444  -0.07968  -0.151615  -0.003796  3.944627  -0.004
C  C169  1  0.80787582  0.70223051  0.64873389  1  -0.043337  -0.005444  -0.079742  -0.151612  -0.003797  3.944594  -0.004
C  C170  1  0.30788847  0.79778629  0.64873499  1  -0.042908  0.005444  -0.079582  -0.151589  0.003797  3.944417  0.004
C  C171  1  0.19210829  0.29777990  0.35126646  1  -0.04326  0.005445  -0.079662  -0.151647  0.003797  3.944705  0.004
S  S172  1  0.95923860  0.46737691  0.22432231  1  0.240718  -0.003296  0.093847  0.139794  -0.002598  2.978553  -0.002
S  S173  1  0.54076089  0.96737187  0.77568655  1  0.240496  -0.003298  0.093846  0.139836  -0.0026  2.978455  -0.002
S  S174  1  0.04078656  0.53260965  0.77567206  1  0.241387  0.003296  0.093836  0.139986  0.002599  2.978755  0.002
S  S175  1  0.45921153  0.03261205  0.22432803  1  0.241355  0.003295  0.093809  0.139882  0.002599  2.978708  0.002
N  N176  1  0.59139160  0.03812676  0.46641891  1  -1.203862  9.7e-05  -0.274249  -0.106918  6.5e-05  3.614641  0.0
N  N177  1  0.90860794  0.53813583  0.53358071  1  -1.204467  9.7e-05  -0.274215  -0.106774  6.5e-05  3.614645  0.0
N  N178  1  0.40861989  0.96188630  0.53358125  1  -1.203785  -9.7e-05  -0.274284  -0.106962  -6.5e-05  3.614547  0.0
N  N179  1  0.09137421  0.46187723  0.46642078  1  -1.203896  -9.7e-05  -0.274196  -0.106842  -6.5e-05  3.614554  0.0
N  N180  1  0.39852936  0.94555155  0.02104987  1  -1.194748  1.6e-05  -0.274932  -0.100175  1.5e-05  3.622961  0.0
N  N181  1  0.10146303  0.44554476  0.97894700  1  -1.194549  1.6e-05  -0.274905  -0.099925  1.4e-05  3.622757  0.0
N  N182  1  0.60147138  0.05446063  0.97895231  1  -1.193996  -1.6e-05  -0.274961  -0.100155  -1.5e-05  3.623145  0.0
N  N183  1  0.89852791  0.55446035  0.02104725  1  -1.193966  -1.7e-05  -0.27494  -0.100167  -1.5e-05  3.623099  0.0
N  N184  1  0.44571701  0.59758288  0.16937786  1  -1.220432  -0.085131  -0.34881  -0.219696  -0.058824  3.60494  -0.074
N  N185  1  0.05428394  0.09757737  0.83062007  1  -1.220168  -0.085123  -0.348711  -0.219564  -0.05882  3.604511  -0.074
N  N186  1  0.55429739  0.40241517  0.83061441  1  -1.219837  0.085128  -0.348791  -0.219727  0.058821  3.605117  0.074
N  N187  1  0.94570410  0.90241096  0.16938619  1  -1.219861  0.085129  -0.348792  -0.219684  0.058822  3.605208  0.074
N  N188  1  0.57342312  0.37648790  0.31175246  1  -1.211586  -0.084639  -0.348504  -0.22602  -0.058564  3.629  -0.074
N  N189  1  0.92658075  0.87648450  0.68825077  1  -1.211649  -0.08464  -0.348364  -0.225811  -0.058565  3.628827  -0.074
N  N190  1  0.42659717  0.62352604  0.68824731  1  -1.212156  0.084642  -0.348196  -0.225765  0.058567  3.628846  0.074
N  N191  1  0.07340630  0.12352061  0.31175356  1  -1.21173  0.084645  -0.348252  -0.22575  0.058568  3.628762  0.074
O  O192  1  0.68866942  0.49872018  0.22735256  1  -1.114741  -0.117543  -0.341376  -0.563496  -0.077852  2.342519  -0.106
O  O193  1  0.81133641  0.99870223  0.77265554  1  -1.11379  -0.117551  -0.341432  -0.563652  -0.077856  2.342338  -0.106
O  O194  1  0.31134985  0.50128228  0.77263568  1  -1.114843  0.117545  -0.341302  -0.563407  0.07785  2.34241  0.106
O  O195  1  0.18865070  0.00127993  0.22736340  1  -1.114744  0.117543  -0.341288  -0.563362  0.077848  2.342476  0.106
O  O196  1  0.33963276  0.49597294  0.26277285  1  -1.129922  -0.093929  -0.335199  -0.572516  -0.062735  2.413608  -0.086
O  O197  1  0.16036665  0.99595894  0.73722739  1  -1.12997  -0.093922  -0.335235  -0.57253  -0.062729  2.413437  -0.086
O  O198  1  0.66039143  0.50402952  0.73722324  1  -1.129627  0.093916  -0.335326  -0.572749  0.062728  2.413299  0.086
O  O199  1  0.83961160  0.00403116  0.26277505  1  -1.129877  0.093925  -0.335334  -0.572652  0.062731  2.413247  0.086
O  O200  1  0.80308652  0.10285670  0.47836490  1  -1.116847  0.000328  -0.308819  -0.488159  0.00022  2.065556  0.0
O  O201  1  0.69691784  0.60287462  0.52163233  1  -1.116688  0.000328  -0.3087  -0.488078  0.00022  2.065664  0.0
O  O202  1  0.19692692  0.89714576  0.52163183  1  -1.116639  -0.000329  -0.308696  -0.488089  -0.00022  2.065715  0.0
O  O203  1  0.30307213  0.39714286  0.47836729  1  -1.1166  -0.000329  -0.308735  -0.488103  -0.00022  2.065761  0.0
O  O204  1  0.44498945  0.33250957  0.16415650  1  -1.24512  0.00147  -0.594748  -0.778234  0.000761  2.058882  0.0
O  O205  1  0.05501554  0.83250371  0.83584575  1  -1.245273  0.001471  -0.594721  -0.778178  0.000761  2.058949  0.0
O  O206  1  0.55503475  0.66748317  0.83584325  1  -1.245271  -0.00147  -0.594691  -0.77835  -0.000761  2.059002  0.0
O  O207  1  0.94496955  0.16748727  0.16415698  1  -1.245269  -0.001471  -0.594717  -0.77838  -0.000761  2.05887  0.0
O  O208  1  0.71812536  0.62399880  0.31076897  1  -1.162431  -0.001804  -0.327871  -0.548369  -0.000872  2.097443  -0.002
O  O209  1  0.78186891  0.12398151  0.68923576  1  -1.162291  -0.001803  -0.327918  -0.548483  -0.000873  2.097697  -0.002
O  O210  1  0.28189096  0.37602044  0.68921530  1  -1.162513  0.001803  -0.327926  -0.548419  0.000872  2.097678  0.002
O  O211  1  0.21812017  0.87601653  0.31078568  1  -1.162434  0.001803  -0.327898  -0.548393  0.000872  2.097646  0.002
O  O212  1  0.20474879  0.38822735  0.18615941  1  -1.168404  -0.001536  -0.315893  -0.536223  -0.000729  2.115954  -0.001
O  O213  1  0.29525141  0.88822769  0.81384809  1  -1.168592  -0.001536  -0.315848  -0.536141  -0.000729  2.115931  -0.001
O  O214  1  0.79528911  0.61176275  0.81384048  1  -1.168132  0.001536  -0.315902  -0.536243  0.000729  2.115971  0.001
O  O215  1  0.70471314  0.11175711  0.18615329  1  -1.168287  0.001536  -0.315755  -0.536068  0.000729  2.115958  0.001
O  O216  1  0.20989877  0.83647155  0.98869865  1  -1.1342  0.000422  -0.302902  -0.482933  0.000288  2.092667  0.0
O  O217  1  0.29009927  0.33646325  0.01129187  1  -1.134412  0.000422  -0.302939  -0.482904  0.000288  2.092607  0.0
O  O218  1  0.79010099  0.16354327  0.01130114  1  -1.13438  -0.000422  -0.302918  -0.482942  -0.000288  2.092529  0.0
O  O219  1  0.70988776  0.66353303  0.98870606  1  -1.134483  -0.000422  -0.30301  -0.482973  -0.000288  2.092426  0.0
