# generated using pymatgen
data_CoH16C18S3(NO)4
_symmetry_space_group_name_H-M   'P 1'
_cell_length_a   9.15734602
_cell_length_b   10.10599557
_cell_length_c   11.40568821
_cell_angle_alpha   101.83745348
_cell_angle_beta   92.35543330
_cell_angle_gamma   101.15404256
_symmetry_Int_Tables_number   1
_chemical_formula_structural   CoH16C18S3(NO)4
_chemical_formula_sum   'Co2 H32 C36 S6 N8 O8'
_cell_volume   1009.97451059
_cell_formula_units_Z   2
loop_
 _symmetry_equiv_pos_site_id
 _symmetry_equiv_pos_as_xyz
  1  'x, y, z'
loop_
 _atom_site_type_symbol
 _atom_site_label
 _atom_site_symmetry_multiplicity
 _atom_site_fract_x
 _atom_site_fract_y
 _atom_site_fract_z
 _atom_site_occupancy
 _atom_site_hle17_ddec_charge
 _atom_site_hle17_ddec_spin_density
 _atom_site_hle17_ddec_sum_bond_order
 _atom_site_hle17_magmom
 _atom_site_hse06_10hf_ddec_charge
 _atom_site_hse06_10hf_ddec_spin_density
 _atom_site_hse06_10hf_ddec_sum_bond_order
 _atom_site_hse06_10hf_magmom
 _atom_site_hse06_ddec_charge
 _atom_site_hse06_ddec_spin_density
 _atom_site_hse06_ddec_sum_bond_order
 _atom_site_hse06_magmom
 _atom_site_pbe_cm5_charge
 _atom_site_pbe_ddec_charge
 _atom_site_pbe_ddec_spin_density
 _atom_site_pbe_ddec_sum_bond_order
 _atom_site_pbe_magmom
Co  Co0  1  0.86230149  0.37832984  0.11634802  1  0.984257  2.877559  1.984319  2.588  0.950734  2.857559  2.386349  2.652  1.027114  2.89335  2.317548  2.725  0.667031  0.880108  2.82566  2.45356  2.582
Co  Co1  1  0.13768968  0.62166279  0.88364791  1  0.984009  2.877493  1.984681  2.588  0.950747  2.857546  2.386476  2.652  1.027138  2.893338  2.317669  2.725  0.667021  0.880124  2.825648  2.453701  2.582
H  H2  1  0.52729086  0.02549256  0.19805362  1  0.149099  -0.00041  0.887923  0.0  0.170252  -0.000277  0.929168  0.0  0.17268  -0.000214  0.928195  0.0  0.121623  0.168523  -0.000296  0.930314  0.0
H  H3  1  0.47270305  0.97450730  0.80194636  1  0.149014  -0.000413  0.887976  0.0  0.170177  -0.000277  0.929225  0.0  0.172603  -0.000213  0.928254  0.0  0.121593  0.168448  -0.000296  0.930367  0.0
H  H4  1  0.46507606  0.16258676  0.28884800  1  0.118986  -0.000109  0.965169  0.0  0.127821  7.9e-05  1.036178  0.0  0.129749  6e-05  1.035621  0.0  0.099772  0.12667  0.000115  1.036339  0.0
H  H5  1  0.53491723  0.83741515  0.71115409  1  0.11896  -0.000108  0.965267  0.0  0.127808  7.9e-05  1.036248  0.0  0.129733  6e-05  1.035703  0.0  0.099785  0.126656  0.000115  1.036406  0.0
H  H6  1  0.62117004  0.65554251  0.93254140  1  0.147797  -0.000629  0.905395  -0.001  0.16485  -6.3e-05  0.954541  0.0  0.168427  -5.5e-05  0.951831  0.0  0.116166  0.162171  -0.000304  0.956684  0.0
H  H7  1  0.37882449  0.34445528  0.06745821  1  0.147744  -0.000629  0.905351  -0.001  0.164815  -6.3e-05  0.954532  0.0  0.168394  -5.4e-05  0.95182  0.0  0.11615  0.162135  -0.000304  0.956671  0.0
H  H8  1  0.56811052  0.47256689  0.89361895  1  0.136021  -0.000204  0.92019  0.0  0.148012  3.3e-05  0.978742  0.0  0.15062  2e-06  0.977085  0.0  0.112305  0.145447  9.9e-05  0.98128  0.0
H  H9  1  0.43188105  0.52743711  0.10638085  1  0.135998  -0.000205  0.920106  0.0  0.148022  3.3e-05  0.978675  0.0  0.15063  3e-06  0.977015  0.0  0.112304  0.145458  9.9e-05  0.981211  0.0
H  H10  1  0.95336342  0.34133212  0.86594546  1  0.079835  -0.000478  0.980346  0.001  0.081338  -0.000353  1.055823  0.001  0.084018  -0.000406  1.053065  0.001  0.114786  0.079335  -0.000279  1.057684  0.001
H  H11  1  0.04663000  0.65866568  0.13405061  1  0.079774  -0.000479  0.980377  0.001  0.08126  -0.000353  1.05591  0.001  0.083938  -0.000405  1.053149  0.001  0.114765  0.079261  -0.000278  1.057772  0.001
H  H12  1  0.98422683  0.15596210  0.69589561  1  0.098094  4.7e-05  0.978724  0.0  0.109443  0.000178  1.03976  0.0  0.111265  0.000121  1.041764  0.0  0.098753  0.108019  0.00022  1.038823  0.0
H  H13  1  0.01578056  0.84403464  0.30409980  1  0.098121  4.6e-05  0.978704  0.0  0.109449  0.000178  1.039749  0.0  0.111271  0.000122  1.041753  0.0  0.098777  0.108028  0.00022  1.038814  0.0
H  H14  1  0.81068817  0.86112376  0.90632404  1  0.108166  0.000159  0.95141  0.0  0.120017  0.000262  1.009548  0.0  0.12288  0.000178  1.009453  0.0  0.10344  0.118085  0.000345  1.009477  0.0
H  H15  1  0.18931743  0.13886988  0.09366987  1  0.10814  0.000158  0.951394  0.0  0.12  0.000262  1.009522  0.0  0.12287  0.000178  1.009418  0.0  0.103429  0.118066  0.000345  1.009446  0.0
H  H16  1  0.78841736  0.05927441  0.06936646  1  0.073863  0.000225  0.951768  0.001  0.086067  0.000202  1.009143  0.001  0.088309  0.000126  1.007171  0.001  0.113471  0.083997  0.00026  1.011062  0.001
H  H17  1  0.21157690  0.94072238  0.93062419  1  0.073863  0.000225  0.951733  0.001  0.086103  0.000202  1.00908  0.001  0.08835  0.000127  1.0071  0.001  0.113451  0.08403  0.000261  1.010994  0.001
H  H18  1  0.89662262  0.77729538  0.71527578  1  0.08826  -8.3e-05  0.953857  0.0  0.099779  -0.000104  1.024219  0.0  0.101959  -0.000117  1.023045  0.0  0.09005  0.097649  -7.6e-05  1.02564  0.0
H  H19  1  0.10338025  0.22270549  0.28472289  1  0.08819  -8.1e-05  0.95392  0.0  0.099705  -0.000104  1.024297  0.0  0.101884  -0.000118  1.023128  0.0  0.090018  0.097575  -7.6e-05  1.025717  0.0
H  H20  1  0.03676395  0.89296946  0.66526972  1  0.082555  -0.000355  0.960457  0.0  0.094149  -8e-05  1.031796  0.0  0.096456  -6.6e-05  1.03043  0.0  0.088119  0.092101  -0.0001  1.032858  0.0
H  H21  1  0.96323977  0.10703038  0.33472703  1  0.08256  -0.000354  0.960325  0.0  0.094148  -8e-05  1.031695  0.0  0.096455  -6.7e-05  1.030331  0.0  0.088122  0.0921  -0.0001  1.032758  0.0
H  H22  1  0.84213869  0.96247849  0.54136020  1  0.083725  -0.000635  0.930301  -0.001  0.104355  -0.000294  0.989758  0.0  0.1054  -0.000234  0.989845  0.0  0.094471  0.103465  -0.000462  0.989713  0.0
H  H23  1  0.15786247  0.03752446  0.45863881  1  0.083728  -0.000638  0.93037  -0.001  0.104357  -0.000294  0.989816  0.0  0.105401  -0.000234  0.989903  0.0  0.094459  0.103459  -0.000462  0.989781  0.0
H  H24  1  0.70080546  0.85092582  0.59115895  1  0.073382  -0.000495  0.953301  0.0  0.08903  -0.000214  1.023652  0.0  0.089835  -0.000163  1.023846  0.0  0.088231  0.088368  -0.000302  1.022972  0.0
H  H25  1  0.29919330  0.14907608  0.40884330  1  0.073377  -0.000488  0.953358  0.0  0.089033  -0.000214  1.023702  0.0  0.089838  -0.000164  1.023893  0.0  0.088232  0.08837  -0.000302  1.023024  0.0
H  H26  1  0.02599375  0.68967108  0.54220665  1  0.117871  5.2e-05  0.967695  0.0  0.125704  0.000209  1.033468  0.0  0.129364  0.000133  1.032334  0.0  0.105038  0.122702  0.000287  1.034838  0.0
H  H27  1  0.97400379  0.31033493  0.45780335  1  0.117771  5.5e-05  0.9678  0.0  0.125639  0.000209  1.033554  0.0  0.1293  0.000133  1.032427  0.0  0.105018  0.122637  0.000287  1.034931  0.0
H  H28  1  0.03665179  0.50868973  0.35998296  1  0.081021  0.000304  0.947846  0.001  0.086954  9.6e-05  1.017176  0.001  0.089398  9e-06  1.014932  0.001  0.112308  0.085384  0.000221  1.018009  0.001
H  H29  1  0.96335143  0.49131731  0.64002477  1  0.081029  0.000304  0.947887  0.001  0.086972  9.6e-05  1.017188  0.001  0.089421  8e-06  1.014937  0.001  0.112328  0.0854  0.00022  1.018022  0.001
H  H30  1  0.67247168  0.59179903  0.18496351  1  0.079162  0.000376  0.944503  0.001  0.088613  0.000289  1.007548  0.001  0.091253  0.000175  1.004789  0.001  0.113312  0.085985  0.000486  1.01057  0.001
H  H31  1  0.32754127  0.40820285  0.81503740  1  0.079157  0.000376  0.944537  0.001  0.088599  0.000289  1.007576  0.001  0.091243  0.000175  1.004823  0.001  0.113287  0.085969  0.000486  1.010598  0.001
H  H32  1  0.64242098  0.77464030  0.36000278  1  0.106437  0.000133  0.97334  0.0  0.114948  0.000281  1.037366  0.0  0.117517  0.000204  1.037922  0.0  0.097997  0.113084  0.000355  1.036993  0.0
H  H33  1  0.35757886  0.22536160  0.63999863  1  0.106438  0.000129  0.973416  0.0  0.114955  0.000281  1.037421  0.0  0.117523  0.000205  1.037981  0.0  0.097999  0.113091  0.000355  1.037049  0.0
C  C34  1  0.67330171  0.22284459  0.21205211  1  0.647098  -0.013063  3.92895  -0.01  0.604505  -0.005298  4.242064  -0.004  0.638708  -0.004379  4.239092  -0.003  0.180926  0.580634  -0.006067  4.240338  -0.006
C  C35  1  0.32671980  0.77715617  0.78796200  1  0.647081  -0.013059  3.929389  -0.01  0.604444  -0.005296  4.242603  -0.004  0.638643  -0.004376  4.239634  -0.003  0.180867  0.580569  -0.006065  4.240865  -0.006
C  C36  1  0.56560166  0.12168923  0.26654991  1  -0.30449  0.001346  3.640649  0.002  -0.336804  0.001037  3.898649  0.001  -0.340335  0.000566  3.901979  0.0  -0.14828  -0.33486  0.001537  3.896387  0.002
C  C37  1  0.43439381  0.87831269  0.73345050  1  -0.304391  0.001347  3.640689  0.002  -0.3367  0.001036  3.898725  0.001  -0.340229  0.000564  3.902047  0.0  -0.148276  -0.334768  0.001537  3.896495  0.002
C  C38  1  0.64678447  0.20891520  0.51029979  1  0.056045  -8.7e-05  3.805558  0.0  0.055416  -1.1e-05  4.120465  0.0  0.065399  -6e-06  4.134332  0.0  0.109104  0.04869  0.000163  4.109146  0.0
C  C39  1  0.35321163  0.79108464  0.48970113  1  0.056033  -8.4e-05  3.80577  0.0  0.05543  -1.1e-05  4.120632  0.0  0.065415  -5e-06  4.134494  0.0  0.109148  0.048705  0.000163  4.109314  0.0
C  C40  1  0.64277316  0.41856208  0.65156053  1  0.059513  -0.000548  3.825546  0.0  0.058666  -0.000259  4.135151  0.0  0.068414  -0.000207  4.150358  0.0  0.110062  0.052934  -0.000106  4.1225  0.0
C  C41  1  0.35722339  0.58143984  0.34843903  1  0.059445  -0.000553  3.82562  0.0  0.058576  -0.000258  4.135254  0.0  0.068323  -0.000206  4.150461  0.0  0.110026  0.052842  -0.000106  4.122611  0.0
C  C42  1  0.64827652  0.56165818  0.87792284  1  -0.303214  0.005626  3.623361  0.009  -0.338142  0.003632  3.88094  0.006  -0.34252  0.00248  3.883052  0.004  -0.143769  -0.33522  0.005073  3.881008  0.008
C  C43  1  0.35172239  0.43833959  0.12207865  1  -0.30301  0.00563  3.622883  0.009  -0.338108  0.003634  3.880642  0.006  -0.342493  0.00248  3.882773  0.004  -0.143739  -0.335192  0.005075  3.880726  0.008
C  C44  1  0.80580158  0.54717004  0.91485805  1  0.725403  -0.012479  3.82991  -0.007  0.683453  3.2e-05  4.136404  0.004  0.723302  0.000806  4.126411  0.004  0.222371  0.65367  -0.001914  4.140274  0.002
C  C45  1  0.19418460  0.45282467  0.08513987  1  0.725455  -0.012478  3.830039  -0.007  0.68362  2.9e-05  4.136364  0.004  0.723467  0.000804  4.126362  0.004  0.222461  0.653837  -0.001917  4.140228  0.002
C  C46  1  0.92178738  0.23366167  0.87143534  1  0.146488  -0.01722  3.68318  -0.012  0.118141  -0.004573  3.94076  -0.003  0.127313  -0.004184  3.956392  -0.003  0.042895  0.111123  -0.005748  3.931185  -0.004
C  C47  1  0.07821041  0.76633612  0.12855998  1  0.146378  -0.017203  3.682987  -0.012  0.118001  -0.004573  3.940619  -0.003  0.127177  -0.004183  3.956244  -0.003  0.0428  0.110987  -0.005748  3.931059  -0.004
C  C48  1  0.93913011  0.12888434  0.77668522  1  -0.165872  0.007106  3.699813  0.01  -0.183377  0.001721  3.942158  0.003  -0.191792  0.00159  3.963356  0.002  -0.089755  -0.178496  0.001877  3.929642  0.003
C  C49  1  0.06086658  0.87111346  0.22330832  1  -0.165756  0.007098  3.699812  0.01  -0.183187  0.001721  3.942166  0.003  -0.191599  0.001588  3.96336  0.002  -0.089696  -0.178305  0.001877  3.929661  0.003
C  C50  1  0.89899262  0.99070012  0.78553936  1  0.163109  -0.016578  3.713624  -0.011  0.180943  -0.004659  3.946623  -0.003  0.187576  -0.003321  3.967213  -0.002  0.01094  0.175754  -0.007277  3.933855  -0.004
C  C51  1  0.10101369  0.00929661  0.21445777  1  0.163015  -0.01657  3.713693  -0.011  0.180748  -0.004659  3.94684  -0.003  0.187379  -0.003317  3.96744  -0.002  0.010845  0.175565  -0.007278  3.934075  -0.004
C  C52  1  0.84143201  0.96621936  0.89265362  1  -0.184321  0.007036  3.725958  0.01  -0.200563  0.001807  3.971117  0.003  -0.209543  0.00159  3.992427  0.002  -0.091819  -0.19517  0.002128  3.95808  0.004
C  C53  1  0.15857054  0.03377532  0.10734215  1  -0.184352  0.007034  3.726146  0.01  -0.200572  0.001807  3.971344  0.003  -0.20956  0.001587  3.992657  0.002  -0.091809  -0.195175  0.002129  3.958297  0.004
C  C54  1  0.82832835  0.07670875  0.98410147  1  0.12882  -0.016537  3.732395  -0.011  0.102414  -0.003772  3.98543  -0.002  0.111576  -0.003012  4.002324  -0.002  0.039169  0.095557  -0.005558  3.975246  -0.003
C  C55  1  0.17166436  0.92328597  0.01589138  1  0.128897  -0.016518  3.732559  -0.011  0.102468  -0.00377  3.985559  -0.002  0.111628  -0.003009  4.002455  -0.002  0.03928  0.09562  -0.005557  3.975367  -0.003
C  C56  1  0.91887443  0.87529163  0.68529496  1  -0.169912  0.000102  3.703414  0.001  -0.2076  -8.2e-05  3.94136  0.0  -0.209475  -8.7e-05  3.951142  0.0  -0.167299  -0.20631  -0.000129  3.936003  0.0
C  C57  1  0.08112859  0.12470512  0.31470032  1  -0.169759  9.9e-05  3.703167  0.001  -0.207439  -8.2e-05  3.941175  0.0  -0.209321  -8.5e-05  3.95097  0.0  -0.167239  -0.20615  -0.000129  3.935815  0.0
C  C58  1  0.81877370  0.86397780  0.57137063  1  -0.145484  -0.000362  3.699317  0.001  -0.189894  -0.000324  3.949036  0.0  -0.191445  -0.00022  3.96066  0.0  -0.157395  -0.188856  -0.00057  3.941514  0.0
C  C59  1  0.18122661  0.13602617  0.42863117  1  -0.145499  -0.000365  3.699444  0.001  -0.189911  -0.000324  3.949094  0.0  -0.191462  -0.000219  3.960726  0.0  -0.157348  -0.188864  -0.00057  3.941575  0.0
C  C60  1  0.83249450  0.74955040  0.46737624  1  0.150874  -0.019038  3.715501  -0.013  0.167145  -0.007074  3.953394  -0.004  0.174055  -0.005866  3.973513  -0.004  0.006204  0.162285  -0.010156  3.940452  -0.006
C  C61  1  0.16750605  0.25045460  0.53262577  1  0.150869  -0.019037  3.715606  -0.013  0.167203  -0.007075  3.953422  -0.004  0.174114  -0.005871  3.973538  -0.004  0.00617  0.162338  -0.010159  3.940478  -0.006
C  C62  1  0.94398216  0.67186947  0.46558238  1  -0.189865  0.007617  3.692966  0.011  -0.206982  0.002149  3.940292  0.003  -0.216036  0.002122  3.960727  0.003  -0.094028  -0.201101  0.002298  3.927006  0.004
C  C63  1  0.05602650  0.32813757  0.53442112  1  -0.189826  0.007612  3.693136  0.011  -0.206957  0.00215  3.940327  0.003  -0.216018  0.002124  3.960767  0.003  -0.094022  -0.201082  0.002298  3.927048  0.004
C  C64  1  0.95080625  0.57021403  0.36403822  1  0.141379  -0.019804  3.686995  -0.013  0.112073  -0.007042  3.947616  -0.004  0.121487  -0.006531  3.963581  -0.004  0.044213  0.10487  -0.008775  3.936356  -0.005
C  C65  1  0.04919959  0.42979510  0.63596383  1  0.141393  -0.019806  3.686934  -0.013  0.112139  -0.007048  3.947595  -0.004  0.121554  -0.006538  3.963552  -0.004  0.0442  0.104931  -0.008781  3.93634  -0.005
C  C66  1  0.74729459  0.61624415  0.26666001  1  0.127402  -0.017673  3.732663  -0.012  0.097522  -0.005338  3.993777  -0.003  0.106465  -0.005208  4.009852  -0.003  0.040076  0.090641  -0.006486  3.98428  -0.004
C  C67  1  0.25271181  0.38375774  0.73334071  1  0.127638  -0.017667  3.732712  -0.012  0.097813  -0.005338  3.993839  -0.003  0.106748  -0.005207  4.009918  -0.003  0.040237  0.090933  -0.006486  3.984335  -0.004
C  C68  1  0.73213850  0.71849781  0.36448048  1  -0.197659  0.0078  3.738318  0.011  -0.216146  0.002308  3.991247  0.004  -0.22512  0.002319  4.012815  0.003  -0.099345  -0.210773  0.002437  3.977875  0.004
C  C69  1  0.26786462  0.28150408  0.63552278  1  -0.197747  0.007804  3.738377  0.011  -0.216272  0.002307  3.9913  0.004  -0.225245  0.002318  4.012864  0.003  -0.099366  -0.210901  0.002438  3.977926  0.004
S  S70  1  0.64168528  0.06769648  0.39327353  1  0.098504  0.001585  2.470967  0.002  0.087683  0.001563  2.822294  0.002  0.085242  0.000944  2.819921  0.001  0.056571  0.09038  0.002253  2.821995  0.003
S  S71  1  0.35830644  0.93230339  0.60672551  1  0.098559  0.001585  2.470864  0.002  0.087735  0.001563  2.822179  0.002  0.085299  0.000945  2.819802  0.001  0.056612  0.090433  0.002252  2.821879  0.003
S  S72  1  0.63242821  0.37523916  0.49513033  1  0.083026  -0.000308  2.520408  0.0  0.082833  -0.000206  2.8567  0.0  0.083859  -0.000163  2.859515  0.0  0.097291  0.080942  -7e-05  2.855535  0.0
S  S73  1  0.36757007  0.62476068  0.50486890  1  0.083036  -0.000302  2.520427  0.0  0.082839  -0.000207  2.856723  0.0  0.083869  -0.000165  2.859534  0.0  0.097282  0.080955  -7.1e-05  2.855556  0.0
S  S74  1  0.61938457  0.57963797  0.72549034  1  0.076779  0.001052  2.542864  0.001  0.066553  0.00116  2.905577  0.001  0.063249  0.000637  2.905584  0.001  0.045563  0.068427  0.001972  2.906456  0.002
S  S75  1  0.38060363  0.42036088  0.27450665  1  0.076768  0.001055  2.542778  0.001  0.066588  0.001159  2.905606  0.001  0.063282  0.000635  2.905617  0.001  0.045571  0.068465  0.001971  2.906493  0.002
N  N76  1  0.66214437  0.19759722  0.62273022  1  -0.22003  0.000199  3.065911  0.0  -0.204594  0.000133  3.363407  0.0  -0.213136  7e-05  3.379018  0.0  -0.222311  -0.197822  0.000151  3.351742  0.0
N  N77  1  0.33785064  0.80240263  0.37727154  1  -0.220099  0.000196  3.066072  0.0  -0.204678  0.000133  3.363574  0.0  -0.213221  6.9e-05  3.379186  0.0  -0.222403  -0.19791  0.000152  3.351918  0.0
N  N78  1  0.66099114  0.31719197  0.70365018  1  -0.205424  0.000157  3.029869  0.001  -0.184067  0.000142  3.317406  0.0  -0.192723  7.4e-05  3.332271  0.0  -0.220347  -0.177748  0.000142  3.30579  0.0
N  N79  1  0.33900737  0.68280891  0.29635012  1  -0.205359  0.000157  3.029978  0.001  -0.183988  0.000142  3.317501  0.0  -0.192643  7.7e-05  3.332367  0.0  -0.220285  -0.177667  0.000142  3.305893  0.0
N  N80  1  0.86772149  0.20948298  0.97497529  1  -0.32666  0.035675  3.309298  0.067  -0.278887  0.023845  3.587561  0.04  -0.30195  0.019976  3.600568  0.033  -0.330193  -0.261962  0.0268  3.580956  0.044
N  N81  1  0.13227653  0.79051585  0.02501936  1  -0.326609  0.03567  3.309129  0.067  -0.278855  0.023845  3.587385  0.04  -0.301917  0.019976  3.600391  0.033  -0.330199  -0.261933  0.0268  3.580794  0.044
N  N82  1  0.85499576  0.54219742  0.26521564  1  -0.324511  0.034733  3.318394  0.066  -0.275567  0.023877  3.595697  0.043  -0.29743  0.020173  3.609062  0.036  -0.330691  -0.259293  0.026762  3.587563  0.047
N  N83  1  0.14501391  0.45780446  0.73478517  1  -0.324652  0.034734  3.318532  0.066  -0.275888  0.023879  3.595963  0.043  -0.297746  0.020177  3.609318  0.036  -0.330839  -0.259618  0.026767  3.587831  0.047
O  O84  1  0.62069557  0.27193500  0.12967196  1  -0.609779  0.029975  1.929824  0.054  -0.582648  0.023525  2.176283  0.041  -0.616263  0.017059  2.170345  0.031  -0.318882  -0.553601  0.031186  2.176952  0.053
O  O85  1  0.37932769  0.72806890  0.87033314  1  -0.609769  0.029945  1.930335  0.054  -0.582616  0.023508  2.176751  0.041  -0.616227  0.017045  2.170831  0.031  -0.318812  -0.553586  0.031163  2.177431  0.053
O  O86  1  0.81209184  0.25201152  0.24668612  1  -0.612496  0.040745  2.026767  0.072  -0.580792  0.030955  2.291557  0.053  -0.617917  0.022722  2.288317  0.039  -0.309569  -0.54914  0.039746  2.29049  0.066
O  O87  1  0.18791518  0.74798306  0.75332992  1  -0.612375  0.040771  2.026462  0.072  -0.580747  0.030969  2.29135  0.053  -0.617906  0.022731  2.288166  0.039  -0.309581  -0.549092  0.039764  2.290282  0.066
O  O88  1  0.81732907  0.50025415  0.00868008  1  -0.632168  0.037005  2.162141  0.064  -0.601437  0.031293  2.459081  0.049  -0.638895  0.023396  2.443569  0.035  -0.311505  -0.567386  0.040989  2.467103  0.065
O  O89  1  0.18266540  0.49975293  0.99132476  1  -0.632258  0.037007  2.16232  0.064  -0.601568  0.031296  2.459167  0.049  -0.639028  0.0234  2.443653  0.035  -0.311565  -0.56752  0.040993  2.46719  0.065
O  O90  1  0.91110487  0.58477756  0.85226825  1  -0.621  0.040502  2.119433  0.069  -0.591887  0.031669  2.40834  0.051  -0.628273  0.023567  2.397338  0.038  -0.307026  -0.559213  0.041125  2.412263  0.065
O  O91  1  0.08889136  0.41520370  0.14772308  1  -0.62107  0.040486  2.119646  0.069  -0.591936  0.031661  2.408521  0.051  -0.628308  0.023562  2.397506  0.038  -0.307099  -0.559273  0.041115  2.412452  0.065
