# generated using pymatgen
data_Cd2H36C52(N4O5)3
_symmetry_space_group_name_H-M   'P 1'
_cell_length_a   12.70317854
_cell_length_b   14.16641246
_cell_length_c   17.34650081
_cell_angle_alpha   99.48388343
_cell_angle_beta   108.87586908
_cell_angle_gamma   96.44855924
_symmetry_Int_Tables_number   1
_chemical_formula_structural   Cd2H36C52(N4O5)3
_chemical_formula_sum   'Cd4 H72 C104 N24 O30'
_cell_volume   2867.16128103
_cell_formula_units_Z   2
loop_
 _symmetry_equiv_pos_site_id
 _symmetry_equiv_pos_as_xyz
  1  'x, y, z'
loop_
 _atom_site_type_symbol
 _atom_site_label
 _atom_site_symmetry_multiplicity
 _atom_site_fract_x
 _atom_site_fract_y
 _atom_site_fract_z
 _atom_site_occupancy
 _atom_site_pbe_bader_charge
 _atom_site_pbe_bader_spin_density
 _atom_site_pbe_cm5_charge
 _atom_site_pbe_ddec_charge
 _atom_site_pbe_ddec_spin_density
 _atom_site_pbe_ddec_sum_bond_order
 _atom_site_pbe_magmom
Cd  Cd0  1  0.32658295  0.98209318  0.26757060  1  1.276842  0  0.774351  0.904302  0  2.154395  0
Cd  Cd1  1  0.67342569  0.01790697  0.73243167  1  1.276902  0  0.774321  0.904239  0  2.154472  0
Cd  Cd2  1  0.41599096  0.69042627  0.76357966  1  1.249807  0  0.756247  0.85444  0  2.181398  0
Cd  Cd3  1  0.58400872  0.30958510  0.23642034  1  1.25019  0  0.756284  0.854461  0  2.181396  0
H  H4  1  0.41314383  0.17400953  0.84180373  1  0.61511  0  0.310608  0.336823  0  0.95336  0
H  H5  1  0.58686480  0.82601041  0.15821216  1  0.614925  0  0.310618  0.336952  0  0.953252  0
H  H6  1  0.31959490  0.47686100  0.26631173  1  0.620118  0  0.33571  0.368925  0  0.8736  0
H  H7  1  0.68041568  0.52313396  0.73368278  1  0.620373  0  0.335701  0.368817  0  0.873766  0
H  H8  1  0.55809600  0.09523312  0.34063609  1  0.64157  0  0.296794  0.401233  0  0.920109  0
H  H9  1  0.44190253  0.90476658  0.65936323  1  0.641528  0  0.296779  0.401201  0  0.920127  0
H  H10  1  0.56389514  0.98272199  0.34796181  1  0.628201  0  0.290318  0.358327  0  0.981285  0
H  H11  1  0.43610667  0.01727762  0.65203652  1  0.628193  0  0.290289  0.358246  0  0.981392  0
H  H12  1  0.65700422  0.76671072  0.82435336  1  0.656445  0  0.281508  0.394433  0  0.949166  0
H  H13  1  0.34299623  0.23329332  0.17564871  1  0.656486  0  0.281478  0.394406  0  0.949219  0
H  H14  1  0.61868020  0.68801824  0.73959087  1  0.594785  0  0.298522  0.374091  0  0.942031  0
H  H15  1  0.38130716  0.31197960  0.26041199  1  0.594385  0  0.298505  0.374105  0  0.941954  0
H  H16  1  0.15902237  0.94333386  0.36219934  1  0.154054  0  0.11717  0.09328  0  1.014986  0
H  H17  1  0.84098920  0.05666474  0.63780224  1  0.154275  0  0.117196  0.09333  0  1.014903  0
H  H18  1  0.07560893  0.97071502  0.11713904  1  0.118376  0  0.12324  0.096307  0  0.975821  0
H  H19  1  0.92441057  0.02927530  0.88286036  1  0.11833  0  0.123176  0.096138  0  0.97571  0
H  H20  1  0.86713033  0.92126593  0.08910397  1  0.119198  0  0.109401  0.116425  0  1.022124  0
H  H21  1  0.13289074  0.07872068  0.91089355  1  0.11931  0  0.109389  0.116433  0  1.022216  0
H  H22  1  0.80626526  0.87865833  0.20472459  1  0.133321  0  0.114084  0.116422  0  1.014972  0
H  H23  1  0.19375055  0.12133063  0.79527204  1  0.133086  0  0.114121  0.116449  0  1.014895  0
H  H24  1  0.87686924  0.83159662  0.59670141  1  0.119889  0  0.105555  0.072678  0  1.052004  0
H  H25  1  0.12311915  0.16840263  0.40329322  1  0.120061  0  0.105559  0.072676  0  1.052017  0
H  H26  1  0.16576186  0.86081608  0.80319912  1  0.088959  0  0.112238  0.082852  0  0.996088  0
H  H27  1  0.83422255  0.13915986  0.19679204  1  0.089186  0  0.112289  0.082844  0  0.996087  0
H  H28  1  0.29094362  0.89966098  0.72341455  1  0.12543  0  0.110578  0.125355  0  1.04202  0
H  H29  1  0.70904331  0.10031490  0.27657948  1  0.125539  0  0.110598  0.125365  0  1.041863  0
H  H30  1  0.20199061  0.90566442  0.57251362  1  0.098753  0  0.113697  0.119968  0  0.977688  0
H  H31  1  0.79800225  0.09431861  0.42748388  1  0.098611  0  0.113656  0.119955  0  0.977595  0
H  H32  1  0.31997566  0.35281209  0.51052523  1  0.133851  0  0.11638  0.120275  0  1.016158  0
H  H33  1  0.68001135  0.64718864  0.48946468  1  0.133852  0  0.116373  0.120288  0  1.016158  0
H  H34  1  0.25801492  0.33924908  0.35654272  1  0.116484  0  0.108721  0.118711  0  1.035801  0
H  H35  1  0.74198016  0.66074044  0.64344522  1  0.116216  0  0.108717  0.118732  0  1.035908  0
H  H36  1  0.25844794  0.18091834  0.26551487  1  0.14226  0  0.118982  0.091152  0  1.031116  0
H  H37  1  0.74155653  0.81906803  0.73448517  1  0.142177  0  0.119011  0.091144  0  1.031025  0
H  H38  1  0.39262866  0.06070189  0.46975445  1  0.165779  0  0.126977  0.118172  0  0.99471  0
H  H39  1  0.60736224  0.93929659  0.53025219  1  0.166019  0  0.12697  0.118104  0  0.994667  0
H  H40  1  0.56037600  0.32213471  0.88565430  1  0.124162  0  0.127439  0.135209  0  0.963763  0
H  H41  1  0.43960207  0.67786630  0.11434225  1  0.124008  0  0.127481  0.135273  0  0.963696  0
H  H42  1  0.60411385  0.48124488  0.98848380  1  0.110802  0  0.115324  0.121162  0  0.994686  0
H  H43  1  0.39585487  0.51875130  0.01151860  1  0.111098  0  0.115381  0.121202  0  0.994687  0
H  H44  1  0.52555575  0.62413533  0.93918044  1  0.119828  0  0.127798  0.104746  0  0.971643  0
H  H45  1  0.47442579  0.37586926  0.06082372  1  0.119983  0  0.127818  0.104696  0  0.971722  0
H  H46  1  0.37784531  0.46649132  0.69573642  1  0.184789  0  0.122207  0.100612  0  1.04096  0
H  H47  1  0.62215173  0.53352305  0.30426165  1  0.184726  0  0.122252  0.100739  0  1.040943  0
H  H48  1  0.19135197  0.65539483  0.59285120  1  0.120636  0  0.120683  0.095826  0  1.008278  0
H  H49  1  0.80865116  0.34461353  0.40715033  1  0.120576  0  0.1207  0.095849  0  1.008316  0
H  H50  1  0.21655777  0.63398517  0.83280216  1  0.157422  0  0.12308  0.103978  0  0.990347  0
H  H51  1  0.78344685  0.36601216  0.16719823  1  0.157244  0  0.123077  0.104017  0  0.990328  0
H  H52  1  0.00588473  0.58097400  0.78984514  1  0.102209  0  0.116541  0.12368  0  0.9692  0
H  H53  1  0.99411816  0.41902997  0.21015517  1  0.102431  0  0.116536  0.123656  0  0.969082  0
H  H54  1  0.88511203  0.56828481  0.64031752  1  0.079375  0  0.114881  0.11492  0  1.001402  0
H  H55  1  0.11488993  0.43172211  0.35968471  1  0.079419  0  0.114906  0.114919  0  1.001421  0
H  H56  1  0.76160186  0.59512569  0.24175354  1  0.104911  0  0.108619  0.074002  0  1.038903  0
H  H57  1  0.23839318  0.40489752  0.75824583  1  0.105039  0  0.108629  0.073938  0  1.039072  0
H  H58  1  0.96167739  0.67818131  0.10938759  1  0.074404  0  0.11553  0.083977  0  0.964973  0
H  H59  1  0.03833103  0.32181811  0.89061222  1  0.074428  0  0.115537  0.084008  0  0.96498  0
H  H60  1  0.13614260  0.71662772  0.23625105  1  0.124769  0  0.106196  0.123808  0  1.032463  0
H  H61  1  0.86386350  0.28335495  0.76375059  1  0.125842  0  0.106194  0.1238  0  1.032436  0
H  H62  1  0.12059104  0.68889238  0.37199133  1  0.09258  0  0.107053  0.112268  0  1.011381  0
H  H63  1  0.87941201  0.31108817  0.62800703  1  0.092266  0  0.107046  0.112229  0  1.011494  0
H  H64  1  0.33642354  0.18967685  0.02430339  1  0.0895  0  0.108259  0.126796  0  0.990012  0
H  H65  1  0.66357625  0.81033089  0.97570594  1  0.089424  0  0.108179  0.126689  0  0.99007  0
H  H66  1  0.42465816  0.01385004  0.83416235  1  0.121541  0  0.109583  0.133142  0  1.016665  0
H  H67  1  0.57535155  0.98616837  0.16584089  1  0.122356  0  0.109588  0.133193  0  1.016564  0
H  H68  1  0.33171683  0.88302506  0.01502564  1  0.13008  0  0.104283  0.121413  0  1.011271  0
H  H69  1  0.66828644  0.11698401  0.98497430  1  0.129937  0  0.104324  0.121447  0  1.011174  0
H  H70  1  0.37170998  0.82130336  0.50537171  1  0.089027  0  0.10179  0.110972  0  1.033387  0
H  H71  1  0.62828600  0.17868910  0.49462835  1  0.088981  0  0.101771  0.110943  0  1.033316  0
H  H72  1  0.31148966  0.63959863  0.26626120  1  0.061974  0  0.103923  0.117126  0  1.018245  0
H  H73  1  0.68852345  0.36040286  0.73374169  1  0.061999  0  0.103927  0.117089  0  1.018287  0
H  H74  1  0.36816482  0.51371291  0.48454194  1  0.110361  0  0.110096  0.133521  0  1.003321  0
H  H75  1  0.63185239  0.48628186  0.51545465  1  0.11017  0  0.110072  0.133488  0  1.003339  0
C  C76  1  0.09155752  0.93815314  0.30278109  1  0.479984  0  0.051427  0.060855  0  3.920531  0
C  C77  1  0.90845547  0.06184103  0.69722022  1  0.480057  0  0.051449  0.060896  0  3.920628  0
C  C78  1  0.04448957  0.95266216  0.16558832  1  0.44001  0  0.061368  0.107665  0  3.922694  0
C  C79  1  0.95553278  0.04732955  0.83441249  1  0.440385  0  0.06146  0.10801  0  3.922644  0
C  C80  1  0.92942040  0.92490724  0.15033692  1  0.05241  0  -0.075211  -0.115114  0  3.947004  0
C  C81  1  0.07060166  0.07508007  0.84965977  1  0.05127  0  -0.075228  -0.115209  0  3.947119  0
C  C82  1  0.89505453  0.90229999  0.21452318  1  -0.016274  0  -0.052421  -0.038528  0  3.886619  0
C  C83  1  0.10496038  0.09769558  0.78547356  1  -0.015541  0  -0.052459  -0.038622  0  3.886445  0
C  C84  1  0.97786782  0.90946668  0.29282736  1  0.022252  0  -0.006902  -0.046539  0  4.043991  0
C  C85  1  0.02214254  0.09053049  0.70717144  1  0.022346  0  -0.006984  -0.046686  0  4.044372  0
C  C86  1  0.94729005  0.88633497  0.36180145  1  1.033464  0  0.216165  0.294026  0  4.027082  0
C  C87  1  0.05271999  0.11366440  0.63819700  1  1.033696  0  0.216124  0.294123  0  4.027337  0
C  C88  1  0.97206971  0.86833480  0.48685152  1  1.008331  0  0.211592  0.301451  0  4.013467  0
C  C89  1  0.02792595  0.13166351  0.51314523  1  1.008472  0  0.211598  0.301469  0  4.013459  0
C  C90  1  0.03177872  0.86874484  0.57350253  1  0.028891  0  -0.018885  -0.064702  0  4.068782  0
C  C91  1  0.96821006  0.13124562  0.42649216  1  0.029294  0  -0.019001  -0.06469  0  4.068511  0
C  C92  1  0.96888221  0.84705082  0.62384284  1  0.514143  0  0.040545  0.05513  0  3.975658  0
C  C93  1  0.03110572  0.15293966  0.37615051  1  0.514217  0  0.040532  0.055026  0  3.975643  0
C  C94  1  0.12912288  0.86346226  0.73747361  1  0.46781  0  0.045747  0.095921  0  3.959391  0
C  C95  1  0.87086212  0.13651952  0.26251847  1  0.468024  0  0.045649  0.095853  0  3.959142  0
C  C96  1  0.19940721  0.88635741  0.69307566  1  -0.016928  0  -0.08223  -0.119269  0  3.941307  0
C  C97  1  0.80057930  0.11362360  0.30691839  1  -0.017623  0  -0.082316  -0.119357  0  3.941415  0
C  C98  1  0.15014117  0.88890759  0.60943784  1  -0.051392  0  -0.068441  -0.062281  0  3.924753  0
C  C99  1  0.84984722  0.11107776  0.39055723  1  -0.052285  0  -0.06825  -0.062153  0  3.924429  0
C  C100  1  0.32324651  0.28693722  0.46978181  1  -0.045116  0  -0.057065  -0.053587  0  3.90249  0
C  C101  1  0.67674534  0.71306266  0.53021255  1  -0.045368  0  -0.057139  -0.053706  0  3.902933  0
C  C102  1  0.28735056  0.27923321  0.38408236  1  -0.025187  0  -0.08171  -0.118442  0  3.965524  0
C  C103  1  0.71263967  0.72075647  0.61591083  1  -0.024825  0  -0.081697  -0.1185  0  3.965694  0
C  C104  1  0.28910286  0.19292229  0.33347857  1  0.454853  0  0.050182  0.087137  0  3.936329  0
C  C105  1  0.71089435  0.80706502  0.66652051  1  0.454821  0  0.050155  0.087259  0  3.936258  0
C  C106  1  0.36229611  0.12387922  0.44792078  1  0.536064  0  0.065759  0.082002  0  3.857554  0
C  C107  1  0.63769604  0.87611775  0.55208305  1  0.535773  0  0.06577  0.082119  0  3.857739  0
C  C108  1  0.35878651  0.20701001  0.50272670  1  0.04957  0  0.001694  -0.039074  0  4.024688  0
C  C109  1  0.64120414  0.79299138  0.49727277  1  0.049433  0  0.001803  -0.039031  0  4.024794  0
C  C110  1  0.39100753  0.21450793  0.59216599  1  1.071636  0  0.234618  0.323353  0  3.975337  0
C  C111  1  0.60898297  0.78549639  0.40783269  1  1.071683  0  0.234682  0.323488  0  3.97487  0
C  C112  1  0.43637694  0.29415110  0.71820617  1  1.078271  0  0.226766  0.307874  0  4.005872  0
C  C113  1  0.56361092  0.70585621  0.28179001  1  1.078106  0  0.226784  0.30785  0  4.005923  0
C  C114  1  0.46407812  0.38165646  0.78282865  1  -0.002292  0  -0.000266  -0.03598  0  4.014527  0
C  C115  1  0.53591142  0.61835081  0.21716963  1  -0.002338  0  -0.000208  -0.035809  0  4.014222  0
C  C116  1  0.52893161  0.38606295  0.86633894  1  0.021651  0  -0.047685  -0.039463  0  3.886603  0
C  C117  1  0.47105496  0.61394221  0.13366010  1  0.021633  0  -0.047701  -0.03954  0  3.88646  0
C  C118  1  0.55272252  0.47410379  0.92329506  1  -0.014397  0  -0.074947  -0.1256  0  3.97473  0
C  C119  1  0.44725797  0.52590009  0.07670588  1  -0.014334  0  -0.075067  -0.125769  0  3.974815  0
C  C120  1  0.51047073  0.55425538  0.89629725  1  0.455512  0  0.060281  0.101889  0  3.917358  0
C  C121  1  0.48951144  0.44575211  0.10370342  1  0.45552  0  0.060257  0.10205  0  3.917418  0
C  C122  1  0.42714782  0.46632708  0.76020543  1  0.479781  0  0.054261  0.053816  0  3.89942  0
C  C123  1  0.57284208  0.53368165  0.23979313  1  0.479862  0  0.054141  0.05357  0  3.899768  0
C  C124  1  0.14716290  0.63885597  0.63466910  1  0.512704  0  0.057759  0.075127  0  3.908427  0
C  C125  1  0.85283733  0.36114734  0.36533051  1  0.512496  0  0.057777  0.075153  0  3.908406  0
C  C126  1  0.16044045  0.62500104  0.76839280  1  0.419056  0  0.059276  0.100714  0  3.918907  0
C  C127  1  0.83956087  0.37499639  0.23160743  1  0.419237  0  0.05926  0.100645  0  3.91893  0
C  C128  1  0.04345798  0.59726716  0.74425835  1  0.057761  0  -0.075904  -0.117026  0  3.971367  0
C  C129  1  0.95654291  0.40273540  0.25574190  1  0.057395  0  -0.075902  -0.116978  0  3.971259  0
C  C130  1  0.97658192  0.59051043  0.66186754  1  -0.006459  0  -0.054558  -0.044189  0  3.906358  0
C  C131  1  0.02341932  0.40949358  0.33813240  1  -0.006299  0  -0.054584  -0.044223  0  3.906419  0
C  C132  1  0.02902652  0.61283285  0.60548852  1  0.051032  0  -0.006691  -0.046686  0  4.030215  0
C  C133  1  0.97097299  0.38716756  0.39450997  1  0.051006  0  -0.006652  -0.046642  0  4.030261  0
C  C134  1  0.96114720  0.60847025  0.51945094  1  1.035513  0  0.216845  0.293643  0  4.020887  0
C  C135  1  0.03885153  0.39153383  0.48054728  1  1.035592  0  0.216861  0.293657  0  4.020881  0
C  C136  1  0.92060649  0.62111548  0.39158977  1  1.034335  0  0.218736  0.300821  0  4.006279  0
C  C137  1  0.07939173  0.37888642  0.60840920  1  1.034355  0  0.218704  0.300904  0  4.006269  0
C  C138  1  0.93877988  0.63998935  0.31689819  1  -0.010887  0  -0.013571  -0.055904  0  4.052009  0
C  C139  1  0.06121617  0.36001042  0.68310057  1  -0.011142  0  -0.013566  -0.055981  0  4.051859  0
C  C140  1  0.84558958  0.62169977  0.24187408  1  0.528467  0  0.05116  0.075678  0  3.947306  0
C  C141  1  0.15440843  0.37831165  0.75812497  1  0.530303  0  0.051096  0.075797  0  3.947254  0
C  C142  1  0.95718531  0.66727612  0.16923687  1  0.48427  0  0.044949  0.089911  0  3.990073  0
C  C143  1  0.04282283  0.33272551  0.83076375  1  0.484331  0  0.044969  0.089927  0  3.990258  0
C  C144  1  0.05493893  0.68823868  0.24010746  1  -0.027195  0  -0.089018  -0.135699  0  3.972929  0
C  C145  1  0.94506691  0.31174985  0.75989434  1  -0.027466  0  -0.089086  -0.135777  0  3.972974  0
C  C146  1  0.04598681  0.67395790  0.31549860  1  -0.006713  0  -0.071993  -0.070871  0  3.932213  0
C  C147  1  0.95401277  0.32603226  0.68450140  1  -0.007213  0  -0.07197  -0.070772  0  3.932158  0
C  C148  1  0.33044856  0.03710405  0.02756077  1  0.013152  0  -0.021656  -0.028273  0  4.003628  0
C  C149  1  0.66955518  0.96290650  0.97244639  1  0.013672  0  -0.021685  -0.028232  0  4.003524  0
C  C150  1  0.34657618  0.11909686  0.99435789  1  -0.045091  0  -0.094467  -0.207544  0  3.920875  0
C  C151  1  0.65342841  0.88091367  0.00565062  1  -0.045358  0  -0.094379  -0.207438  0  3.920832  0
C  C152  1  0.37850669  0.11031956  0.92368597  1  0.422029  0  0.0763  0.310849  0  4.073181  0
C  C153  1  0.62149630  0.88969467  0.07632209  1  0.421299  0  0.076261  0.310867  0  4.073288  0
C  C154  1  0.39501761  0.02044947  0.88696389  1  0.002264  0  -0.096334  -0.232696  0  3.937634  0
C  C155  1  0.60499363  0.97956817  0.11304247  1  0.00252  0  -0.096247  -0.232635  0  3.937862  0
C  C156  1  0.37651705  0.93835208  0.91937688  1  0.004922  0  -0.019519  -0.006539  0  4.012317  0
C  C157  1  0.62349320  0.06166486  0.08063032  1  0.004215  0  -0.01967  -0.00675  0  4.012141  0
C  C158  1  0.34372199  0.94650808  0.98909350  1  -0.093186  0  -0.090677  -0.137205  0  3.965582  0
C  C159  1  0.65628122  0.05350393  0.01091028  1  -0.093072  0  -0.090692  -0.137194  0  3.965476  0
C  C160  1  0.30573285  0.04412468  0.10718826  1  1.557449  0  0.205261  0.587014  0  4.211226  0
C  C161  1  0.69426780  0.95588009  0.89281569  1  1.557574  0  0.205325  0.587186  0  4.211204  0
C  C162  1  0.39468010  0.84234481  0.87951992  1  1.541663  0  0.186789  0.545629  0  4.248909  0
C  C163  1  0.60532000  0.15766803  0.12048441  1  1.541841  0  0.186925  0.545765  0  4.248514  0
C  C164  1  0.37217476  0.66863148  0.50419326  1  -0.00894  0  -0.021948  -0.012868  0  4.009741  0
C  C165  1  0.62782862  0.33136077  0.49580617  1  -0.009256  0  -0.022021  -0.013032  0  4.009891  0
C  C166  1  0.36199304  0.74939921  0.46759974  1  -0.050851  0  -0.095654  -0.151209  0  3.98611  0
C  C167  1  0.63800743  0.25059459  0.53240154  1  -0.050614  0  -0.095572  -0.151098  0  3.986202  0
C  C168  1  0.34116409  0.73855560  0.38234735  1  0.044474  0  -0.025837  -0.011333  0  4.028506  0
C  C169  1  0.65883196  0.26144052  0.61765438  1  0.044511  0  -0.025814  -0.01128  0  4.02829  0
C  C170  1  0.32830964  0.64644698  0.33296738  1  -0.02862  0  -0.106647  -0.2516  0  4.000031  0
C  C171  1  0.67169798  0.35355246  0.66703398  1  -0.0287  0  -0.106679  -0.251551  0  3.999872  0
C  C172  1  0.33739539  0.56558820  0.36948186  1  0.385144  0  0.074409  0.304868  0  4.093096  0
C  C173  1  0.66261895  0.43441178  0.63051707  1  0.384976  0  0.074522  0.30491  0  4.092878  0
C  C174  1  0.35994345  0.57615182  0.45528988  1  -0.002008  0  -0.090272  -0.198326  0  3.890157  0
C  C175  1  0.64006554  0.42384319  0.54470774  1  -0.0015  0  -0.090303  -0.198357  0  3.890096  0
C  C176  1  0.39614293  0.68337709  0.59632938  1  1.533645  0  0.185271  0.545431  0  4.247719  0
C  C177  1  0.60385944  0.31661446  0.40366914  1  1.533737  0  0.185448  0.545546  0  4.247294  0
C  C178  1  0.33381182  0.82622318  0.34457232  1  1.543713  0  0.180479  0.541668  0  4.26396  0
C  C179  1  0.66618712  0.17377434  0.65543314  1  1.543911  0  0.180419  0.541481  0  4.263969  0
N  N180  1  0.12386946  0.95852013  0.24038340  1  -1.228704  0  -0.319748  -0.244587  0  3.505446  0
N  N181  1  0.87614674  0.04147688  0.75962017  1  -1.228947  0  -0.319754  -0.244681  0  3.505597  0
N  N182  1  0.84751402  0.85416799  0.36353313  1  -0.710457  0  -0.222652  -0.237471  0  3.176944  0
N  N183  1  0.15249178  0.14583808  0.63646294  1  -0.710393  0  -0.222677  -0.237473  0  3.177506  0
N  N184  1  0.86343959  0.84251847  0.44419981  1  -0.683223  0  -0.224081  -0.25063  0  3.198065  0
N  N185  1  0.13655749  0.15748930  0.55579508  1  -0.683245  0  -0.224044  -0.2506  0  3.198284  0
N  N186  1  0.01557303  0.84359971  0.70394733  1  -1.184678  0  -0.330902  -0.278908  0  3.339285  0
N  N187  1  0.98441266  0.15638498  0.29604414  1  -1.18429  0  -0.330814  -0.278755  0  3.338775  0
N  N188  1  0.32821038  0.11810025  0.36530426  1  -1.248441  0  -0.324608  -0.238257  0  3.532416  0
N  N189  1  0.67179043  0.88189136  0.63469910  1  -1.247952  0  -0.324597  -0.238328  0  3.532679  0
N  N190  1  0.40841191  0.15090094  0.64026062  1  -0.695415  0  -0.19811  -0.224121  0  3.179953  0
N  N191  1  0.59158510  0.84910613  0.35974049  1  -0.695663  0  -0.198157  -0.224199  0  3.179905  0
N  N192  1  0.43721085  0.20262725  0.72200241  1  -0.69813  0  -0.204151  -0.22886  0  3.155178  0
N  N193  1  0.56277759  0.79738225  0.27799707  1  -0.697899  0  -0.204218  -0.228911  0  3.155266  0
N  N194  1  0.44891365  0.54993478  0.81603795  1  -1.219559  0  -0.323257  -0.221674  0  3.513965  0
N  N195  1  0.55107691  0.45007319  0.18396124  1  -1.219703  0  -0.32314  -0.221616  0  3.514079  0
N  N196  1  0.21103031  0.64421756  0.71414464  1  -1.226383  0  -0.314754  -0.235914  0  3.48915  0
N  N197  1  0.78896894  0.35578505  0.28585581  1  -1.22623  0  -0.314793  -0.235919  0  3.489048  0
N  N198  1  0.85137156  0.58142077  0.48320891  1  -0.700446  0  -0.214115  -0.237862  0  3.184637  0
N  N199  1  0.14862800  0.41858329  0.51679008  1  -0.70043  0  -0.214096  -0.237809  0  3.184697  0
N  N200  1  0.82526181  0.58974753  0.40095215  1  -0.698177  0  -0.211756  -0.230441  0  3.191846  0
N  N201  1  0.17473678  0.41025583  0.59904767  1  -0.698143  0  -0.211755  -0.230506  0  3.191826  0
N  N202  1  0.85367761  0.63413685  0.16933499  1  -1.179826  0  -0.32985  -0.272363  0  3.302811  0
N  N203  1  0.14632856  0.36587727  0.83066687  1  -1.181566  0  -0.329751  -0.272346  0  3.30266  0
O  O204  1  0.03108388  0.89716762  0.43831539  1  -1.052094  0  -0.103382  -0.184257  0  2.499608  0
O  O205  1  0.96892181  0.10282384  0.56168503  1  -1.052386  0  -0.103302  -0.184338  0  2.499704  0
O  O206  1  0.40639546  0.30632854  0.63799743  1  -1.041482  0  -0.087629  -0.170384  0  2.576642  0
O  O207  1  0.59358841  0.69367596  0.36199860  1  -1.041591  0  -0.087691  -0.170468  0  2.576616  0
O  O208  1  0.01122696  0.63475597  0.46487329  1  -1.043081  0  -0.102204  -0.185003  0  2.505122  0
O  O209  1  0.98877306  0.36524661  0.53512445  1  -1.043169  0  -0.102235  -0.185106  0  2.50516  0
O  O210  1  0.30776819  0.96610938  0.13574913  1  -1.139735  0  -0.334509  -0.541155  0  2.260619  0
O  O211  1  0.69223041  0.03389398  0.86425185  1  -1.139756  0  -0.334454  -0.541157  0  2.260613  0
O  O212  1  0.28413236  0.12187506  0.14198163  1  -1.209103  0  -0.338941  -0.599894  0  2.208332  0
O  O213  1  0.71586316  0.87812913  0.85802106  1  -1.209305  0  -0.339033  -0.600046  0  2.208597  0
O  O214  1  0.39309397  0.19156025  0.89192132  1  -1.143987  0  -0.364308  -0.466306  0  2.291473  0
O  O215  1  0.60691566  0.80846040  0.10809431  1  -1.143601  0  -0.364321  -0.466549  0  2.291092  0
O  O216  1  0.43324389  0.84486275  0.81942811  1  -1.141077  0  -0.335663  -0.536378  0  2.283859  0
O  O217  1  0.56675905  0.15515148  0.18057763  1  -1.141107  0  -0.335659  -0.536353  0  2.283701  0
O  O218  1  0.37067810  0.76519210  0.90260581  1  -1.180678  0  -0.348055  -0.584278  0  2.110256  0
O  O219  1  0.62931249  0.23481953  0.09739215  1  -1.180915  0  -0.34811  -0.584325  0  2.110312  0
O  O220  1  0.40807461  0.60967218  0.63006584  1  -1.159416  0  -0.339164  -0.555246  0  2.182606  0
O  O221  1  0.59195229  0.39032453  0.36993725  1  -1.159288  0  -0.339189  -0.555156  0  2.182267  0
O  O222  1  0.40089533  0.76822550  0.63718040  1  -1.189968  0  -0.329415  -0.571165  0  2.200507  0
O  O223  1  0.59909232  0.23176353  0.36281673  1  -1.190313  0  -0.329575  -0.571288  0  2.200524  0
O  O224  1  0.35160736  0.90904599  0.39262726  1  -1.182488  0  -0.339035  -0.578975  0  2.200293  0
O  O225  1  0.64839591  0.09094849  0.60738282  1  -1.182571  0  -0.338991  -0.578841  0  2.200335  0
O  O226  1  0.31017901  0.81379976  0.26577294  1  -1.134476  0  -0.339306  -0.552441  0  2.173772  0
O  O227  1  0.68982609  0.18620270  0.73423287  1  -1.134677  0  -0.339336  -0.552418  0  2.173764  0
O  O228  1  0.32365666  0.47353800  0.32288466  1  -1.147448  0  -0.3515  -0.45572  0  2.313998  0
O  O229  1  0.67635982  0.52646411  0.67711217  1  -1.147595  0  -0.35149  -0.455564  0  2.314085  0
O  O230  1  0.52699208  0.02632327  0.31310041  1  -1.238811  0  -0.575677  -0.730788  0  2.078466  0
O  O231  1  0.47301071  0.97367704  0.68689708  1  -1.238877  0  -0.575636  -0.730672  0  2.078579  0
O  O232  1  0.61963885  0.69677793  0.79672601  1  -1.23495  0  -0.594739  -0.764161  0  2.005441  0
O  O233  1  0.38035671  0.30322627  0.20327900  1  -1.234639  0  -0.594707  -0.764187  0  2.005368  0
