# generated using pymatgen
data_ZnH9C19I5NO4
_symmetry_space_group_name_H-M   'P 1'
_cell_length_a   10.85655248
_cell_length_b   16.54572174
_cell_length_c   17.82566263
_cell_angle_alpha   89.46759858
_cell_angle_beta   91.42700237
_cell_angle_gamma   89.28225066
_symmetry_Int_Tables_number   1
_chemical_formula_structural   ZnH9C19I5NO4
_chemical_formula_sum   'Zn2 H18 C38 I10 N2 O8'
_cell_volume   3200.62284937
_cell_formula_units_Z   2
loop_
 _symmetry_equiv_pos_site_id
 _symmetry_equiv_pos_as_xyz
  1  'x, y, z'
loop_
 _atom_site_type_symbol
 _atom_site_label
 _atom_site_symmetry_multiplicity
 _atom_site_fract_x
 _atom_site_fract_y
 _atom_site_fract_z
 _atom_site_occupancy
 _atom_site_pbe_bader_charge
 _atom_site_pbe_bader_spin_density
 _atom_site_pbe_cm5_charge
 _atom_site_pbe_ddec_charge
 _atom_site_pbe_ddec_spin_density
 _atom_site_pbe_ddec_sum_bond_order
 _atom_site_pbe_magmom
Zn  Zn0  1  0.49838829  0.41305790  0.49399340  1  1.28714  0  0.66595  0.848165  0  2.353112  0
Zn  Zn1  1  0.49969537  0.58558992  0.49280686  1  1.29649  0  0.66904  0.851361  0  2.389748  0
H  H2  1  0.12111817  0.37576421  0.55135711  1  0.092966  0  0.096981  0.093444  0  0.985277  0
H  H3  1  0.08966881  0.40019005  0.42317936  1  0.082163  0  0.091003  0.080086  0  1.005587  0
H  H4  1  0.90773230  0.36708206  0.53184026  1  0.015766  0  0.091882  0.103221  0  0.975251  0
H  H5  1  0.87922087  0.42835702  0.39750848  1  0.052326  0  0.097681  0.110789  0  0.963146  0
H  H6  1  0.90906066  0.58182491  0.59153680  1  0.024078  0  0.085646  0.089292  0  0.983985  0
H  H7  1  0.87840195  0.62483565  0.50166923  1  0.037128  0  0.088749  0.095277  0  0.996741  0
H  H8  1  0.56510680  0.40487220  0.88658515  1  0.101524  0  0.10308  0.119755  0  1.003859  0
H  H9  1  0.34460617  0.62177181  0.85796098  1  0.083205  0  0.10494  0.122432  0  0.997535  0
H  H10  1  0.50124978  0.37599148  0.25417367  1  0.120124  0  0.098949  0.116976  0  1.023381  0
H  H11  1  0.43451478  0.63168735  0.26063689  1  0.115671  0  0.09665  0.115127  0  1.033148  0
H  H12  1  0.40433736  0.10755217  0.43425653  1  0.120388  0  0.115711  0.136665  0  0.981902  0
H  H13  1  0.38925941  0.89308701  0.44744152  1  0.125342  0  0.11517  0.136499  0  0.980706  0
H  H14  1  0.64469306  0.30509324  0.57829476  1  0.170673  0  0.113743  0.10284  0  1.042543  0
H  H15  1  0.65598624  0.68928357  0.57385414  1  0.167208  0  0.129475  0.122276  0  0.982807  0
H  H16  1  0.89085779  0.42941403  0.61052368  1  0.062318  0  0.083101  0.093887  0  1.026373  0
H  H17  1  0.90251572  0.53374674  0.38911059  1  0.049747  0  0.093788  0.109014  0  0.984385  0
H  H18  1  0.11739358  0.60637734  0.56698433  1  0.04653  0  0.079114  0.087975  0  1.030468  0
H  H19  1  0.08769419  0.61989983  0.47019910  1  0.038333  0  0.073639  0.077438  0  1.033349  0
C  C20  1  0.48941603  0.50324006  0.34839175  1  1.577034  0  0.210474  0.590025  0  4.175049  0
C  C21  1  0.26200349  0.49430758  0.50130560  1  1.533484  0  0.207004  0.581564  0  4.140579  0
C  C22  1  0.50488781  0.50511589  0.64024545  1  1.602775  0  0.204369  0.600212  0  4.183262  0
C  C23  1  0.73837980  0.49418114  0.49917492  1  1.525809  0  0.223351  0.598448  0  4.083794  0
C  C24  1  0.07384925  0.43351778  0.56037274  1  -0.14381  0  -0.086826  -0.001265  0  3.624674  0
C  C25  1  0.06523532  0.46436273  0.42818556  1  -0.168903  0  -0.086722  0.004009  0  3.640388  0
C  C26  1  0.93216488  0.42630540  0.55506652  1  -0.015208  0  -0.169513  -0.216933  0  3.880281  0
C  C27  1  0.92562801  0.48009201  0.42359876  1  -0.009332  0  -0.162601  -0.216109  0  3.866126  0
C  C28  1  0.06808588  0.58074608  0.51847298  1  -0.025842  0  -0.178124  -0.181837  0  3.890398  0
C  C29  1  0.12074551  0.49642821  0.50305711  1  0.070931  0  -0.024142  -0.017034  0  3.795059  0
C  C30  1  0.87909116  0.49419545  0.50397562  1  0.076601  0  -0.016575  0.041745  0  3.784001  0
C  C31  1  0.92855431  0.57589539  0.53152022  1  -0.028747  0  -0.168865  -0.180093  0  3.866613  0
C  C32  1  0.52303950  0.45086028  0.84981459  1  0.00215  0  -0.089351  -0.161216  0  3.923647  0
C  C33  1  0.39949089  0.57347817  0.83393563  1  0.098838  0  -0.090609  -0.166941  0  3.929006  0
C  C34  1  0.54242089  0.45056236  0.77307016  1  -0.233451  0  -0.037563  0.064453  0  3.873415  0
C  C35  1  0.42148876  0.57255447  0.75725069  1  -0.231712  0  -0.038406  0.060394  0  3.873143  0
C  C36  1  0.49045941  0.50989349  0.72404751  1  0.074534  0  -0.020039  -0.087973  0  3.906402  0
C  C37  1  0.44959276  0.51211885  0.88109880  1  0.088901  0  0.00466  0.16636  0  4.096276  0
C  C38  1  0.43329296  0.51226344  0.95951464  1  -0.241198  0  -0.031141  -0.070971  0  4.053566  0
C  C39  1  0.42920102  0.50977320  0.02786273  1  -0.090829  0  -0.056405  -0.098797  0  4.16655  0
C  C40  1  0.46317511  0.43406988  0.14659686  1  -0.231625  0  -0.039535  0.03634  0  3.846614  0
C  C41  1  0.42456495  0.57840907  0.15023825  1  -0.24747  0  -0.040383  0.036415  0  3.848941  0
C  C42  1  0.48095478  0.43227114  0.22405497  1  0.006055  0  -0.095259  -0.139679  0  3.983498  0
C  C43  1  0.44281374  0.57701052  0.22758987  1  0.058531  0  -0.096864  -0.134476  0  3.973686  0
C  C44  1  0.47214250  0.50400271  0.26464997  1  -0.023811  0  -0.015801  0.001004  0  3.951278  0
C  C45  1  0.43662729  0.50732921  0.10677328  1  0.160222  0  -0.009571  0.076167  0  4.081144  0
C  C46  1  0.45883702  0.14960315  0.46736273  1  0.032579  0  -0.076013  -0.185441  0  3.89523  0
C  C47  1  0.45018953  0.84963520  0.47628299  1  0.046215  0  -0.076184  -0.182529  0  3.895648  0
C  C48  1  0.44399675  0.23262247  0.45644003  1  0.325362  0  0.087511  0.188731  0  3.920236  0
C  C49  1  0.43434104  0.76710934  0.46606531  1  0.304639  0  0.083628  0.182946  0  3.933426  0
C  C50  1  0.59374222  0.25878778  0.54799470  1  0.535875  0  0.051185  0.083619  0  3.88612  0
C  C51  1  0.60004772  0.73692087  0.54690402  1  0.538157  0  0.054309  0.081828  0  3.891551  0
C  C52  1  0.61566190  0.17692168  0.56182232  1  -0.234579  0  -0.040575  -0.03341  0  3.85576  0
C  C53  1  0.62236743  0.81828970  0.56032344  1  -0.208363  0  -0.040805  -0.036335  0  3.865345  0
C  C54  1  0.54594953  0.11974113  0.52104148  1  0.150519  0  0.016341  0.15608  0  4.079868  0
C  C55  1  0.54596427  0.87718344  0.52389790  1  0.133786  0  0.015223  0.154732  0  4.079373  0
C  C56  1  0.55858550  0.03522513  0.52995293  1  -0.176178  0  -0.026843  -0.069857  0  4.064525  0
C  C57  1  0.55924470  0.96148738  0.53113815  1  -0.143864  0  -0.025785  -0.066484  0  4.062811  0
I  I58  1  0.13668866  0.46090809  0.67530044  1  -0.014807  0  0.011381  -0.096098  0  1.361252  0
I  I59  1  0.15035891  0.51325889  0.32726135  1  -0.011957  0  0.024595  -0.083605  0  1.432716  0
I  I60  1  0.31834800  0.27180085  0.37195109  1  0.205299  0  0.13571  0.02711  0  1.481897  0
I  I61  1  0.28956218  0.73051560  0.39491170  1  0.212182  0  0.138333  0.02651  0  1.556109  0
I  I62  1  0.75097962  0.14152304  0.64105820  1  0.175138  0  0.108751  0.018282  0  1.405653  0
I  I63  1  0.76638888  0.85057613  0.63311526  1  0.177689  0  0.103067  0.010936  0  1.329631  0
I  I64  1  0.66539695  0.35935341  0.73688879  1  0.110599  0  0.065437  -0.045705  0  1.538893  0
I  I65  1  0.34222922  0.67134063  0.69603667  1  0.114792  0  0.059446  -0.035083  0  1.495161  0
I  I66  1  0.47580181  0.32488261  0.08752658  1  0.102289  0  0.050844  -0.046634  0  1.311192  0
I  I67  1  0.37995548  0.68941303  0.09721971  1  0.102526  0  0.046938  -0.04979  0  1.303089  0
N  N68  1  0.50938551  0.28627634  0.49662877  1  -1.196131  0  -0.309065  -0.204125  0  3.45254  0
N  N69  1  0.50840283  0.71172758  0.50046903  1  -1.208443  0  -0.311384  -0.215785  0  3.483601  0
O  O70  1  0.51134161  0.43543700  0.38059362  1  -1.17238  0  -0.319469  -0.551302  0  2.358294  0
O  O71  1  0.47944748  0.57130088  0.38047705  1  -1.165196  0  -0.320239  -0.550455  0  2.410165  0
O  O72  1  0.31169169  0.42545388  0.49064406  1  -1.166799  0  -0.321566  -0.552874  0  2.412208  0
O  O73  1  0.31781272  0.56058719  0.50952346  1  -1.170008  0  -0.311211  -0.543332  0  2.425647  0
O  O74  1  0.48415108  0.43750875  0.60997739  1  -1.158312  0  -0.311258  -0.538936  0  2.355013  0
O  O75  1  0.53456898  0.57002772  0.60700856  1  -1.172924  0  -0.317569  -0.54713  0  2.382286  0
O  O76  1  0.68516856  0.42681498  0.50926383  1  -1.170271  0  -0.317881  -0.550131  0  2.343566  0
O  O77  1  0.68504302  0.56099384  0.48272476  1  -1.170481  0  -0.316708  -0.542062  0  2.334737  0
