# generated using pymatgen
data_MnH10(C2N)4
_symmetry_space_group_name_H-M   'P 1'
_cell_length_a   15.11852927
_cell_length_b   15.11858978
_cell_length_c   15.11859916
_cell_angle_alpha   109.47140477
_cell_angle_beta   109.47088064
_cell_angle_gamma   109.47150527
_symmetry_Int_Tables_number   1
_chemical_formula_structural   MnH10(C2N)4
_chemical_formula_sum   'Mn6 H60 C48 N24'
_cell_volume   2660.17250188
_cell_formula_units_Z   6
loop_
 _symmetry_equiv_pos_site_id
 _symmetry_equiv_pos_as_xyz
  1  'x, y, z'
loop_
 _atom_site_type_symbol
 _atom_site_label
 _atom_site_symmetry_multiplicity
 _atom_site_fract_x
 _atom_site_fract_y
 _atom_site_fract_z
 _atom_site_occupancy
 _atom_site_pbe_bader_charge
 _atom_site_pbe_bader_spin_density
 _atom_site_pbe_cm5_charge
 _atom_site_pbe_ddec_charge
 _atom_site_pbe_ddec_spin_density
 _atom_site_pbe_ddec_sum_bond_order
 _atom_site_pbe_magmom
Mn  Mn0  1  0.75000343  0.50010844  0.24988151  1  1.360715  4.460815  0.667707  0.710421  4.62176  2.61216  4.306
Mn  Mn1  1  0.50009994  0.75000024  0.24987423  1  1.360733  -4.46083  0.667671  0.710221  -4.621802  2.612189  -4.306
Mn  Mn2  1  0.24978267  0.74977962  0.50000195  1  1.362002  -4.467748  0.667876  0.712348  -4.629282  2.606717  -4.312
Mn  Mn3  1  0.74977838  0.24978131  0.50000282  1  1.361958  4.467871  0.667871  0.712277  4.62941  2.606429  4.312
Mn  Mn4  1  0.25022449  0.50012259  0.75012175  1  1.361729  4.460592  0.667713  0.710306  4.621751  2.612226  4.306
Mn  Mn5  1  0.50012451  0.25022407  0.75012533  1  1.361681  -4.460514  0.667672  0.710291  -4.621682  2.612501  -4.306
H  H6  1  0.88750032  0.47594578  0.12618449  1  0.127896  -0.000109  0.110488  0.101297  -0.000155  1.024199  0.0
H  H7  1  0.76131521  0.87377309  0.34959868  1  0.099467  0.000123  0.110448  0.101016  0.000179  1.024642  0.0
H  H8  1  0.41157204  0.65017152  0.52396143  1  0.095327  -0.001542  0.110185  0.100898  -0.000828  1.024576  -0.001
H  H9  1  0.88760185  0.12620720  0.47603190  1  0.128226  0.001516  0.110119  0.100861  0.000829  1.024639  0.001
H  H10  1  0.41170961  0.52415755  0.65039725  1  0.096177  -0.00013  0.110484  0.101081  -0.000178  1.024619  0.0
H  H11  1  0.76131766  0.34975822  0.87382246  1  0.099565  0.0001  0.110483  0.101329  0.000155  1.024101  0.0
H  H12  1  0.11249034  0.23869238  0.58848059  1  0.094816  0.0015  0.110231  0.100994  0.000805  1.024625  0.001
H  H13  1  0.23883341  0.58844278  0.11244634  1  0.097542  0.000105  0.110405  0.100944  0.000283  1.02474  0.0
H  H14  1  0.58822319  0.11240457  0.23872869  1  0.097592  -9.9e-05  0.110394  0.100924  -0.000285  1.024472  0.0
H  H15  1  0.11240629  0.58821756  0.23872394  1  0.100755  0.0001  0.110364  0.100883  0.000286  1.024444  0.0
H  H16  1  0.58844555  0.23884895  0.11245302  1  0.097579  -0.000105  0.110413  0.101024  -0.000283  1.0248  0.0
H  H17  1  0.23869410  0.11249328  0.58848540  1  0.098382  -0.001495  0.110218  0.100991  -0.000806  1.024605  -0.001
H  H18  1  0.34976637  0.76131003  0.87381800  1  0.100528  -9.9e-05  0.110471  0.101324  -0.000155  1.024276  0.0
H  H19  1  0.52416593  0.41170392  0.65040033  1  0.098483  0.000131  0.110492  0.101071  0.000178  1.024529  0.0
H  H20  1  0.12620630  0.88760596  0.47603547  1  0.128308  -0.001516  0.110143  0.100868  -0.000829  1.024591  -0.001
H  H21  1  0.65017008  0.41156854  0.52396176  1  0.09559  0.001544  0.110152  0.100813  0.000829  1.024535  0.001
H  H22  1  0.87377044  0.76131837  0.34959997  1  0.099213  -0.000123  0.110457  0.101045  -0.000179  1.024623  0.0
H  H23  1  0.47594286  0.88750032  0.12618743  1  0.127939  0.000109  0.110509  0.101325  0.000155  1.024176  0.0
H  H24  1  0.65020807  0.52400612  0.41151388  1  0.096388  0.001507  0.110249  0.101027  0.000805  1.02453  0.001
H  H25  1  0.47599642  0.12639416  0.88755849  1  0.109064  0.000108  0.110434  0.101005  0.000283  1.024724  0.0
H  H26  1  0.87368187  0.34950029  0.76127936  1  0.099994  -9.3e-05  0.11038  0.100932  -0.000285  1.024497  0.0
H  H27  1  0.34950746  0.87368240  0.76128378  1  0.100249  9.2e-05  0.110385  0.100896  0.000285  1.024393  0.0
H  H28  1  0.12638205  0.47599225  0.88754582  1  0.109213  -0.000108  0.110386  0.100902  -0.000283  1.024675  0.0
H  H29  1  0.52400915  0.65020521  0.41151219  1  0.098734  -0.001503  0.110249  0.101072  -0.000807  1.024485  -0.001
H  H30  1  0.07210056  0.75660138  0.54671853  1  0.056014  -0.003247  0.099926  0.139661  -0.002689  1.011512  0.0
H  H31  1  0.52547456  0.45323885  0.20980474  1  0.055033  0.003259  0.099774  0.139653  0.002689  1.011675  0.0
H  H32  1  0.31563919  0.79023229  0.24345334  1  0.050231  -0.004562  0.09985  0.139608  -0.00287  1.011442  -0.001
H  H33  1  0.07218046  0.54677948  0.75654228  1  0.040482  0.004543  0.099911  0.139815  0.002868  1.011511  0.001
H  H34  1  0.31566244  0.24342551  0.79019385  1  0.04002  -0.003315  0.099787  0.139698  -0.002689  1.011691  0.0
H  H35  1  0.52538183  0.20988032  0.45328561  1  0.055132  0.003274  0.099913  0.139607  0.002689  1.011481  0.0
H  H36  1  0.92771837  0.47450736  0.68431263  1  0.051142  0.004654  0.09988  0.139775  0.002984  1.011424  0.001
H  H37  1  0.47467569  0.68449034  0.92774802  1  0.061709  0.003005  0.0999  0.139755  0.002466  1.011416  0.0
H  H38  1  0.68433296  0.92761940  0.47446925  1  0.051531  -0.003153  0.099875  0.139722  -0.00258  1.011719  0.0
H  H39  1  0.92762083  0.68433430  0.47446574  1  0.051567  0.003151  0.099857  0.139699  0.002581  1.011562  0.0
H  H40  1  0.68448620  0.47467228  0.92774556  1  0.06177  -0.003005  0.099919  0.139734  -0.002466  1.011393  0.0
H  H41  1  0.47451196  0.92772284  0.68431232  1  0.051215  -0.004654  0.099836  0.139667  -0.002983  1.011491  -0.001
H  H42  1  0.20987943  0.52538142  0.45327912  1  0.055404  -0.003275  0.099923  0.139673  -0.002689  1.011523  0.0
H  H43  1  0.24342330  0.31565903  0.79019293  1  0.049634  0.003314  0.099781  0.139627  0.002688  1.011565  0.0
H  H44  1  0.54678110  0.07218698  0.75654283  1  0.041186  -0.004543  0.099831  0.139668  -0.00287  1.011454  -0.001
H  H45  1  0.79023755  0.31564237  0.24345755  1  0.050191  0.004562  0.099893  0.13981  0.002869  1.011491  0.001
H  H46  1  0.45323619  0.52547557  0.20980580  1  0.05509  -0.003261  0.099775  0.139625  -0.002689  1.011663  0.0
H  H47  1  0.75660248  0.07209932  0.54672328  1  0.056169  0.003247  0.099899  0.139624  0.002689  1.011479  0.0
H  H48  1  0.79019734  0.24340690  0.31568438  1  0.03959  0.004698  0.099849  0.139694  0.002982  1.011434  0.001
H  H49  1  0.75673977  0.54692969  0.07224588  1  0.06056  0.002985  0.099908  0.139703  0.002464  1.011409  0.0
H  H50  1  0.45315484  0.20986187  0.52553717  1  0.054776  -0.003142  0.099898  0.139811  -0.00258  1.011766  0.0
H  H51  1  0.20986228  0.45315119  0.52552923  1  0.054844  0.003141  0.099875  0.139715  0.002579  1.011519  0.0
H  H52  1  0.54692553  0.75674159  0.07224830  1  0.060567  -0.002985  0.099924  0.139751  -0.002465  1.011403  0.0
H  H53  1  0.24340886  0.79019267  0.31568774  1  0.03813  -0.004705  0.099902  0.139823  -0.002983  1.011442  -0.001
H  H54  1  0.99988758  0.62469082  0.52436686  1  0.052556  2.6e-05  0.097162  0.141791  -3.2e-05  0.992807  0.0
H  H55  1  0.47561365  0.47561479  0.10026773  1  0.054508  0.0  0.097298  0.141963  0.0  0.993077  0.0
H  H56  1  0.37534441  0.89968778  0.37541718  1  0.02896  -0.001832  0.097225  0.141961  -0.000624  0.992897  -0.001
H  H57  1  0.99992555  0.52427546  0.62458182  1  0.049543  0.001828  0.097225  0.141984  0.000622  0.992893  0.001
H  H58  1  0.37534169  0.37533966  0.89973133  1  0.02873  -1e-06  0.097293  0.141942  -0.0  0.993061  0.0
H  H59  1  0.47552269  0.10032250  0.47564063  1  0.05505  -2.9e-05  0.097153  0.141835  3.1e-05  0.992807  0.0
H  H60  1  0.52451071  0.62480070  0.99999810  1  0.052092  -1e-06  0.097231  0.142049  0.0  0.992743  0.0
H  H61  1  0.62469009  0.99988579  0.52436870  1  0.052527  -2.8e-05  0.097162  0.141809  3.2e-05  0.992768  0.0
H  H62  1  0.62479942  0.52451868  0.99999543  1  0.048401  0.0  0.097191  0.142004  -0.0  0.99281  0.0
H  H63  1  0.52427453  0.99992786  0.62457971  1  0.049521  -0.001827  0.09719  0.141914  -0.000622  0.992946  -0.001
H  H64  1  0.10032016  0.47552377  0.47563328  1  0.054979  2.7e-05  0.097171  0.141806  -3.2e-05  0.992753  0.0
H  H65  1  0.89969672  0.37534738  0.37541696  1  0.029207  0.00183  0.097236  0.141969  0.000622  0.992869  0.001
C  C66  1  0.99989045  0.62988687  0.38358218  1  0.984788  -4e-05  0.199089  0.377552  -6.9e-05  3.989105  0.0
C  C67  1  0.61638365  0.61638921  0.24625661  1  0.941448  7e-06  0.198991  0.377603  4e-06  3.988566  0.0
C  C68  1  0.37004380  0.75363689  0.37003558  1  0.951703  -0.039225  0.199541  0.378403  -0.033936  3.987433  -0.03
C  C69  1  0.99998478  0.38358647  0.62994878  1  0.974678  0.039169  0.19962  0.378611  0.033925  3.987363  0.03
C  C70  1  0.37011601  0.37012101  0.75374260  1  0.949838  -2.1e-05  0.198954  0.377475  -1.2e-05  3.988636  0.0
C  C71  1  0.61632040  0.24630673  0.61641392  1  0.940038  2.3e-05  0.199211  0.377714  3.7e-05  3.989077  0.0
C  C72  1  0.38375910  0.63007087  0.00000091  1  0.983165  3.5e-05  0.199218  0.377848  6e-06  3.989732  0.0
C  C73  1  0.62989568  0.99990161  0.38359318  1  0.984714  1.4e-05  0.19912  0.377583  5e-05  3.989272  0.0
C  C74  1  0.63006807  0.38377411  0.00000774  1  0.981759  -4e-05  0.199339  0.378008  -9e-06  3.989433  0.0
C  C75  1  0.38358945  0.99999389  0.62995258  1  0.974934  -0.03916  0.19952  0.378503  -0.033915  3.987546  -0.03
C  C76  1  0.24630729  0.61630718  0.61641984  1  0.939641  -6.7e-05  0.199106  0.377497  -6.5e-05  3.989389  0.0
C  C77  1  0.75363692  0.37003704  0.37004878  1  0.956065  0.039196  0.199624  0.378559  0.033918  3.987506  0.03
C  C78  1  0.94429188  0.53254538  0.21186398  1  0.294346  0.00552  -0.025368  -0.070099  0.005288  4.084515  0.006
C  C79  1  0.73246415  0.78810986  0.32058255  1  0.396524  -0.005524  -0.025088  -0.069119  -0.005304  4.084651  -0.006
C  C80  1  0.41173343  0.67924044  0.46735409  1  0.252633  -0.015183  -0.025496  -0.069534  -0.012705  4.086015  -0.012
C  C81  1  0.94436993  0.21188792  0.53264234  1  0.260903  0.015165  -0.025541  -0.069754  0.012704  4.086227  0.011
C  C82  1  0.41187294  0.46751127  0.67941244  1  0.25171  0.005524  -0.025026  -0.069236  0.0053  4.084774  0.006
C  C83  1  0.73243232  0.32068055  0.78813895  1  0.392978  -0.00553  -0.025417  -0.070146  -0.005306  4.0845  -0.006
C  C84  1  0.05568976  0.26756487  0.58830356  1  0.362148  0.0151  -0.025583  -0.070092  0.012745  4.086068  0.012
C  C85  1  0.26768513  0.58830231  0.05563919  1  0.297814  -0.005533  -0.024925  -0.068865  -0.00528  4.084718  -0.006
C  C86  1  0.58810384  0.05557931  0.26755865  1  0.327777  0.005539  -0.024756  -0.068283  0.005277  4.083881  0.006
C  C87  1  0.05557560  0.58809873  0.26755197  1  0.324607  -0.005552  -0.024634  -0.068068  -0.005287  4.083732  -0.006
C  C88  1  0.58830429  0.26769542  0.05565048  1  0.358378  0.005533  -0.024927  -0.068948  0.00528  4.084553  0.006
C  C89  1  0.26756622  0.05569102  0.58830479  1  0.357807  -0.01511  -0.025643  -0.070204  -0.012748  4.0862  -0.012
C  C90  1  0.32068583  0.73242599  0.78814002  1  0.391587  0.00551  -0.025464  -0.070303  0.00529  4.084467  0.006
C  C91  1  0.46751326  0.41187004  0.67941425  1  0.399716  -0.005541  -0.025017  -0.069026  -0.005314  4.084701  -0.006
C  C92  1  0.21188744  0.94437374  0.53264326  1  0.260759  -0.015163  -0.025543  -0.069673  -0.0127  4.086222  -0.011
C  C93  1  0.67924208  0.41172612  0.46735064  1  0.252599  0.015177  -0.02551  -0.069599  0.012702  4.086119  0.011
C  C94  1  0.78810829  0.73246840  0.32058476  1  0.24648  0.00553  -0.024857  -0.068923  0.005307  4.084562  0.006
C  C95  1  0.53254469  0.94429418  0.21186638  1  0.294393  -0.005532  -0.025403  -0.070101  -0.0053  4.084391  -0.006
C  C96  1  0.67925838  0.46738529  0.41169198  1  0.399483  0.015076  -0.025632  -0.070202  0.012746  4.085999  0.012
C  C97  1  0.53266198  0.21205338  0.94436440  1  0.284213  -0.005545  -0.024767  -0.068654  -0.00529  4.084455  -0.006
C  C98  1  0.78802790  0.32055075  0.73245278  1  0.248495  0.00554  -0.024702  -0.06823  0.005269  4.083844  0.006
C  C99  1  0.32055135  0.78801782  0.73244947  1  0.248799  -0.005558  -0.024641  -0.068037  -0.005287  4.083836  -0.006
C  C100  1  0.21204516  0.53266181  0.94435716  1  0.344273  0.00554  -0.024895  -0.068763  0.005286  4.084667  0.006
C  C101  1  0.46738596  0.67925752  0.41168635  1  0.397221  -0.015076  -0.025715  -0.070456  -0.012746  4.086321  -0.012
C  C102  1  0.99987606  0.67641688  0.48744621  1  -0.081905  -0.000166  -0.226977  -0.466353  -9.6e-05  3.967065  0.0
C  C103  1  0.51250898  0.51250877  0.18890852  1  -0.061208  1e-06  -0.226934  -0.466472  -1e-06  3.967551  0.0
C  C104  1  0.32356046  0.81106041  0.32361110  1  -0.02114  -0.006403  -0.226964  -0.46641  -0.006707  3.967311  -0.003
C  C105  1  0.99995490  0.48745757  0.67639492  1  -0.065919  0.00644  -0.227072  -0.466692  0.006708  3.967284  0.003
C  C106  1  0.32359349  0.32358730  0.81109053  1  -0.023226  0.0  -0.226923  -0.466495  -0.0  3.96781  0.0
C  C107  1  0.51242083  0.18896487  0.51256287  1  -0.062241  8.1e-05  -0.227004  -0.466475  9.6e-05  3.967162  0.0
C  C108  1  0.48762693  0.67655794  0.99999602  1  -0.0968  -5.1e-05  -0.227211  -0.467075  1e-06  3.967488  0.0
C  C109  1  0.67641447  0.99986981  0.48744724  1  -0.081961  0.000168  -0.22697  -0.466344  9.7e-05  3.967268  0.0
C  C110  1  0.67655615  0.48763261  0.99999641  1  -0.095051  4.8e-05  -0.227167  -0.46694  -1e-06  3.967539  0.0
C  C111  1  0.48745419  0.99995274  0.67638854  1  -0.066997  -0.006439  -0.226899  -0.466354  -0.006707  3.967215  -0.003
C  C112  1  0.18896890  0.51243151  0.51255243  1  -0.06246  -7.9e-05  -0.227009  -0.466389  -9.8e-05  3.967062  0.0
C  C113  1  0.81106415  0.32356224  0.32360407  1  -0.027102  0.006414  -0.227007  -0.466559  0.006706  3.967185  0.003
N  N114  1  0.90918571  0.55927417  0.28544034  1  -1.295116  0.06195  -0.386825  -0.375279  0.033086  3.548353  0.002
N  N115  1  0.62378491  0.71450260  0.27368437  1  -1.282803  -0.062258  -0.386736  -0.375438  -0.033291  3.548115  -0.002
N  N116  1  0.34999178  0.72614742  0.44072162  1  -1.286979  -0.083213  -0.386603  -0.376679  -0.046949  3.546418  -0.014
N  N117  1  0.90927775  0.28543396  0.55928308  1  -1.283066  0.082884  -0.386573  -0.376408  0.046939  3.547269  0.014
N  N118  1  0.35009227  0.44080441  0.72630854  1  -1.286251  0.062303  -0.386704  -0.375243  0.033288  3.54825  0.002
N  N119  1  0.62374236  0.27383251  0.71457407  1  -1.282954  -0.062231  -0.386745  -0.375343  -0.033085  3.54744  -0.002
N  N120  1  0.09075500  0.37621939  0.65003098  1  -1.295844  0.083377  -0.386403  -0.375894  0.046993  3.546368  0.014
N  N121  1  0.37636193  0.65010083  0.09072120  1  -1.295019  -0.062464  -0.386948  -0.375663  -0.033198  3.548301  -0.002
N  N122  1  0.64985014  0.09062285  0.37622855  1  -1.295285  0.062671  -0.386805  -0.375807  0.033307  3.548202  0.002
N  N123  1  0.09063083  0.64984923  0.37622834  1  -1.294941  -0.062682  -0.386867  -0.376044  -0.033311  3.547663  -0.002
N  N124  1  0.65010147  0.37637762  0.09072736  1  -1.295021  0.062453  -0.38713  -0.375973  0.033206  3.548389  0.002
N  N125  1  0.37622021  0.09074862  0.65002903  1  -1.295852  -0.083378  -0.386275  -0.375712  -0.046987  3.546655  -0.014
N  N126  1  0.27383522  0.62373973  0.71455694  1  -1.283405  0.062234  -0.386678  -0.375107  0.033081  3.548255  0.002
N  N127  1  0.44081315  0.35008569  0.72631058  1  -1.285554  -0.062293  -0.386719  -0.375497  -0.033294  3.54761  -0.002
N  N128  1  0.28543240  0.90927885  0.55928172  1  -1.2828  -0.082873  -0.386586  -0.376504  -0.046945  3.54695  -0.014
N  N129  1  0.72614641  0.34999291  0.44071225  1  -1.287238  0.083209  -0.386547  -0.376418  0.046943  3.547274  0.014
N  N130  1  0.71450389  0.62378928  0.27368886  1  -1.282633  0.062266  -0.386788  -0.375589  0.033295  3.547998  0.002
N  N131  1  0.55926996  0.90917683  0.28543837  1  -1.294807  -0.061948  -0.386788  -0.375325  -0.033084  3.547819  -0.002
N  N132  1  0.72618923  0.44072190  0.34996778  1  -1.286564  0.083018  -0.386337  -0.375851  0.046988  3.546353  0.014
N  N133  1  0.55937159  0.28564301  0.90927272  1  -1.293586  -0.062012  -0.387135  -0.375916  -0.033204  3.547917  -0.002
N  N134  1  0.71439218  0.27362198  0.62377936  1  -1.280212  0.062474  -0.386862  -0.375941  0.03331  3.548736  0.002
N  N135  1  0.27362729  0.71440348  0.62377724  1  -1.279645  -0.062473  -0.386853  -0.376002  -0.033314  3.547806  -0.002
N  N136  1  0.28563543  0.55937444  0.90926885  1  -1.293512  0.06201  -0.386985  -0.375738  0.0332  3.548036  0.002
N  N137  1  0.44071997  0.72618457  0.34996996  1  -1.287235  -0.083016  -0.386228  -0.375444  -0.046982  3.54699  -0.014
