# generated using pymatgen
data_CuH14C22(NO)4
_symmetry_space_group_name_H-M   'P 1'
_cell_length_a   9.41714439
_cell_length_b   11.14955928
_cell_length_c   11.46811269
_cell_angle_alpha   116.21650619
_cell_angle_beta   89.98976302
_cell_angle_gamma   114.96758580
_symmetry_Int_Tables_number   1
_chemical_formula_structural   CuH14C22(NO)4
_chemical_formula_sum   'Cu2 H28 C44 N8 O8'
_cell_volume   953.26104947
_cell_formula_units_Z   2
loop_
 _symmetry_equiv_pos_site_id
 _symmetry_equiv_pos_as_xyz
  1  'x, y, z'
loop_
 _atom_site_type_symbol
 _atom_site_label
 _atom_site_symmetry_multiplicity
 _atom_site_fract_x
 _atom_site_fract_y
 _atom_site_fract_z
 _atom_site_occupancy
 _atom_site_pbe_cm5_charge
 _atom_site_pbe_ddec_charge
 _atom_site_pbe_ddec_spin_density
 _atom_site_pbe_ddec_sum_bond_order
 _atom_site_pbe_magmom
Cu  Cu0  1  0.49999973  0.99999877  0.99999890  1  0.733832  0.732544  0.735642  2.174633  0.542
Cu  Cu1  1  0.49999762  0.99999936  0.50000165  1  0.733297  0.732176  -0.735711  2.174041  -0.542
H  H2  1  0.01196768  0.42286940  0.02920534  1  0.102848  0.102018  5e-06  1.03581  0.0
H  H3  1  0.58955419  0.57698585  0.47070826  1  0.10287  0.101715  -5e-06  1.03467  0.0
H  H4  1  0.98803438  0.57713092  0.97079750  1  0.10286  0.102023  5e-06  1.035757  0.0
H  H5  1  0.41043933  0.42301438  0.52929017  1  0.102893  0.101714  -5e-06  1.034706  0.0
H  H6  1  0.20178545  0.50625818  0.89261955  1  0.098278  0.104646  8.4e-05  1.036484  0.0
H  H7  1  0.69600604  0.49381558  0.60746888  1  0.098091  0.104394  -8.4e-05  1.036909  0.0
H  H8  1  0.79821883  0.49374445  0.10738599  1  0.098293  0.104667  8.4e-05  1.036443  0.0
H  H9  1  0.30398740  0.50618236  0.39252774  1  0.09809  0.104373  -8.4e-05  1.036913  0.0
H  H10  1  0.21836670  0.30338064  0.68439510  1  0.10609  0.080257  1.7e-05  1.017785  0.0
H  H11  1  0.91545238  0.69686854  0.81559386  1  0.106199  0.080434  -1.7e-05  1.016142  0.0
H  H12  1  0.78163920  0.69662310  0.31561003  1  0.106083  0.080223  1.7e-05  1.017807  0.0
H  H13  1  0.08454261  0.30312824  0.18440140  1  0.106184  0.080417  -1.7e-05  1.016102  0.0
H  H14  1  0.46807857  0.88492402  0.19764942  1  0.117281  0.082113  0.001054  1.043273  0.001
H  H15  1  0.58317027  0.11530594  0.30244231  1  0.117399  0.082869  -0.001054  1.042324  -0.001
H  H16  1  0.53192131  0.11507618  0.80234814  1  0.117309  0.082149  0.001054  1.043237  0.001
H  H17  1  0.41682804  0.88469324  0.69756006  1  0.117396  0.082862  -0.001054  1.042329  -0.001
H  H18  1  0.47195132  0.67091984  0.20611488  1  0.111739  0.133116  0.00052  1.042807  0.001
H  H19  1  0.80102273  0.32923753  0.29395756  1  0.111843  0.133467  -0.00052  1.042063  -0.001
H  H20  1  0.52804203  0.32907580  0.79387903  1  0.111748  0.133109  0.00052  1.042831  0.001
H  H21  1  0.19897558  0.67076166  0.70604481  1  0.111828  0.133429  -0.00052  1.042073  -0.001
H  H22  1  0.55105189  0.52030032  0.80392591  1  0.111454  0.121112  0.000532  1.028691  0.001
H  H23  1  0.03044366  0.47975763  0.69614705  1  0.111663  0.120793  -0.000533  1.028382  -0.001
H  H24  1  0.44895550  0.47970217  0.19607347  1  0.11145  0.121075  0.000532  1.028749  0.001
H  H25  1  0.96955662  0.52023701  0.30385255  1  0.111675  0.120785  -0.000533  1.028373  -0.001
H  H26  1  0.57010565  0.75631010  0.82279810  1  0.119722  0.09554  0.000828  1.016909  0.001
H  H27  1  0.81358288  0.24373444  0.67722611  1  0.119639  0.095581  -0.00083  1.016665  -0.001
H  H28  1  0.42990338  0.24369354  0.17720263  1  0.119729  0.09549  0.000828  1.016865  0.001
H  H29  1  0.18641643  0.75626248  0.32277531  1  0.119673  0.095621  -0.00083  1.016691  -0.001
C  C30  1  0.79757997  0.14673529  0.96730393  1  0.204185  0.582519  -7e-06  4.192129  -0.003
C  C31  1  0.65102860  0.85305456  0.53241922  1  0.204029  0.581506  -3e-06  4.192594  0.003
C  C32  1  0.20241881  0.85326271  0.03269532  1  0.204229  0.582669  -7e-06  4.191942  -0.003
C  C33  1  0.34897087  0.14694906  0.46758064  1  0.203966  0.581476  -3e-06  4.192624  0.003
C  C34  1  0.92346461  0.18757436  0.89189946  1  -0.011192  -0.102341  0.005687  3.909722  0.006
C  C35  1  0.73619736  0.81232178  0.60783429  1  -0.011277  -0.102469  -0.005703  3.911622  -0.006
C  C36  1  0.07653587  0.81242704  0.10810121  1  -0.011243  -0.102461  0.005687  3.909802  0.006
C  C37  1  0.26380251  0.18767841  0.39216239  1  -0.01129  -0.102491  -0.005703  3.911699  -0.006
C  C38  1  0.02251855  0.34156822  0.93664190  1  -0.076412  -0.06492  0.000871  3.980411  0.001
C  C39  1  0.68140825  0.65836278  0.56320490  1  -0.076969  -0.064104  -0.000871  3.979064  -0.001
C  C40  1  0.97748410  0.65843327  0.06336317  1  -0.0764  -0.064849  0.000871  3.980303  0.001
C  C41  1  0.31858790  0.34163631  0.43679307  1  -0.076981  -0.064112  -0.000871  3.978855  -0.001
C  C42  1  0.12809332  0.38670894  0.86196216  1  -0.10091  -0.158633  -0.000237  4.028223  0.0
C  C43  1  0.74185349  0.61333774  0.63798545  1  -0.100067  -0.158252  0.000232  4.027399  0.0
C  C44  1  0.87190882  0.61329366  0.13804250  1  -0.100965  -0.158769  -0.000237  4.028143  0.0
C  C45  1  0.25814043  0.38665902  0.36200893  1  -0.100058  -0.158207  0.000232  4.027254  0.0
C  C46  1  0.13573501  0.27441324  0.74582473  1  0.041517  0.100663  -0.000178  3.984816  0.0
C  C47  1  0.86174896  0.72572176  0.75408008  1  0.041305  0.100469  0.00018  3.983576  0.0
C  C48  1  0.86426770  0.72559050  0.25418040  1  0.041554  0.100838  -0.000178  3.984512  0.0
C  C49  1  0.13824604  0.27427503  0.24591518  1  0.04129  0.100459  0.00018  3.983625  0.0
C  C50  1  0.94193464  0.08339362  0.77448136  1  0.136571  0.187146  -0.000616  3.949824  0.0
C  C51  1  0.85869960  0.91659093  0.72527751  1  0.136265  0.18673  0.000618  3.950473  0.0
C  C52  1  0.05806527  0.91660664  0.22551884  1  0.136556  0.187138  -0.000616  3.949899  0.0
C  C53  1  0.14129973  0.08340816  0.27472046  1  0.136297  0.186778  0.000618  3.950623  0.0
C  C54  1  0.49159576  0.80406684  0.11405170  1  0.051619  0.102502  0.000545  3.918198  0.0
C  C55  1  0.68748885  0.19610955  0.38602888  1  0.051256  0.101886  -0.000554  3.918959  0.0
C  C56  1  0.50840462  0.19593223  0.88594539  1  0.051607  0.102484  0.000546  3.918055  0.0
C  C57  1  0.31250792  0.80389079  0.61397484  1  0.05121  0.101805  -0.000554  3.919079  0.0
C  C58  1  0.48782933  0.67892705  0.11539807  1  -0.074254  -0.157171  0.003831  3.888661  0.004
C  C59  1  0.80886905  0.32119747  0.38466063  1  -0.074278  -0.157648  -0.003828  3.888534  -0.004
C  C60  1  0.51217050  0.32107091  0.88459943  1  -0.074298  -0.157177  0.003831  3.888566  0.004
C  C61  1  0.19113081  0.67880057  0.61534038  1  -0.07427  -0.157618  -0.003828  3.888546  -0.004
C  C62  1  0.50654629  0.56983714  0.00283495  1  0.018636  0.106772  -0.002057  3.957262  -0.002
C  C63  1  0.93665397  0.43021076  0.49719285  1  0.018788  0.106659  0.00205  3.957351  0.002
C  C64  1  0.49345573  0.43016310  0.99716437  1  0.018639  0.106806  -0.002057  3.957239  -0.002
C  C65  1  0.06334428  0.56978616  0.50280857  1  0.01882  0.106755  0.00205  3.957282  0.002
C  C66  1  0.53606973  0.59900424  0.89553573  1  -0.073377  -0.16102  0.003677  3.904265  0.004
C  C67  1  0.93685720  0.40107236  0.60451766  1  -0.07367  -0.160729  -0.00368  3.906109  -0.004
C  C68  1  0.46393717  0.40099938  0.10446412  1  -0.073358  -0.16101  0.003677  3.904319  0.004
C  C69  1  0.06314260  0.59892343  0.39548330  1  -0.073693  -0.160718  -0.00368  3.906092  -0.004
C  C70  1  0.54375722  0.72968517  0.90346013  1  0.05246  0.105678  0.000108  3.906441  0.0
C  C71  1  0.81388625  0.27041883  0.59659431  1  0.052527  0.105772  -0.000111  3.907374  0.0
C  C72  1  0.45625074  0.27031843  0.09653884  1  0.052472  0.10579  0.000108  3.906397  0.0
C  C73  1  0.18611257  0.72957925  0.40340847  1  0.052433  0.10562  -0.000111  3.907432  0.0
N  N74  1  0.51903995  0.83015545  0.01014609  1  -0.339813  -0.218435  0.062101  3.589336  0.077
N  N75  1  0.68878317  0.16996884  0.48990450  1  -0.339169  -0.217876  -0.062056  3.589438  -0.077
N  N76  1  0.48096427  0.16984706  0.98985417  1  -0.339816  -0.218492  0.062097  3.589342  0.077
N  N77  1  0.31121515  0.83003037  0.51009875  1  -0.339093  -0.217744  -0.062055  3.58938  -0.077
N  N78  1  0.04668291  0.12596318  0.70369326  1  -0.31742  -0.291065  -0.000163  3.262703  0.0
N  N79  1  0.92097611  0.87415568  0.79614172  1  -0.316747  -0.290646  0.000159  3.262358  0.0
N  N80  1  0.95331920  0.87403934  0.29630788  1  -0.317428  -0.291139  -0.000163  3.262594  0.0
N  N81  1  0.07902207  0.12584110  0.20385355  1  -0.316739  -0.290643  0.000159  3.262393  0.0
O  O82  1  0.66861514  0.01757158  0.89864849  1  -0.324757  -0.542531  0.077927  2.371945  0.105
O  O83  1  0.65112204  0.98221604  0.60104088  1  -0.324913  -0.542656  -0.077873  2.371608  -0.105
O  O84  1  0.33138362  0.98242638  0.10134901  1  -0.324756  -0.542581  0.077925  2.371939  0.105
O  O85  1  0.34887751  0.01778774  0.39896602  1  -0.324866  -0.542638  -0.077874  2.371574  -0.105
O  O86  1  0.81583218  0.24004077  0.08623269  1  -0.321639  -0.574785  0.000232  2.186805  0.001
O  O87  1  0.57597307  0.75962592  0.41352881  1  -0.320961  -0.573435  -0.000239  2.186443  -0.001
O  O88  1  0.18416078  0.75995832  0.91376528  1  -0.321648  -0.574823  0.000232  2.186647  0.001
O  O89  1  0.42402646  0.24037995  0.58647110  1  -0.320961  -0.573443  -0.000239  2.186504  -0.001
