# generated using pymatgen
data_ZnH4C3(NO)3
_symmetry_space_group_name_H-M   'P 1'
_cell_length_a   7.68166909
_cell_length_b   8.58357951
_cell_length_c   9.99841186
_cell_angle_alpha   89.99993516
_cell_angle_beta   102.74631042
_cell_angle_gamma   89.99982291
_symmetry_Int_Tables_number   1
_chemical_formula_structural   ZnH4C3(NO)3
_chemical_formula_sum   'Zn4 H16 C12 N12 O12'
_cell_volume   643.01106735
_cell_formula_units_Z   4
loop_
 _symmetry_equiv_pos_site_id
 _symmetry_equiv_pos_as_xyz
  1  'x, y, z'
loop_
 _atom_site_type_symbol
 _atom_site_label
 _atom_site_symmetry_multiplicity
 _atom_site_fract_x
 _atom_site_fract_y
 _atom_site_fract_z
 _atom_site_occupancy
 _atom_site_hle17_bader_spin_density
 _atom_site_hle17_ddec_charge
 _atom_site_hle17_ddec_spin_density
 _atom_site_hle17_ddec_sum_bond_order
 _atom_site_hle17_magmom
 _atom_site_hse06_10hf_bader_spin_density
 _atom_site_hse06_10hf_ddec_charge
 _atom_site_hse06_10hf_ddec_spin_density
 _atom_site_hse06_10hf_ddec_sum_bond_order
 _atom_site_hse06_10hf_magmom
 _atom_site_hse06_bader_spin_density
 _atom_site_hse06_ddec_charge
 _atom_site_hse06_ddec_spin_density
 _atom_site_hse06_ddec_sum_bond_order
 _atom_site_hse06_magmom
 _atom_site_pbe_bader_spin_density
 _atom_site_pbe_cm5_charge
 _atom_site_pbe_ddec_charge
 _atom_site_pbe_ddec_spin_density
 _atom_site_pbe_ddec_sum_bond_order
 _atom_site_pbe_magmom
Zn  Zn0  1  0.21013404  0.53618852  0.13784317  1  0  0.957988  0  1.918678  0  0  0.771518  0  2.373654  0  0  0.814928  0  2.328138  0  0  0.695514  0.740192  0  2.405644  0
Zn  Zn1  1  0.78986928  0.03619105  0.36215887  1  0  0.957955  0  1.918725  0  0  0.77151  0  2.373689  0  0  0.814912  0  2.328176  0  0  0.695533  0.740183  0  2.405678  0
Zn  Zn2  1  0.78985614  0.46381883  0.86215443  1  0  0.957974  0  1.918769  0  0  0.771539  0  2.373764  0  0  0.814936  0  2.328253  0  0  0.695515  0.740215  0  2.405752  0
Zn  Zn3  1  0.21014250  0.96381630  0.63785001  1  0  0.958067  0  1.918705  0  0  0.771598  0  2.37372  0  0  0.815002  0  2.328202  0  0  0.695523  0.740274  0  2.405711  0
H  H4  1  0.92168972  0.81548596  0.13732115  1  0  0.106343  0  0.927191  0  0  0.115167  0  0.989868  0  0  0.117859  0  0.98646  0  0  0.13745  0.112944  0  0.992774  0
H  H5  1  0.07831385  0.31548225  0.36268165  1  0  0.106361  0  0.927101  0  0  0.115129  0  0.989842  0  0  0.117823  0  0.986432  0  0  0.13745  0.112908  0  0.992747  0
H  H6  1  0.07831943  0.18451789  0.86268834  1  0  0.106455  0  0.927015  0  0  0.115087  0  0.989887  0  0  0.117779  0  0.986476  0  0  0.137425  0.112863  0  0.992789  0
H  H7  1  0.92167770  0.68452394  0.63731715  1  0  0.106385  0  0.927098  0  0  0.115114  0  0.989877  0  0  0.117811  0  0.986469  0  0  0.137418  0.112887  0  0.992782  0
H  H8  1  0.32467734  0.65864870  0.46406228  1  0  0.098889  0  0.948952  0  0  0.107844  0  1.012366  0  0  0.110428  0  1.009125  0  0  0.133615  0.105824  0  1.01499  0
H  H9  1  0.67532549  0.15864850  0.03593957  1  0  0.098897  0  0.948972  0  0  0.107848  0  1.012394  0  0  0.110432  0  1.009155  0  0  0.133639  0.105828  0  1.015018  0
H  H10  1  0.67533326  0.34135748  0.53595143  1  0  0.098874  0  0.949012  0  0  0.10781  0  1.012441  0  0  0.110394  0  1.009203  0  0  0.133656  0.105791  0  1.015065  0
H  H11  1  0.32466864  0.84135186  0.96405663  1  0  0.098853  0  0.948962  0  0  0.107797  0  1.012392  0  0  0.11038  0  1.009151  0  0  0.133605  0.105776  0  1.015015  0
H  H12  1  0.50450414  0.48624032  0.29954009  1  0  0.415942  0  0.844726  0  0  0.395619  0  0.903757  0  0  0.404419  0  0.89391  0  0  0.306579  0.38938  0  0.910777  0
H  H13  1  0.49549369  0.98624509  0.20047066  1  0  0.41581  0  0.844878  0  0  0.395521  0  0.903834  0  0  0.404316  0  0.894001  0  0  0.306523  0.389282  0  0.910856  0
H  H14  1  0.49548639  0.51374839  0.70046856  1  0  0.41571  0  0.844962  0  0  0.395424  0  0.903913  0  0  0.404216  0  0.894085  0  0  0.306474  0.389184  0  0.910934  0
H  H15  1  0.50451673  0.01374362  0.79953701  1  0  0.415722  0  0.845006  0  0  0.395445  0  0.903926  0  0  0.404236  0  0.894102  0  0  0.306486  0.389205  0  0.910947  0
H  H16  1  0.42808131  0.32126028  0.32881417  1  0  0.424807  0  0.875353  0  0  0.390733  0  0.943978  0  0  0.402512  0  0.926828  0  0  0.286694  0.382376  0  0.956131  0
H  H17  1  0.57191283  0.82126838  0.17118519  1  0  0.424761  0  0.875436  0  0  0.390659  0  0.944102  0  0  0.402445  0  0.92694  0  0  0.286658  0.382305  0  0.95625  0
H  H18  1  0.57191052  0.67873076  0.67119368  1  0  0.424761  0  0.875428  0  0  0.390633  0  0.944141  0  0  0.402418  0  0.926981  0  0  0.286623  0.382273  0  0.9563  0
H  H19  1  0.42809464  0.17872732  0.82881304  1  0  0.424794  0  0.875386  0  0  0.390666  0  0.944104  0  0  0.402449  0  0.926945  0  0  0.286658  0.382306  0  0.95626  0
C  C20  1  0.00915050  0.80333601  0.23808978  1  0  0.212823  0  3.685977  0  0  0.154431  0  3.955983  0  0  0.167988  0  3.969089  0  0  0.14308  0.145423  0  3.947411  0
C  C21  1  0.99085044  0.30333465  0.26191263  1  0  0.21286  0  3.685924  0  0  0.154523  0  3.955925  0  0  0.168074  0  3.96903  0  0  0.143086  0.145512  0  3.947356  0
C  C22  1  0.99085610  0.19666901  0.76192332  1  0  0.212754  0  3.685986  0  0  0.15456  0  3.955988  0  0  0.168119  0  3.969084  0  0  0.143082  0.145559  0  3.947413  0
C  C23  1  0.00913968  0.69667154  0.73808296  1  0  0.212764  0  3.686012  0  0  0.154475  0  3.956004  0  0  0.168021  0  3.969114  0  0  0.143075  0.145473  0  3.947427  0
C  C24  1  0.21241506  0.72298453  0.40479546  1  0  0.207187  0  3.699616  0  0  0.153462  0  3.965691  0  0  0.165701  0  3.980531  0  0  0.136997  0.145412  0  3.955592  0
C  C25  1  0.78758618  0.22298510  0.09520607  1  0  0.20726  0  3.69946  0  0  0.15355  0  3.965548  0  0  0.165784  0  3.980385  0  0  0.137036  0.145498  0  3.955451  0
C  C26  1  0.78759402  0.27702399  0.59521201  1  0  0.207254  0  3.699251  0  0  0.153619  0  3.965313  0  0  0.165854  0  3.980146  0  0  0.136993  0.145568  0  3.955219  0
C  C27  1  0.21240400  0.77701875  0.90479152  1  0  0.207341  0  3.699526  0  0  0.153659  0  3.96559  0  0  0.165896  0  3.980425  0  0  0.137065  0.145607  0  3.955495  0
C  C28  1  0.55216111  0.57318552  0.03471935  1  0  0.52851  0  3.926558  0  0  0.481002  0  4.225029  0  0  0.509686  0  4.220324  0  0  0.202698  0.461481  0  4.227554  0
C  C29  1  0.44784579  0.07318067  0.46527419  1  0  0.52849  0  3.926217  0  0  0.480957  0  4.224748  0  0  0.509646  0  4.220031  0  0  0.202739  0.461445  0  4.227263  0
C  C30  1  0.44779106  0.42681251  0.96525145  1  0  0.527957  0  3.926373  0  0  0.480404  0  4.224963  0  0  0.509059  0  4.220289  0  0  0.202468  0.460922  0  4.227439  0
C  C31  1  0.55221291  0.92681153  0.53474883  1  0  0.528027  0  3.926273  0  0  0.480451  0  4.22489  0  0  0.50911  0  4.220212  0  0  0.202494  0.460957  0  4.227384  0
N  N32  1  0.14798053  0.70276936  0.26868170  1  0  -0.422211  0  3.262212  0  0  -0.343677  0  3.557218  0  0  -0.366101  0  3.569971  0  0  -0.358662  -0.328188  0  3.54848  0
N  N33  1  0.85202355  0.20276609  0.23132329  1  0  -0.42226  0  3.262151  0  0  -0.343754  0  3.557176  0  0  -0.366162  0  3.569914  0  0  -0.358713  -0.328265  0  3.548441  0
N  N34  1  0.85202756  0.29723099  0.73133663  1  0  -0.422149  0  3.26218  0  0  -0.343704  0  3.557192  0  0  -0.36611  0  3.569922  0  0  -0.35865  -0.328217  0  3.548458  0
N  N35  1  0.14797455  0.79723078  0.76867251  1  0  -0.422262  0  3.262308  0  0  -0.34378  0  3.557324  0  0  -0.366189  0  3.570062  0  0  -0.358706  -0.328291  0  3.548588  0
N  N36  1  0.98966118  0.88188110  0.34870885  1  0  -0.263612  0  3.216298  0  0  -0.195595  0  3.506732  0  0  -0.211577  0  3.521802  0  0  -0.251806  -0.184815  0  3.496372  0
N  N37  1  0.01033948  0.38188369  0.15129444  1  0  -0.263707  0  3.216323  0  0  -0.195661  0  3.506723  0  0  -0.211646  0  3.521795  0  0  -0.251835  -0.18488  0  3.496365  0
N  N38  1  0.01035451  0.11813207  0.65129763  1  0  -0.263779  0  3.216201  0  0  -0.195727  0  3.506563  0  0  -0.211712  0  3.521636  0  0  -0.251829  -0.184956  0  3.496214  0
N  N39  1  0.98964415  0.61813182  0.84870616  1  0  -0.263703  0  3.216321  0  0  -0.195681  0  3.506718  0  0  -0.211665  0  3.521797  0  0  -0.251803  -0.184901  0  3.49636  0
N  N40  1  0.12045678  0.83093142  0.45614344  1  0  -0.282756  0  3.185112  0  0  -0.221118  0  3.473349  0  0  -0.2369  0  3.489933  0  0  -0.248974  -0.209895  0  3.462166  0
N  N41  1  0.87954129  0.33093648  0.04385551  1  0  -0.282742  0  3.185018  0  0  -0.221121  0  3.473264  0  0  -0.236902  0  3.489847  0  0  -0.248961  -0.209897  0  3.46208  0
N  N42  1  0.87956139  0.16907826  0.54385742  1  0  -0.282701  0  3.18491  0  0  -0.221137  0  3.473194  0  0  -0.236922  0  3.48978  0  0  -0.248948  -0.20991  0  3.462015  0
N  N43  1  0.12043958  0.66907669  0.95614167  1  0  -0.282703  0  3.185074  0  0  -0.221089  0  3.473331  0  0  -0.236873  0  3.489916  0  0  -0.248938  -0.209865  0  3.462148  0
O  O44  1  0.68255413  0.62143029  0.98917557  1  0  -0.558234  0  2.071653  0  0  -0.505954  0  2.322455  0  0  -0.53003  0  2.313299  0  0  -0.304447  -0.488996  0  2.328403  0
O  O45  1  0.31742016  0.12141477  0.51081350  1  0  -0.558289  0  2.071012  0  0  -0.505965  0  2.321809  0  0  -0.53005  0  2.312651  0  0  -0.304504  -0.489004  0  2.32775  0
O  O46  1  0.31739102  0.37857589  0.01078316  1  0  -0.558125  0  2.071259  0  0  -0.505761  0  2.321977  0  0  -0.529828  0  2.312839  0  0  -0.304521  -0.488813  0  2.327899  0
O  O47  1  0.68261905  0.87858326  0.48922356  1  0  -0.558112  0  2.071254  0  0  -0.505756  0  2.322005  0  0  -0.529824  0  2.312867  0  0  -0.304534  -0.488804  0  2.327932  0
O  O48  1  0.49631044  0.63467852  0.13374033  1  0  -0.621026  0  2.081161  0  0  -0.55206  0  2.30739  0  0  -0.577984  0  2.297313  0  0  -0.303434  -0.533817  0  2.313978  0
O  O49  1  0.50368048  0.13467249  0.36625973  1  0  -0.620965  0  2.081583  0  0  -0.552026  0  2.307834  0  0  -0.577936  0  2.297752  0  0  -0.30342  -0.533787  0  2.314419  0
O  O50  1  0.50365113  0.36530670  0.86623391  1  0  -0.620867  0  2.08116  0  0  -0.551914  0  2.307408  0  0  -0.577808  0  2.297329  0  0  -0.303383  -0.533678  0  2.313977  0
O  O51  1  0.49636122  0.86530923  0.63377171  1  0  -0.620954  0  2.081188  0  0  -0.551973  0  2.30741  0  0  -0.577881  0  2.297339  0  0  -0.303414  -0.533733  0  2.313989  0
O  O52  1  0.40103694  0.43551452  0.32246853  1  0  -0.804521  0  1.870809  0  0  -0.751262  0  2.067419  0  0  -0.77082  0  2.037649  0  0  -0.575174  -0.737224  0  2.088392  0
O  O53  1  0.59895811  0.93551904  0.17753185  1  0  -0.804357  0  1.870944  0  0  -0.751076  0  2.067563  0  0  -0.770634  0  2.037795  0  0  -0.575093  -0.737041  0  2.088529  0
O  O54  1  0.59894776  0.56447303  0.67752323  1  0  -0.804235  0  1.870904  0  0  -0.75094  0  2.067534  0  0  -0.7705  0  2.037778  0  0  -0.575022  -0.736898  0  2.088502  0
O  O55  1  0.40105367  0.06447083  0.82247704  1  0  -0.804305  0  1.87095  0  0  -0.751021  0  2.067589  0  0  -0.770581  0  2.037828  0  0  -0.575079  -0.736981  0  2.088558  0
