# generated using pymatgen
data_Cd3H42C60(N3O4)4
_symmetry_space_group_name_H-M   'P 1'
_cell_length_a   8.19791595
_cell_length_b   13.61612285
_cell_length_c   14.31330000
_cell_angle_alpha   94.12854874
_cell_angle_beta   106.78148367
_cell_angle_gamma   89.98942827
_symmetry_Int_Tables_number   1
_chemical_formula_structural   Cd3H42C60(N3O4)4
_chemical_formula_sum   'Cd3 H42 C60 N12 O16'
_cell_volume   1525.33913085
_cell_formula_units_Z   1
loop_
 _symmetry_equiv_pos_site_id
 _symmetry_equiv_pos_as_xyz
  1  'x, y, z'
loop_
 _atom_site_type_symbol
 _atom_site_label
 _atom_site_symmetry_multiplicity
 _atom_site_fract_x
 _atom_site_fract_y
 _atom_site_fract_z
 _atom_site_occupancy
 _atom_site_hle17_bader_spin_density
 _atom_site_hle17_ddec_charge
 _atom_site_hle17_ddec_spin_density
 _atom_site_hle17_ddec_sum_bond_order
 _atom_site_hle17_magmom
 _atom_site_hse06_10hf_bader_spin_density
 _atom_site_hse06_10hf_ddec_charge
 _atom_site_hse06_10hf_ddec_spin_density
 _atom_site_hse06_10hf_ddec_sum_bond_order
 _atom_site_hse06_10hf_magmom
 _atom_site_hse06_bader_spin_density
 _atom_site_hse06_ddec_charge
 _atom_site_hse06_ddec_spin_density
 _atom_site_hse06_ddec_sum_bond_order
 _atom_site_hse06_magmom
 _atom_site_pbe_bader_charge
 _atom_site_pbe_bader_spin_density
 _atom_site_pbe_cm5_charge
 _atom_site_pbe_ddec_charge
 _atom_site_pbe_ddec_spin_density
 _atom_site_pbe_ddec_sum_bond_order
 _atom_site_pbe_magmom
Cd  Cd0  1  0.15821347  0.43909951  0.36082466  1  0  1.131843  0  1.653299  0  0  0.940618  0  2.092391  0  0  0.999455  0  2.039316  0  1.282789  0  0.764187  0.898925  0  2.128441  0
Cd  Cd1  1  0.79709802  0.56036663  0.63932272  1  0  1.131107  0  1.653052  0  0  0.939888  0  2.092231  0  0  0.998662  0  2.03927  0  1.284675  0  0.764287  0.898245  0  2.128205  0
Cd  Cd2  1  0.17716586  0.00036752  0.99952269  1  0  1.075509  0  1.761579  0  0  0.888244  0  2.213475  0  0  0.945868  0  2.160894  0  1.240593  0  0.758586  0.847466  0  2.249189  0
H  H3  1  0.57940864  0.05115032  0.53238086  1  0  0.105509  0  0.988726  0  0  0.115432  0  1.052766  0  0  0.118058  0  1.052155  0  0.082766  0  0.101041  0.113591  0  1.053239  0
H  H4  1  0.04634193  0.94847123  0.46766084  1  0  0.105683  0  0.987734  0  0  0.115519  0  1.051832  0  0  0.118148  0  1.051218  0  0.093883  0  0.10117  0.113685  0  1.052287  0
H  H5  1  0.74727246  0.98477433  0.42446152  1  0  0.0847  0  0.984261  0  0  0.093208  0  1.048545  0  0  0.094766  0  1.049919  0  0.080406  0  0.094816  0.092087  0  1.047714  0
H  H6  1  0.32285355  0.01515287  0.57556911  1  0  0.084739  0  0.985212  0  0  0.093451  0  1.049284  0  0  0.094925  0  1.050754  0  0.080117  0  0.094826  0.09238  0  1.048397  0
H  H7  1  0.95614844  0.09559328  0.38164696  1  0  0.097205  0  0.957633  0  0  0.106079  0  1.022471  0  0  0.109645  0  1.020372  0  0.095762  0  0.099187  0.10356  0  1.024  0
H  H8  1  0.57529744  0.90451436  0.61853563  1  0  0.096751  0  0.958145  0  0  0.10596  0  1.022871  0  0  0.109462  0  1.020802  0  0.095012  0  0.099098  0.103441  0  1.024406  0
H  H9  1  0.73312465  0.09618395  0.72529721  1  0  0.116112  0  0.94122  0  0  0.128527  0  0.996139  0  0  0.131943  0  0.994873  0  0.072089  0  0.107149  0.126083  0  0.997195  0
H  H10  1  0.00770475  0.90323137  0.27494643  1  0  0.115741  0  0.94201  0  0  0.12835  0  0.996551  0  0  0.13176  0  0.99531  0  0.093057  0  0.107153  0.125929  0  0.997571  0
H  H11  1  0.57445260  0.01299638  0.82498129  1  0  0.092656  0  0.969842  0  0  0.098148  0  1.039753  0  0  0.101238  0  1.038354  0  0.089351  0  0.09697  0.09593  0  1.040782  0
H  H12  1  0.74923978  0.98679162  0.17487296  1  0  0.093015  0  0.96875  0  0  0.098357  0  1.038729  0  0  0.101476  0  1.0373  0  0.088897  0  0.096814  0.09606  0  1.039825  0
H  H13  1  0.13972616  0.19164540  0.71204391  1  0  0.106337  0  0.942077  0  0  0.114096  0  1.005389  0  0  0.117969  0  1.002338  0  0.113489  0  0.103679  0.111294  0  1.007623  0
H  H14  1  0.42673501  0.80889752  0.28731310  1  0  0.106607  0  0.940426  0  0  0.113928  0  1.004343  0  0  0.117831  0  1.001264  0  0.100801  0  0.103882  0.11111  0  1.00658  0
H  H15  1  0.29149635  0.26987997  0.60684737  1  0  0.123285  0  0.954222  0  0  0.130191  0  1.019512  0  0  0.133677  0  1.018292  0  0.123654  0  0.1073  0.127659  0  1.020554  0
H  H16  1  0.68390965  0.73036318  0.39295025  1  0  0.123351  0  0.95343  0  0  0.130326  0  1.018554  0  0  0.133888  0  1.017207  0  0.12539  0  0.10749  0.127758  0  1.019641  0
H  H17  1  0.93528477  0.57565281  0.17573305  1  0  0.086287  0  0.947142  0  0  0.096667  0  1.01176  0  0  0.099188  0  1.008187  0  0.150208  0  0.131916  0.094801  0  1.014328  0
H  H18  1  0.75935557  0.42400777  0.82474369  1  0  0.087127  0  0.94707  0  0  0.097421  0  1.011681  0  0  0.100093  0  1.007869  0  0.160748  0  0.131947  0.095532  0  1.014294  0
H  H19  1  0.73679014  0.46799704  0.38973090  1  0  0.128945  0  0.975489  0  0  0.134007  0  1.03624  0  0  0.137329  0  1.034839  0  0.188028  0  0.121854  0.13155  0  1.037422  0
H  H20  1  0.34622289  0.53137556  0.60989723  1  0  0.128635  0  0.976719  0  0  0.13384  0  1.037289  0  0  0.13718  0  1.035868  0  0.190968  0  0.121896  0.131366  0  1.038484  0
H  H21  1  0.48644666  0.57597319  0.26853620  1  0  0.140523  0  0.961381  0  0  0.149365  0  1.021593  0  0  0.152744  0  1.019671  0  0.191785  0  0.126081  0.146892  0  1.02308  0
H  H22  1  0.21709555  0.42422946  0.73126491  1  0  0.140761  0  0.960728  0  0  0.148498  0  1.022474  0  0  0.152003  0  1.020397  0  0.178718  0  0.125783  0.145914  0  1.024099  0
H  H23  1  0.35558744  0.57438086  0.09141041  1  0  0.127114  0  0.94056  0  0  0.136836  0  1.002895  0  0  0.140218  0  1.001279  0  0.07786  0  0.115544  0.134409  0  1.004183  0
H  H24  1  0.26369593  0.42619740  0.90856215  1  0  0.126914  0  0.940852  0  0  0.137182  0  1.002572  0  0  0.140603  0  1.000905  0  0.094001  0  0.115526  0.134727  0  1.003878  0
H  H25  1  0.39049554  0.77621434  0.87760012  1  0  0.145929  0  0.924864  0  0  0.157148  0  0.981424  0  0  0.161078  0  0.978817  0  0.130173  0  0.125649  0.154308  0  0.983412  0
H  H26  1  0.51300657  0.22410173  0.12251683  1  0  0.146048  0  0.924791  0  0  0.157421  0  0.981181  0  0  0.161361  0  0.978577  0  0.133686  0  0.125495  0.154578  0  0.983158  0
H  H27  1  0.83561056  0.71759365  0.11350921  1  0  0.118751  0  0.955418  0  0  0.129225  0  1.01878  0  0  0.132018  0  1.01776  0  0.074903  0  0.115754  0.127187  0  1.019679  0
H  H28  1  0.72140009  0.28245433  0.88705424  1  0  0.119293  0  0.956617  0  0  0.12945  0  1.020247  0  0  0.132281  0  1.019201  0  0.085015  0  0.115909  0.127382  0  1.021166  0
H  H29  1  0.92210042  0.86428790  0.07844999  1  0  0.102858  0  0.939734  0  0  0.112698  0  1.003639  0  0  0.115043  0  1.000565  0  0.162409  0  0.13833  0.110954  0  1.005776  0
H  H30  1  0.84231684  0.13624102  0.92159134  1  0  0.101805  0  0.941398  0  0  0.111748  0  1.005198  0  0  0.114067  0  1.002169  0  0.16036  0  0.137915  0.110043  0  1.007303  0
H  H31  1  0.87660477  0.88730591  0.77950562  1  0  0.120817  0  0.923346  0  0  0.134526  0  0.972584  0  0  0.137281  0  0.971081  0  0.120418  0  0.129248  0.132485  0  0.973863  0
H  H32  1  0.09866088  0.11228323  0.22030015  1  0  0.120256  0  0.921694  0  0  0.133683  0  0.971415  0  0  0.136392  0  0.969943  0  0.140242  0  0.128978  0.131671  0  0.972678  0
H  H33  1  0.60275636  0.77843491  0.79226701  1  0  0.127808  0  0.938059  0  0  0.13878  0  0.994169  0  0  0.141572  0  0.992773  0  0.161739  0  0.13108  0.136727  0  0.995314  0
H  H34  1  0.81184374  0.22106511  0.20805807  1  0  0.128741  0  0.93802  0  0  0.138901  0  0.995107  0  0  0.141804  0  0.99356  0  0.172243  0  0.130987  0.136779  0  0.996356  0
H  H35  1  0.19883583  0.63369756  0.77703416  1  0  0.101525  0  0.9527  0  0  0.106057  0  1.022992  0  0  0.108624  0  1.020034  0  0.160108  0  0.1363  0.104102  0  1.02519  0
H  H36  1  0.42255848  0.36656770  0.22308020  1  0  0.100421  0  0.952881  0  0  0.104915  0  1.023526  0  0  0.107505  0  1.020519  0  0.170207  0  0.135725  0.102959  0  1.025735  0
H  H37  1  0.06953048  0.65260365  0.04404860  1  0  0.118764  0  0.944832  0  0  0.132631  0  0.999434  0  0  0.135418  0  0.997602  0  0.100974  0  0.126963  0.13052  0  1.001  0
H  H38  1  0.02485081  0.34788476  0.95582124  1  0  0.11818  0  0.946008  0  0  0.131919  0  1.000865  0  0  0.134768  0  0.99892  0  0.104792  0  0.126762  0.129829  0  1.002413  0
H  H39  1  0.78270561  0.59639796  0.88887001  1  0  0.093758  0  0.973734  0  0  0.101605  0  1.037283  0  0  0.103788  0  1.036922  0  0.120297  0  0.112308  0.100016  0  1.03764  0
H  H40  1  0.89371854  0.40345043  0.11083178  1  0  0.092491  0  0.973918  0  0  0.100392  0  1.037505  0  0  0.102608  0  1.037094  0  0.082574  0  0.11207  0.098814  0  1.037844  0
H  H41  1  0.40441083  0.30039929  0.42142523  1  0  0.421558  0  0.828767  0  0  0.399679  0  0.891338  0  0  0.408417  0  0.881365  0  0.617948  0  0.311889  0.393477  0  0.898414  0
H  H42  1  0.98292319  0.69873984  0.57843870  1  0  0.421551  0  0.829173  0  0  0.400152  0  0.891098  0  0  0.408891  0  0.881094  0  0.626425  0  0.312262  0.393946  0  0.89821  0
H  H43  1  0.54161174  0.38743511  0.45296749  1  0  0.43928  0  0.855602  0  0  0.4033  0  0.926003  0  0  0.415603  0  0.908271  0  0.65244  0  0.289698  0.394566  0  0.938571  0
H  H44  1  0.08871799  0.61188226  0.54709309  1  0  0.439872  0  0.85416  0  0  0.404045  0  0.924512  0  0  0.416353  0  0.90674  0  0.643495  0  0.290233  0.395294  0  0.937121  0
C  C45  1  0.02737835  0.28603449  0.43821605  1  0  0.609162  0  3.972751  0  0  0.564903  0  4.260953  0  0  0.598065  0  4.25596  0  1.548877  0  0.182011  0.542453  0  4.263382  0
C  C46  1  0.59008784  0.71419320  0.56201678  1  0  0.60997  0  3.974099  0  0  0.565872  0  4.262093  0  0  0.599064  0  4.257098  0  1.558803  0  0.182557  0.543405  0  4.264533  0
C  C47  1  0.83979290  0.36115953  0.58118837  1  0  0.695437  0  3.899583  0  0  0.632224  0  4.215443  0  0  0.669273  0  4.203836  0  1.625817  0  0.203348  0.60685  0  4.222702  0
C  C48  1  0.25893073  0.63868812  0.41890027  1  0  0.69691  0  3.898987  0  0  0.633314  0  4.215359  0  0  0.670419  0  4.203747  0  1.613367  0  0.20338  0.607925  0  4.222593  0
C  C49  1  0.91436128  0.21918334  0.47244269  1  0  -0.052638  0  3.745219  0  0  -0.038258  0  3.979333  0  0  -0.04337  0  4.000648  0  -0.026898  0  -0.016598  -0.035013  0  3.965093  0
C  C50  1  0.44232902  0.78085654  0.52768336  1  0  -0.051728  0  3.743692  0  0  -0.037594  0  3.977931  0  0  -0.042743  0  3.999378  0  -0.026067  0  -0.016623  -0.034327  0  3.963659  0
C  C51  1  0.82522598  0.25613162  0.53746009  1  0  -0.143262  0  3.685938  0  0  -0.137726  0  3.930568  0  0  -0.142133  0  3.946796  0  0.044759  0  -0.013683  -0.134885  0  3.919916  0
C  C52  1  0.28782010  0.74372929  0.46270003  1  0  -0.14389  0  3.684764  0  0  -0.137851  0  3.928766  0  0  -0.142415  0  3.945257  0  0.047903  0  -0.014105  -0.135014  0  3.91812  0
C  C53  1  0.70339474  0.19460247  0.55667431  1  0  0.238532  0  3.789027  0  0  0.22235  0  4.052209  0  0  0.231795  0  4.067924  0  0.356755  0  0.079257  0.215731  0  4.041682  0
C  C54  1  0.14648083  0.80515607  0.44350088  1  0  0.23926  0  3.789124  0  0  0.22352  0  4.051634  0  0  0.232932  0  4.067365  0  0.362543  0  0.080026  0.216931  0  4.041105  0
C  C55  1  0.67612866  0.09717529  0.51752589  1  0  -0.18157  0  3.766767  0  0  -0.202151  0  4.013791  0  0  -0.205447  0  4.032041  0  0.003399  0  -0.105146  -0.199777  0  4.001455  0
C  C56  1  0.15828825  0.90261123  0.48254995  1  0  -0.18162  0  3.768495  0  0  -0.202224  0  4.01535  0  0  -0.205518  0  4.033597  0  -0.084264  0  -0.104897  -0.199849  0  4.003003  0
C  C57  1  0.77034334  0.06045533  0.45619990  1  0  -0.051129  0  3.793801  0  0  -0.062222  0  4.043551  0  0  -0.062607  0  4.063832  0  -0.034646  0  -0.095912  -0.062  0  4.029836  0
C  C58  1  0.31421940  0.93947481  0.54387918  1  0  -0.051787  0  3.797194  0  0  -0.063067  0  4.046875  0  0  -0.063395  0  4.067189  0  0.02894  0  -0.096326  -0.062881  0  4.033128  0
C  C59  1  0.88677831  0.12139012  0.43277944  1  0  -0.093167  0  3.757269  0  0  -0.120794  0  4.011224  0  0  -0.1221  0  4.031021  0  -0.061526  0  -0.097231  -0.119814  0  3.997848  0
C  C60  1  0.45445570  0.87863871  0.56736445  1  0  -0.092879  0  3.757541  0  0  -0.12084  0  4.011669  0  0  -0.122052  0  4.031505  0  -0.053335  0  -0.096972  -0.119862  0  3.998266  0
C  C61  1  0.51944876  0.18725288  0.66053502  1  0  0.275927  0  3.795013  0  0  0.264749  0  4.060944  0  0  0.276693  0  4.075324  0  0.41642  0  0.081792  0.25667  0  4.051078  0
C  C62  1  0.85839545  0.81252260  0.33940103  1  0  0.275744  0  3.794394  0  0  0.264201  0  4.06109  0  0  0.276023  0  4.075543  0  0.410032  0  0.082464  0.256187  0  4.051196  0
C  C63  1  0.60235427  0.11547009  0.72169864  1  0  -0.213698  0  3.77718  0  0  -0.231092  0  4.030946  0  0  -0.238082  0  4.050808  0  -0.036398  0  -0.108872  -0.226412  0  4.017465  0
C  C64  1  0.88032000  0.88420006  0.27831505  1  0  -0.212597  0  3.778614  0  0  -0.229884  0  4.032286  0  0  -0.236883  0  4.052193  0  0.002048  0  -0.108435  -0.22522  0  4.018778  0
C  C65  1  0.51447927  0.06972720  0.77718659  1  0  -0.058312  0  3.770009  0  0  -0.081926  0  4.022926  0  0  -0.080009  0  4.043334  0  -0.033241  0  -0.08917  -0.082883  0  4.00888  0
C  C66  1  0.73693962  0.93013076  0.22261266  1  0  -0.058865  0  3.770376  0  0  -0.082193  0  4.023211  0  0  -0.080326  0  4.043612  0  -0.102415  0  -0.089007  -0.08307  0  4.009244  0
C  C67  1  0.34844447  0.09722832  0.77474254  1  0  -0.077923  0  3.77277  0  0  -0.055436  0  4.003191  0  0  -0.064817  0  4.026706  0  -0.026256  0  -0.027481  -0.049437  0  3.987378  0
C  C68  1  0.57317177  0.90293087  0.22486236  1  0  -0.078747  0  3.773874  0  0  -0.056565  0  4.004577  0  0  -0.06585  0  4.027954  0  0.025906  0  -0.027992  -0.050636  0  3.988839  0
C  C69  1  0.26818238  0.16958337  0.71341178  1  0  -0.04428  0  3.730747  0  0  -0.067772  0  3.980848  0  0  -0.06541  0  3.999273  0  -0.071665  0  -0.081037  -0.069058  0  3.968291  0
C  C70  1  0.55402833  0.83070177  0.28613013  1  0  -0.043488  0  3.729166  0  0  -0.066399  0  3.978998  0  0  -0.064098  0  3.997418  0  -0.020726  0  -0.081532  -0.067639  0  3.966463  0
C  C71  1  0.35215168  0.21346585  0.65489670  1  0  -0.180693  0  3.732443  0  0  -0.204567  0  3.993707  0  0  -0.210048  0  4.012164  0  -0.024719  0  -0.102008  -0.200976  0  3.981296  0
C  C72  1  0.69657475  0.78662927  0.34485681  1  0  -0.181786  0  3.731334  0  0  -0.205381  0  3.992422  0  0  -0.210911  0  4.010887  0  -0.10501  0  -0.102105  -0.201773  0  3.980032  0
C  C73  1  0.26497136  0.05428268  0.84278042  1  0  0.625821  0  3.950945  0  0  0.584218  0  4.230773  0  0  0.618515  0  4.225308  0  1.537713  0  0.179416  0.560967  0  4.233639  0
C  C74  1  0.42150263  0.94607390  0.15672108  1  0  0.626181  0  3.949365  0  0  0.584568  0  4.229389  0  0  0.618816  0  4.223901  0  1.527342  0  0.179703  0.561352  0  4.23227  0
C  C75  1  0.84861666  0.55944158  0.21735181  1  0  0.164235  0  3.676639  0  0  0.103967  0  3.945714  0  0  0.11839  0  3.957007  0  0.938643  0  0.138305  0.094672  0  3.937688  0
C  C76  1  0.63089696  0.44027202  0.78293936  1  0  0.161917  0  3.679962  0  0  0.101655  0  3.949114  0  0  0.115967  0  3.96041  0  0.925351  0  0.136593  0.092386  0  3.941074  0
C  C77  1  0.73831850  0.50368295  0.32454397  1  0  0.026072  0  3.678287  0  0  -0.003671  0  3.940705  0  0  -0.002003  0  3.959782  0  0.388996  0  0.006644  -0.004789  0  3.927842  0
C  C78  1  0.41307996  0.49583622  0.67524812  1  0  0.024944  0  3.678511  0  0  -0.005142  0  3.940894  0  0  -0.003508  0  3.95995  0  0.361984  0  0.005843  -0.006228  0  3.928008  0
C  C79  1  0.61238470  0.55563606  0.26407876  1  0  -0.067863  0  3.629679  0  0  -0.107649  0  3.888942  0  0  -0.107107  0  3.907679  0  0.241463  0  0.002294  -0.107947  0  3.87634  0
C  C80  1  0.34762345  0.44438688  0.73584662  1  0  -0.064892  0  3.625787  0  0  -0.103609  0  3.884848  0  0  -0.10316  0  3.903555  0  0.261346  0  0.003355  -0.103826  0  3.872255  0
C  C81  1  0.60314676  0.64278162  0.11284473  1  0  0.232014  0  3.796831  0  0  0.226288  0  4.04247  0  0  0.23434  0  4.064379  0  0.274726  0  0.109217  0.220888  0  4.027697  0
C  C82  1  0.48978013  0.35755287  0.88743302  1  0  0.231594  0  3.794941  0  0  0.226351  0  4.04041  0  0  0.2344  0  4.062354  0  0.303289  0  0.109442  0.220945  0  4.025626  0
C  C83  1  0.43022694  0.62588249  0.06470463  1  0  -0.225592  0  3.671671  0  0  -0.258194  0  3.926959  0  0  -0.263872  0  3.9443  0  0.135444  0  -0.086649  -0.254559  0  3.915459  0
C  C84  1  0.36511566  0.37463391  0.93539004  1  0  -0.224577  0  3.667908  0  0  -0.2579  0  3.9236  0  0  -0.26358  0  3.940758  0  0.092934  0  -0.08652  -0.254247  0  3.912205  0
C  C85  1  0.35738769  0.67243628  0.97900819  1  0  0.224446  0  3.798898  0  0  0.218782  0  4.046161  0  0  0.226588  0  4.067491  0  0.30281  0  0.10739  0.21357  0  4.03176  0
C  C86  1  0.37819216  0.32806244  0.02106405  1  0  0.224121  0  3.797421  0  0  0.218049  0  4.045531  0  0  0.225905  0  4.066806  0  0.319905  0  0.1065  0.212808  0  4.031159  0
C  C87  1  0.45158536  0.73550105  0.94081574  1  0  -0.22264  0  3.655468  0  0  -0.254524  0  3.90571  0  0  -0.260696  0  3.923407  0  -0.00416  0  -0.081197  -0.250578  0  3.894012  0
C  C88  1  0.51067800  0.26483123  0.05936332  1  0  -0.221924  0  3.655232  0  0  -0.253948  0  3.90506  0  0  -0.260158  0  3.922772  0  0.006667  0  -0.080585  -0.249973  0  3.893345  0
C  C89  1  0.62500095  0.74923025  0.98904569  1  0  0.230857  0  3.791285  0  0  0.22558  0  4.03684  0  0  0.233487  0  4.058589  0  0.35259  0  0.11053  0.22029  0  4.022191  0
C  C90  1  0.63565511  0.25090317  0.01129667  1  0  0.228773  0  3.795917  0  0  0.224406  0  4.040375  0  0  0.232299  0  4.062164  0  0.365828  0  0.109996  0.219124  0  4.025699  0
C  C91  1  0.70122348  0.70443303  0.07536811  1  0  -0.243484  0  3.698747  0  0  -0.276855  0  3.9574  0  0  -0.284626  0  3.979171  0  0.065446  0  -0.089264  -0.271826  0  3.942961  0
C  C92  1  0.62531130  0.29572837  0.92505370  1  0  -0.243308  0  3.700537  0  0  -0.27676  0  3.958806  0  0  -0.284607  0  3.980582  0  0.033157  0  -0.089037  -0.271688  0  3.944388  0
C  C93  1  0.87446206  0.85639182  0.99926652  1  0  0.164678  0  3.660552  0  0  0.102884  0  3.928056  0  0  0.116982  0  3.941047  0  0.979309  0  0.142274  0.093843  0  3.918822  0
C  C94  1  0.87467823  0.14387859  0.00078788  1  0  0.164714  0  3.663591  0  0  0.103033  0  3.931208  0  0  0.117103  0  3.944246  0  0.972247  0  0.14264  0.093975  0  3.921979  0
C  C95  1  0.84410366  0.86821200  0.84422060  1  0  0.028842  0  3.707903  0  0  -0.006217  0  3.975488  0  0  -0.004281  0  3.994746  0  0.442433  0  0.010682  -0.007569  0  3.962515  0
C  C96  1  0.00085251  0.13160988  0.15571413  1  0  0.029425  0  3.705465  0  0  -0.005276  0  3.972834  0  0  -0.003303  0  3.992053  0  0.443609  0  0.010771  -0.006645  0  3.959869  0
C  C97  1  0.70602670  0.81456935  0.84941699  1  0  -0.031967  0  3.624303  0  0  -0.074404  0  3.888364  0  0  -0.071897  0  3.90488  0  0.296122  0  0.013606  -0.076099  0  3.877395  0
C  C98  1  0.85738847  0.18512953  0.15076197  1  0  -0.031634  0  3.624237  0  0  -0.073445  0  3.888119  0  0  -0.070985  0  3.904523  0  0.260029  0  0.014635  -0.075117  0  3.877206  0
C  C99  1  0.12218330  0.63120743  0.82722304  1  0  0.174764  0  3.637655  0  0  0.11671  0  3.898881  0  0  0.130909  0  3.911308  0  0.969029  0  0.148506  0.107547  0  3.89013  0
C  C100  1  0.29545088  0.36905635  0.17279171  1  0  0.177469  0  3.637368  0  0  0.119395  0  3.898552  0  0  0.133568  0  3.910995  0  0.958166  0  0.149673  0.110232  0  3.889802  0
C  C101  1  0.05148892  0.63818582  0.96632462  1  0  -0.066277  0  3.682422  0  0  -0.111194  0  3.949182  0  0  -0.109458  0  3.967591  0  0.327637  0  -0.002996  -0.112288  0  3.936829  0
C  C102  1  0.08489904  0.36217149  0.03356743  1  0  -0.066607  0  3.684488  0  0  -0.111602  0  3.951387  0  0  -0.109908  0  3.969737  0  0.285464  0  -0.003177  -0.112713  0  3.93907  0
C  C103  1  0.91229610  0.61110304  0.88864894  1  0  -0.00491  0  3.785538  0  0  -0.04118  0  4.063641  0  0  -0.039452  0  4.08505  0  0.381764  0  -0.006731  -0.042302  0  4.049149  0
C  C104  1  0.02364786  0.38893758  0.11116111  1  0  -0.002315  0  3.787185  0  0  -0.038367  0  4.064949  0  0  -0.036648  0  4.086344  0  0.453064  0  -0.006057  -0.039501  0  4.050457  0
N  N105  1  0.88351902  0.50572528  0.29361052  1  0  -0.363825  0  3.209748  0  0  -0.296809  0  3.49179  0  0  -0.316346  0  3.508488  0  -1.189715  0  -0.342403  -0.283404  0  3.479954  0
N  N106  1  0.58943747  0.49362818  0.70640445  1  0  -0.364615  0  3.208032  0  0  -0.297638  0  3.490189  0  0  -0.317101  0  3.506875  0  -1.171633  0  -0.342332  -0.284279  0  3.478387  0
N  N107  1  0.68394410  0.59104504  0.19547798  1  0  -0.107238  0  3.603713  0  0  -0.01754  0  3.814576  0  0  -0.033385  0  3.840555  0  -1.248793  0  -0.228762  -0.006935  0  3.796726  0
N  N108  1  0.48797104  0.40909206  0.80477571  1  0  -0.108431  0  3.604088  0  0  -0.018778  0  3.814652  0  0  -0.034654  0  3.840735  0  -1.260252  0  -0.228563  -0.008151  0  3.796747  0
N  N109  1  0.72611466  0.80759390  0.94858830  1  0  -0.102442  0  3.603346  0  0  -0.012916  0  3.814207  0  0  -0.028419  0  3.839335  0  -1.27443  0  -0.225508  -0.002583  0  3.796991  0
N  N110  1  0.77739718  0.19238264  0.05165394  1  0  -0.102274  0  3.606861  0  0  -0.013164  0  3.817317  0  0  -0.028659  0  3.842454  0  -1.274755  0  -0.226089  -0.002838  0  3.800104  0
N  N111  1  0.94695306  0.89392341  0.93786993  1  0  -0.377232  0  3.265743  0  0  -0.30522  0  3.553854  0  0  -0.325916  0  3.571101  0  -1.235273  0  -0.353375  -0.291004  0  3.541593  0
N  N112  1  0.00923463  0.10628366  0.06197494  1  0  -0.377326  0  3.267049  0  0  -0.305567  0  3.555322  0  0  -0.326236  0  3.572566  0  -1.22513  0  -0.353535  -0.291368  0  3.543069  0
N  N113  1  0.18451392  0.65127574  0.92651072  1  0  -0.096508  0  3.597351  0  0  -0.006615  0  3.807747  0  0  -0.021937  0  3.832432  0  -1.249323  0  -0.22637  0.003604  0  3.790754  0
N  N114  1  0.25809064  0.34925171  0.07347059  1  0  -0.097249  0  3.59814  0  0  -0.00707  0  3.808573  0  0  -0.022421  0  3.833278  0  -1.264976  0  -0.226387  0.003166  0  3.79159  0
N  N115  1  0.95853432  0.60603146  0.80281832  1  0  -0.360796  0  3.217649  0  0  -0.288305  0  3.494631  0  0  -0.30927  0  3.513121  0  -1.201583  0  -0.338984  -0.274015  0  3.481673  0
N  N116  1  0.15618316  0.39392667  0.19710994  1  0  -0.363466  0  3.220216  0  0  -0.291553  0  3.497689  0  0  -0.312486  0  3.51615  0  -1.189894  0  -0.339835  -0.277281  0  3.484764  0
O  O117  1  0.06700973  0.37070612  0.48414653  1  0  -0.617052  0  1.964983  0  0  -0.553134  0  2.196938  0  0  -0.581828  0  2.189287  0  -1.148237  0  -0.326644  -0.532996  0  2.201353  0
O  O118  1  0.58371969  0.62947443  0.51614885  1  0  -0.617683  0  1.966539  0  0  -0.553673  0  2.199128  0  0  -0.582386  0  2.191274  0  -1.158715  0  -0.326911  -0.533479  0  2.203577  0
O  O119  1  0.07278222  0.25816880  0.36275763  1  0  -0.661058  0  1.915614  0  0  -0.607306  0  2.142457  0  0  -0.634139  0  2.13439  0  -1.184345  0  -0.345754  -0.588302  0  2.147187  0
O  O120  1  0.71132307  0.74217968  0.63748359  1  0  -0.661261  0  1.915482  0  0  -0.60802  0  2.142385  0  0  -0.634768  0  2.1343  0  -1.188707  0  -0.346401  -0.589081  0  2.147125  0
O  O121  1  0.73646379  0.42177984  0.52988247  1  0  -0.661671  0  2.050296  0  0  -0.581708  0  2.287514  0  0  -0.614144  0  2.276332  0  -1.168589  0  -0.316521  -0.558886  0  2.294475  0
O  O122  1  0.20718746  0.57789547  0.46998029  1  0  -0.663118  0  2.050495  0  0  -0.582741  0  2.287834  0  0  -0.61523  0  2.27664  0  -1.164531  0  -0.316884  -0.559847  0  2.294783  0
O  O123  1  0.93671927  0.38462313  0.66551611  1  0  -0.630567  0  1.879539  0  0  -0.58313  0  2.110611  0  0  -0.609514  0  2.100013  0  -1.181623  0  -0.333147  -0.564368  0  2.117185  0
O  O124  1  0.27146378  0.61547714  0.33466123  1  0  -0.631511  0  1.877292  0  0  -0.584546  0  2.108681  0  0  -0.610855  0  2.097963  0  -1.17651  0  -0.333454  -0.565821  0  2.115264  0
O  O125  1  0.60080125  0.24049119  0.60791569  1  0  -0.29642  0  2.382576  0  0  -0.227006  0  2.609471  0  0  -0.24514  0  2.611984  0  -1.10896  0  -0.152288  -0.214259  0  2.607478  0
O  O126  1  0.99236263  0.75917823  0.39226006  1  0  -0.297005  0  2.381544  0  0  -0.22812  0  2.608978  0  0  -0.246032  0  2.611356  0  -1.103467  0  -0.153986  -0.215468  0  2.607029  0
O  O127  1  0.14270328  0.10074587  0.86358402  1  0  -0.657219  0  1.88913  0  0  -0.601938  0  2.113766  0  0  -0.629226  0  2.103725  0  -1.17634  0  -0.358694  -0.582778  0  2.119923  0
O  O128  1  0.27801182  0.89993256  0.13584168  1  0  -0.65844  0  1.889516  0  0  -0.603477  0  2.114625  0  0  -0.630695  0  2.104551  0  -1.174532  0  -0.359592  -0.58436  0  2.1208  0
O  O129  1  0.32518447  0.97538830  0.88215749  1  0  -0.643096  0  1.916301  0  0  -0.584376  0  2.1432  0  0  -0.611795  0  2.132341  0  -1.167734  0  -0.350824  -0.565152  0  2.149901  0
O  O130  1  0.44267902  0.02486296  0.11734258  1  0  -0.643214  0  1.915363  0  0  -0.584309  0  2.142507  0  0  -0.611769  0  2.131726  0  -1.157132  0  -0.350935  -0.565067  0  2.149174  0
O  O131  1  0.43336986  0.36385883  0.40238016  1  0  -0.822255  0  1.820325  0  0  -0.759517  0  2.011854  0  0  -0.780469  0  1.980263  0  -1.244189  0  -0.575973  -0.744758  0  2.033859  0
O  O132  1  0.03143213  0.63538194  0.59764365  1  0  -0.822953  0  1.818096  0  0  -0.761376  0  2.008077  0  0  -0.782251  0  1.976512  0  -1.244876  0  -0.577094  -0.746655  0  2.030079  0
