# generated using pymatgen
data_Cu3H12C7IN11
_symmetry_space_group_name_H-M   'P 1'
_cell_length_a   7.57338677
_cell_length_b   10.33737374
_cell_length_c   11.00662580
_cell_angle_alpha   71.28686665
_cell_angle_beta   69.87366549
_cell_angle_gamma   68.51409518
_symmetry_Int_Tables_number   1
_chemical_formula_structural   Cu3H12C7IN11
_chemical_formula_sum   'Cu6 H24 C14 I2 N22'
_cell_volume   733.90227337
_cell_formula_units_Z   2
loop_
 _symmetry_equiv_pos_site_id
 _symmetry_equiv_pos_as_xyz
  1  'x, y, z'
loop_
 _atom_site_type_symbol
 _atom_site_label
 _atom_site_symmetry_multiplicity
 _atom_site_fract_x
 _atom_site_fract_y
 _atom_site_fract_z
 _atom_site_occupancy
 _atom_site_hle17_ddec_charge
 _atom_site_hle17_ddec_spin_density
 _atom_site_hle17_ddec_sum_bond_order
 _atom_site_hle17_magmom
 _atom_site_hse06_10hf_bader_charge
 _atom_site_hse06_10hf_bader_spin_density
 _atom_site_hse06_10hf_ddec_charge
 _atom_site_hse06_10hf_ddec_spin_density
 _atom_site_hse06_10hf_ddec_sum_bond_order
 _atom_site_hse06_10hf_magmom
 _atom_site_hse06_ddec_charge
 _atom_site_hse06_ddec_spin_density
 _atom_site_hse06_ddec_sum_bond_order
 _atom_site_hse06_magmom
 _atom_site_pbe_cm5_charge
 _atom_site_pbe_ddec_charge
 _atom_site_pbe_ddec_spin_density
 _atom_site_pbe_ddec_sum_bond_order
 _atom_site_pbe_magmom
Cu  Cu0  1  0.65697557  0.38851860  0.39666587  1  0.318049  -0.004123  2.297298  -0.003  0.593777  -0.001691  0.204634  -0.001605  2.807399  -0.001  0.197356  -4.9e-05  2.765698  0.0  0.421456  0.218108  -0.006708  2.827037  -0.005
Cu  Cu1  1  0.44233753  0.61145224  0.60336624  1  0.307192  -0.009442  2.304304  -0.007  0.594058  -0.00036  0.200513  -0.000992  2.811  -0.001  0.194693  -0.000336  2.768251  0.0  0.420321  0.215041  0.006706  2.830225  0.005
Cu  Cu2  1  0.68635786  0.10527922  0.10448156  1  0.471009  -0.016957  2.067671  -0.013  0.667359  -0.006514  0.323153  -0.00775  2.594287  -0.006  0.316626  -0.00129  2.554045  -0.001  0.515947  0.340772  -0.020869  2.609921  -0.017
Cu  Cu3  1  0.89618736  0.89472094  0.89545363  1  0.465446  0.016339  2.069299  0.012  0.666795  0.00335  0.321383  0.003615  2.594242  0.003  0.317426  0.000514  2.552305  0.001  0.516717  0.34197  0.02104  2.60822  0.017
Cu  Cu4  1  0.15969862  0.24525750  0.76269735  1  0.661184  -0.590254  2.009519  -0.423  0.97657  -0.582015  0.660215  -0.760158  2.392347  -0.58  0.751036  -0.85186  2.324904  -0.672  0.695777  0.594626  -0.670205  2.447602  -0.506
Cu  Cu5  1  0.16771358  0.75473988  0.23728127  1  0.662488  0.598577  2.010266  0.427  0.979367  0.584928  0.66153  0.765185  2.393058  0.583  0.751453  0.852731  2.325293  0.672  0.695099  0.593955  0.67001  2.449288  0.506
H  H6  1  0.29572163  0.03813256  0.63796731  1  0.308419  0.000519  0.880097  0.001  0.458549  0.000221  0.308657  -0.000389  0.924156  0.0  0.314231  -0.000143  0.922317  0.001  0.307173  0.303924  -0.00056  0.926997  0.0
H  H7  1  0.97191963  0.96186627  0.36201486  1  0.309574  -0.000494  0.877618  -0.001  0.465688  -0.000172  0.310471  0.00042  0.920586  0.0  0.316053  0.000167  0.918725  0.0  0.307875  0.305591  0.000555  0.923624  0.0
H  H8  1  0.40109486  0.16794601  0.55612716  1  0.295733  0.000973  0.891281  0.002  0.455464  0.000839  0.293693  0.000125  0.943663  0.001  0.300012  0.000304  0.940302  0.001  0.292778  0.288513  -6.3e-05  0.947393  0.0
H  H9  1  0.12527388  0.83209830  0.44382424  1  0.29644  -0.000934  0.890692  -0.002  0.451376  -0.00079  0.293499  -7.3e-05  0.943751  -0.001  0.299702  -0.000276  0.940566  -0.001  0.292921  0.288398  6.6e-05  0.94727  0.0
H  H10  1  0.58946046  0.66950896  0.75690191  1  0.105936  -0.000366  0.981631  -0.001  0.062262  -0.000839  0.12161  -0.000375  1.057406  -0.001  0.124748  -0.00026  1.054344  0.0  0.080705  0.11864  -0.000437  1.059745  -0.001
H  H11  1  0.01582457  0.33050319  0.24330650  1  0.105244  0.000348  0.981153  0.001  0.060309  0.000853  0.12087  0.000379  1.057117  0.001  0.124065  0.000266  1.054053  0.0  0.080122  0.117903  0.000436  1.059621  0.001
H  H12  1  0.70750867  0.66678422  0.87389393  1  0.10871  -1.8e-05  0.983779  0.0  0.093917  -5.5e-05  0.117652  -0.00012  1.06642  0.0  0.121226  -0.000102  1.063069  0.0  0.084028  0.114715  -0.000146  1.069062  0.0
H  H13  1  0.24818181  0.33312004  0.12625938  1  0.108877  4e-06  0.983231  0.0  0.077922  3.5e-05  0.117828  0.000101  1.065708  0.0  0.121439  9.2e-05  1.062349  0.0  0.084357  0.114818  0.000146  1.068577  0.0
H  H14  1  0.84547496  0.65320109  0.70694191  1  0.116437  0.000133  0.95226  0.0  0.072099  2.3e-05  0.136988  5.6e-05  1.012264  0.0  0.137795  5.2e-05  1.014487  0.0  0.085878  0.136149  4.1e-05  1.010734  0.0
H  H15  1  0.20563360  0.34689498  0.29315124  1  0.115736  -0.000126  0.950576  0.0  0.052257  -1.5e-05  0.136389  -5.1e-05  1.010551  0.0  0.137239  -5.1e-05  1.012682  0.0  0.085445  0.13566  -4.1e-05  1.008989  0.0
H  H16  1  0.50133582  0.92105467  0.76741769  1  0.06377  0.000113  0.902227  0.0  0.111469  9e-06  0.082474  7.9e-05  0.952805  0.0  0.082459  6.7e-05  0.953763  0.0  0.116762  0.081856  4.3e-05  0.952455  0.0
H  H17  1  0.18996754  0.07889977  0.23241676  1  0.064625  -0.000117  0.901926  0.0  0.099099  -3.3e-05  0.083254  -9.2e-05  0.95216  0.0  0.083278  -7.7e-05  0.953046  0.0  0.11799  0.082618  -4.2e-05  0.951974  0.0
H  H18  1  0.65374045  0.43148122  0.91860441  1  0.058237  -0.00058  0.90031  -0.001  0.088238  -0.001051  0.073741  -0.000504  0.955264  -0.001  0.07497  -0.000329  0.953759  0.0  0.115964  0.071954  -0.000557  0.957089  -0.001
H  H19  1  0.00390347  0.56845417  0.08140477  1  0.059365  0.000607  0.89957  0.001  0.092756  0.001085  0.074108  0.000521  0.955364  0.001  0.075227  0.000335  0.953868  0.001  0.116725  0.07243  0.000561  0.956818  0.001
H  H20  1  0.84806007  0.92658772  0.63930141  1  0.116557  -0.000598  0.961225  -0.001  0.055808  -0.001454  0.136535  -0.000626  1.026723  -0.001  0.138906  -0.000444  1.025492  -0.001  0.088317  0.133688  -0.000774  1.028474  -0.001
H  H21  1  0.41394486  0.07356518  0.36056300  1  0.118198  0.000644  0.963289  0.001  0.064446  0.001575  0.13857  0.000692  1.028287  0.001  0.141005  0.000472  1.027037  0.001  0.089987  0.135779  0.000772  1.030045  0.001
H  H22  1  0.71212706  0.91486726  0.54042213  1  0.111351  4.5e-05  0.98034  0.0  0.065494  -2.6e-05  0.122689  -9e-05  1.05578  0.0  0.125055  -8.1e-05  1.05473  0.0  0.087814  0.121268  -0.00011  1.056143  0.0
H  H23  1  0.16736733  0.08527812  0.45940668  1  0.111981  -4.6e-05  0.981357  0.0  0.068709  3.2e-05  0.123348  9.5e-05  1.056528  0.0  0.125646  8.4e-05  1.055564  0.0  0.087728  0.121696  0.00011  1.057289  0.0
H  H24  1  0.75049966  0.08173715  0.52501483  1  0.100931  0.000152  0.981316  0.0  0.050631  0.000202  0.113117  0.000158  1.061662  0.0  0.115902  0.00014  1.059171  0.0  0.083071  0.111167  0.000146  1.063076  0.0
H  H25  1  0.35719832  0.91841590  0.47491483  1  0.099859  -0.000121  0.98331  0.0  0.066875  -0.000177  0.112134  -0.000141  1.063306  0.0  0.114701  -0.000131  1.061014  0.0  0.082853  0.109813  -0.000147  1.065051  0.0
H  H26  1  0.93833908  0.34379847  0.96901694  1  0.303194  0.000653  0.883157  0.001  0.473484  0.000446  0.302715  -0.000295  0.93013  0.0  0.309209  -6e-05  0.926798  0.001  0.300116  0.297271  -0.000472  0.933918  0.0
H  H27  1  0.25117199  0.65623936  0.03099360  1  0.303636  -0.000634  0.883013  -0.001  0.448609  -0.000414  0.302713  0.0003  0.930414  0.0  0.309008  5.9e-05  0.927352  -0.001  0.299432  0.297112  0.000468  0.934463  0.0
H  H28  1  0.02678559  0.47152356  0.85529829  1  0.307659  0.000782  0.870913  0.001  0.447649  0.000474  0.309461  -0.000124  0.91392  0.0  0.31502  0.000102  0.911731  0.001  0.306413  0.304669  -0.00028  0.916997  0.0
H  H29  1  0.35366108  0.52848447  0.14465548  1  0.306812  -0.000798  0.872216  -0.001  0.458709  -0.000528  0.309163  0.0001  0.914602  0.0  0.314717  -0.000109  0.91249  -0.001  0.306331  0.304336  0.000283  0.917884  0.0
C  C30  1  0.67493014  0.28127029  0.28420196  1  -0.1138  0.000554  3.554168  0.001  0.684061  -4.8e-05  -0.131688  -9.6e-05  3.954307  0.0  -0.115003  -1e-06  3.946327  0.0  -0.086153  -0.140124  -0.000585  3.951674  0.0
C  C31  1  0.24063347  0.71884463  0.71577674  1  -0.112321  0.00028  3.560886  0.0  0.707301  0.00105  -0.129215  0.000654  3.956511  0.0  -0.112055  0.000298  3.94742  0.0  -0.082165  -0.136955  0.000577  3.952495  0.0
C  C32  1  0.54169203  0.10101610  0.78945653  1  0.271871  0.001673  3.691739  0.0  1.035611  -0.000772  0.250137  -0.000703  3.958804  -0.002  0.260931  0.000251  3.977956  -0.001  0.218783  0.243857  -0.001089  3.945275  -0.002
C  C33  1  0.43231258  0.89892819  0.21051555  1  0.272819  -0.001859  3.694585  -0.001  1.012888  0.000729  0.252132  0.000645  3.95967  0.002  0.262937  -0.000243  3.978556  0.001  0.219382  0.245743  0.001085  3.945797  0.002
C  C34  1  0.78419293  0.39624882  0.72456889  1  0.270135  0.001216  3.691465  0.0  1.055599  -0.001031  0.252186  -0.001025  3.954616  -0.002  0.262462  8.5e-05  3.974679  -0.001  0.22141  0.245389  -0.001554  3.94149  -0.003
C  C35  1  0.90502184  0.60372013  0.27548335  1  0.269139  -0.001342  3.690689  0.0  1.054567  0.00113  0.252041  0.001052  3.952598  0.003  0.2622  -4.3e-05  3.972624  0.001  0.224156  0.245345  0.001561  3.938969  0.003
C  C36  1  0.72554686  0.62351755  0.78997466  1  -0.346807  -0.002081  3.659261  -0.002  -0.134319  -0.00232  -0.42303  -0.001705  3.891969  -0.002  -0.426945  -0.001214  3.899147  -0.001  -0.251306  -0.419691  -0.001906  3.888136  -0.002
C  C37  1  0.13905500  0.37646459  0.21014439  1  -0.34559  0.001927  3.655795  0.002  -0.099084  0.002255  -0.421567  0.001669  3.888246  0.002  -0.425643  0.001181  3.895541  0.001  -0.250453  -0.418191  0.001899  3.884465  0.002
C  C38  1  0.53420864  0.01976152  0.70159941  1  0.180379  0.00106  3.631471  0.003  0.312401  0.000148  0.169085  -0.000559  3.863928  0.002  0.17375  -9.1e-05  3.877752  0.002  0.018121  0.166144  -0.000874  3.855589  0.001
C  C39  1  0.25563360  0.98025955  0.29831265  1  0.180395  -0.001076  3.625719  -0.003  0.353734  -0.000108  0.169908  0.000598  3.855701  -0.002  0.17463  9.5e-05  3.869409  -0.002  0.015176  0.166898  0.00086  3.847587  -0.001
C  C40  1  0.77044357  0.46165588  0.83229899  1  0.184348  0.000919  3.608205  0.003  0.32143  -0.000272  0.169603  -0.000799  3.84693  0.001  0.174576  -0.000284  3.85977  0.002  0.018698  0.166548  -0.001133  3.839223  0.001
C  C41  1  0.06446124  0.53830052  0.16771530  1  0.183566  -0.000809  3.605307  -0.003  0.294703  0.000299  0.168577  0.00084  3.844827  -0.001  0.173612  0.000292  3.857759  -0.002  0.016644  0.165686  0.001128  3.836955  -0.001
C  C42  1  0.72354780  0.98316160  0.59429742  1  -0.353447  -0.003148  3.661873  -0.003  -0.088913  -0.00377  -0.429471  -0.002774  3.893966  -0.003  -0.433346  -0.001951  3.901433  -0.002  -0.252844  -0.426493  -0.003059  3.889938  -0.003
C  C43  1  0.30099526  0.01697122  0.40558282  1  -0.355874  0.003214  3.665665  0.003  -0.122066  0.003896  -0.432697  0.002864  3.897584  0.003  -0.436524  0.001992  3.905155  0.002  -0.254709  -0.429606  0.003067  3.894152  0.003
I  I44  1  0.07832878  0.99999508  0.00000707  1  -0.494219  0.002574  1.489204  0.002  -0.523716  -5.3e-05  -0.512555  -6.9e-05  1.972155  0.0  -0.531283  -5e-05  1.929028  0.0  -0.211063  -0.49498  1.3e-05  1.997883  0.0
I  I45  1  0.26363344  0.49993244  0.50017282  1  -0.466612  -6.6e-05  1.38227  0.0  -0.541329  -0.000175  -0.483005  -0.000186  1.82792  0.0  -0.501779  -7.4e-05  1.789202  0.0  -0.224167  -0.465913  -1.6e-05  1.851753  0.0
N  N46  1  0.74469240  0.33726248  0.56816840  1  -0.051497  -0.009158  3.20286  -0.012  -0.160973  -0.007671  -0.009056  -0.004941  3.514704  -0.007  -0.007412  -0.002941  3.516294  -0.004  -0.135702  -0.012515  -0.006555  3.515888  -0.009
N  N47  1  0.65018920  0.66266787  0.43186513  1  -0.055676  0.007815  3.205608  0.01  -0.152566  0.007153  -0.014813  0.004598  3.518922  0.006  -0.01331  0.002873  3.520551  0.004  -0.138257  -0.018  0.006578  3.520021  0.009
N  N48  1  0.59919301  0.16876403  0.93296542  1  -0.091902  -0.0114  3.23286  -0.015  -0.188111  -0.008685  -0.050751  -0.005643  3.558956  -0.008  -0.048764  -0.003173  3.559303  -0.005  -0.146292  -0.054181  -0.00801  3.560151  -0.011
N  N49  1  0.70110721  0.83112047  0.06706633  1  -0.088576  0.011468  3.233141  0.015  -0.18811  0.008259  -0.048502  0.005332  3.560566  0.007  -0.046725  0.003137  3.560888  0.005  -0.147345  -0.052216  0.008008  3.561837  0.011
N  N50  1  0.38912408  0.21168623  0.82525448  1  -0.29747  -0.056338  3.327337  -0.071  -0.75927  -0.073571  -0.268326  -0.05102  3.657249  -0.066  -0.301132  -0.044304  3.681203  -0.06  -0.275194  -0.247851  -0.050456  3.642401  -0.064
N  N51  1  0.42619094  0.78825474  0.17475116  1  -0.295947  0.058758  3.327819  0.074  -0.750029  0.074319  -0.267713  0.051659  3.658189  0.067  -0.300429  0.044396  3.681927  0.06  -0.273935  -0.246816  0.050476  3.64288  0.064
N  N52  1  0.91420179  0.25238395  0.59022117  1  -0.063698  0.001363  2.924244  0.002  -0.095203  -0.001166  -0.049445  -0.001059  3.208978  -0.001  -0.044912  -0.000569  3.220852  0.0  -0.088966  -0.052206  -0.001191  3.201907  -0.001
N  N53  1  0.75688437  0.74753452  0.40984941  1  -0.059961  -0.001188  2.92047  -0.002  -0.096517  0.001413  -0.045284  0.001241  3.205824  0.001  -0.040889  0.000629  3.217852  0.0  -0.087837  -0.04806  0.001187  3.198465  0.001
N  N54  1  0.42654018  0.25278462  0.91532213  1  -0.065914  0.001581  2.92391  0.002  -0.09527  -0.001262  -0.059948  -0.001121  3.218971  -0.001  -0.054951  -0.000743  3.229937  0.0  -0.096695  -0.061989  -0.001138  3.211236  -0.001
N  N55  1  0.59480193  0.74711511  0.08471087  1  -0.067422  -0.001746  2.925743  -0.002  -0.105138  0.00154  -0.061408  0.001317  3.221874  0.001  -0.056508  0.0008  3.233035  0.0  -0.095995  -0.063402  0.00114  3.214077  0.001
N  N56  1  0.94018744  0.28787070  0.68831166  1  -0.303362  -0.057848  3.350865  -0.073  -0.781164  -0.076324  -0.272695  -0.052796  3.676252  -0.068  -0.304884  -0.046225  3.699332  -0.062  -0.277074  -0.253562  -0.05157  3.663864  -0.065
N  N57  1  0.91644060  0.71207516  0.31172685  1  -0.303401  0.059088  3.349791  0.074  -0.764589  0.076788  -0.273565  0.053217  3.675914  0.069  -0.305666  0.04623  3.698759  0.062  -0.27747  -0.254145  0.051556  3.663103  0.065
N  N58  1  0.67073686  0.21805761  0.21319608  1  -0.430954  -0.000689  3.38046  -0.001  -1.436492  -0.000651  -0.36734  -0.000352  3.755016  0.0  -0.379289  -0.000135  3.755654  0.0  -0.464377  -0.359162  -0.000671  3.746573  -0.001
N  N59  1  0.10222361  0.78207204  0.78672707  1  -0.4345  -0.001422  3.388093  -0.002  -1.462789  3e-05  -0.369163  -9.9e-05  3.759933  0.0  -0.381005  -4.6e-05  3.759287  0.0  -0.467816  -0.360876  0.000678  3.75  0.001
N  N60  1  0.36063869  0.10395626  0.64761806  1  -0.603701  -0.068976  3.099984  -0.085  -1.132111  -0.102031  -0.573051  -0.067894  3.334738  -0.086  -0.602969  -0.05802  3.3367  -0.078  -0.6209  -0.558213  -0.066651  3.340001  -0.082
N  N61  1  0.11230146  0.89604850  0.35234335  1  -0.604347  0.069682  3.094552  0.086  -1.141308  0.102567  -0.573436  0.06835  3.328903  0.086  -0.603597  0.058035  3.330929  0.078  -0.620368  -0.558645  0.066631  3.334541  0.082
N  N62  1  0.96059224  0.39508961  0.87097568  1  -0.609285  -0.065794  3.073541  -0.081  -1.125202  -0.096098  -0.581117  -0.064006  3.311722  -0.08  -0.609782  -0.054883  3.310868  -0.073  -0.616288  -0.566528  -0.063067  3.318827  -0.077
N  N63  1  0.22670016  0.60490329  0.12902678  1  -0.608281  0.066158  3.074415  0.081  -1.115239  0.096837  -0.579708  0.064612  3.311873  0.081  -0.608681  0.055046  3.311477  0.073  -0.614986  -0.565502  0.063088  3.319539  0.077
N  N64  1  0.67618159  0.07244537  0.85401719  1  -0.275382  -0.003149  3.211347  -0.004  -0.767386  -0.001369  -0.222829  -0.001049  3.517347  -0.001  -0.231105  -0.000796  3.520799  -0.001  -0.267179  -0.219976  -0.001239  3.515977  -0.001
N  N65  1  0.60279482  0.92746741  0.14600001  1  -0.279367  0.003895  3.213544  0.005  -0.763914  0.001082  -0.227601  0.000851  3.520524  0.001  -0.235633  0.000685  3.524038  0.001  -0.267497  -0.224152  0.00126  3.518731  0.001
N  N66  1  0.65902853  0.42926567  0.65123557  1  -0.258239  -0.003034  3.18464  -0.004  -0.783255  -0.001873  -0.209456  -0.001335  3.481382  -0.001  -0.218193  -0.001019  3.486336  -0.001  -0.262793  -0.20578  -0.00154  3.47989  -0.002
N  N67  1  0.73958857  0.57071049  0.34876016  1  -0.257751  0.003617  3.180951  0.004  -0.777979  0.001817  -0.208341  0.001291  3.477297  0.001  -0.216889  0.000992  3.482238  0.001  -0.262645  -0.204323  0.00154  3.475262  0.002
