# generated using pymatgen
data_ZnH22C23(NO3)2
_symmetry_space_group_name_H-M   'P 1'
_cell_length_a   9.87244392
_cell_length_b   10.53271434
_cell_length_c   12.12100000
_cell_angle_alpha   101.36362516
_cell_angle_beta   112.13160489
_cell_angle_gamma   107.09444464
_symmetry_Int_Tables_number   1
_chemical_formula_structural   ZnH22C23(NO3)2
_chemical_formula_sum   'Zn2 H44 C46 N4 O12'
_cell_volume   1046.35011160
_cell_formula_units_Z   2
loop_
 _symmetry_equiv_pos_site_id
 _symmetry_equiv_pos_as_xyz
  1  'x, y, z'
loop_
 _atom_site_type_symbol
 _atom_site_label
 _atom_site_symmetry_multiplicity
 _atom_site_fract_x
 _atom_site_fract_y
 _atom_site_fract_z
 _atom_site_occupancy
 _atom_site_hle17_bader_spin_density
 _atom_site_hle17_ddec_charge
 _atom_site_hle17_ddec_spin_density
 _atom_site_hle17_ddec_sum_bond_order
 _atom_site_hle17_magmom
 _atom_site_hse06_10hf_bader_spin_density
 _atom_site_hse06_10hf_ddec_charge
 _atom_site_hse06_10hf_ddec_spin_density
 _atom_site_hse06_10hf_ddec_sum_bond_order
 _atom_site_hse06_10hf_magmom
 _atom_site_hse06_bader_spin_density
 _atom_site_hse06_ddec_charge
 _atom_site_hse06_ddec_spin_density
 _atom_site_hse06_ddec_sum_bond_order
 _atom_site_hse06_magmom
 _atom_site_pbe_bader_charge
 _atom_site_pbe_bader_spin_density
 _atom_site_pbe_cm5_charge
 _atom_site_pbe_ddec_charge
 _atom_site_pbe_ddec_spin_density
 _atom_site_pbe_ddec_sum_bond_order
 _atom_site_pbe_magmom
Zn  Zn0  1  0.17028213  0.27157475  0.54262953  1  0  0.992463  0  1.87236  0  0  0.789422  0  2.35312  0  0  0.837592  0  2.299593  0  1.262494  0  0.696678  0.755726  0  2.38909  0
Zn  Zn1  1  0.82971448  0.72842374  0.45736925  1  0  0.992488  0  1.872357  0  0  0.789441  0  2.35311  0  0  0.837603  0  2.299577  0  1.262644  0  0.696683  0.755746  0  2.389077  0
H  H2  1  0.41625637  0.12055734  0.80299775  1  0  0.067507  0  0.959732  0  0  0.075756  0  1.033175  0  0  0.077547  0  1.031582  0  0.055294  0  0.098394  0.075032  0  1.033334  0
H  H3  1  0.58374059  0.87944432  0.19700416  1  0  0.067523  0  0.959691  0  0  0.075745  0  1.033162  0  0  0.077537  0  1.031568  0  0.055265  0  0.098381  0.075022  0  1.033321  0
H  H4  1  0.56761165  0.24516254  0.78464697  1  0  0.088552  0  0.948136  0  0  0.096835  0  1.018897  0  0  0.098928  0  1.016676  0  0.111678  0  0.106992  0.094961  0  1.021245  0
H  H5  1  0.43239127  0.75484019  0.21535448  1  0  0.088559  0  0.948161  0  0  0.096847  0  1.018905  0  0  0.098939  0  1.016687  0  0.111704  0  0.107014  0.094975  0  1.021255  0
H  H6  1  0.35489244  0.80537319  0.63318474  1  0  0.129342  0  0.966318  0  0  0.13752  0  1.024668  0  0  0.141228  0  1.024079  0  0.153663  0  0.111553  0.134712  0  1.025606  0
H  H7  1  0.64510745  0.19462530  0.36681505  1  0  0.129303  0  0.966336  0  0  0.137466  0  1.024713  0  0  0.141172  0  1.02412  0  0.153644  0  0.111538  0.134658  0  1.025651  0
H  H8  1  0.08127243  0.33169187  0.89311697  1  0  0.101059  0  0.970647  0  0  0.113081  0  1.03038  0  0  0.116091  0  1.028859  0  0.082837  0  0.100391  0.110584  0  1.032451  0
H  H9  1  0.91872673  0.66830980  0.10688314  1  0  0.101068  0  0.970472  0  0  0.113085  0  1.030229  0  0  0.116087  0  1.028707  0  0.082835  0  0.100388  0.110588  0  1.032299  0
H  H10  1  0.79263066  0.86730501  0.12502095  1  0  0.110218  0  0.943507  0  0  0.122116  0  1.000782  0  0  0.124909  0  1.00081  0  0.12042  0  0.108588  0.119995  0  1.001245  0
H  H11  1  0.20737080  0.13269454  0.87497785  1  0  0.110229  0  0.94349  0  0  0.122124  0  1.00077  0  0  0.124917  0  1.000796  0  0.12043  0  0.108585  0.120003  0  1.001233  0
H  H12  1  0.29322284  0.50389349  0.80558946  1  0  0.117209  0  0.963138  0  0  0.125263  0  1.026593  0  0  0.128623  0  1.025208  0  0.11365  0  0.104519  0.122848  0  1.027835  0
H  H13  1  0.70677753  0.49610606  0.19440984  1  0  0.117169  0  0.963176  0  0  0.125222  0  1.026633  0  0  0.128582  0  1.02525  0  0.113634  0  0.1045  0.122811  0  1.027866  0
H  H14  1  0.59494150  0.30613987  0.98892094  1  0  0.09528  0  0.976961  0  0  0.105289  0  1.042333  0  0  0.108596  0  1.040255  0  0.054043  0  0.098595  0.102848  0  1.044299  0
H  H15  1  0.40505766  0.69386180  0.01107916  1  0  0.095306  0  0.976894  0  0  0.1053  0  1.042295  0  0  0.108614  0  1.040204  0  0.054047  0  0.098614  0.102858  0  1.044265  0
H  H16  1  0.98299934  0.99011139  0.35401192  1  0  0.102755  0  0.961718  0  0  0.107959  0  1.028009  0  0  0.111694  0  1.024286  0  0.168721  0  0.119914  0.104411  0  1.031871  0
H  H17  1  0.01699933  0.00988922  0.64598621  1  0  0.102776  0  0.961682  0  0  0.107969  0  1.027986  0  0  0.111706  0  1.024263  0  0.168706  0  0.119921  0.104432  0  1.031838  0
H  H18  1  0.02560714  0.38605131  0.32208299  1  0  0.100132  0  0.966733  0  0  0.104802  0  1.035272  0  0  0.10837  0  1.031367  0  0.163282  0  0.117217  0.101582  0  1.038866  0
H  H19  1  0.97439748  0.61395036  0.67791798  1  0  0.100184  0  0.966693  0  0  0.104854  0  1.03522  0  0  0.108422  0  1.031314  0  0.163298  0  0.117232  0.101624  0  1.038831  0
H  H20  1  0.51821626  0.40722387  0.63020111  1  0  0.086866  0  0.934035  0  0  0.094885  0  0.99792  0  0  0.097677  0  0.995356  0  0.13039  0  0.119922  0.093104  0  0.999301  0
H  H21  1  0.48178350  0.59277673  0.36979818  1  0  0.086868  0  0.9341  0  0  0.094879  0  0.998005  0  0  0.097671  0  0.995441  0  0.130335  0  0.119932  0.093099  0  0.999383  0
H  H22  1  0.72324781  0.16677235  0.59228685  1  0  0.128751  0  0.940193  0  0  0.136541  0  1.001351  0  0  0.140183  0  0.99861  0  0.17725  0  0.12037  0.133951  0  1.003329  0
H  H23  1  0.27675099  0.83322614  0.40771425  1  0  0.128701  0  0.94024  0  0  0.13651  0  1.001372  0  0  0.140153  0  0.998631  0  0.177373  0  0.120359  0.133918  0  1.003353  0
H  H24  1  0.86566883  0.17209145  0.73709958  1  0  0.078472  0  0.943452  0  0  0.089199  0  1.010342  0  0  0.090682  0  1.009341  0  0.049163  0  0.105263  0.088292  0  1.010955  0
H  H25  1  0.13432936  0.82790810  0.26289987  1  0  0.078463  0  0.943476  0  0  0.089163  0  1.0104  0  0  0.090646  0  1.0094  0  0.049155  0  0.105251  0.088255  0  1.011016  0
H  H26  1  0.72773888  0.65108869  0.71386937  1  0  0.105371  0  0.958942  0  0  0.115774  0  1.021299  0  0  0.118353  0  1.02177  0  0.077995  0  0.105511  0.114064  0  1.020903  0
H  H27  1  0.27225773  0.34890980  0.28612859  1  0  0.10535  0  0.958979  0  0  0.115747  0  1.021343  0  0  0.118329  0  1.021812  0  0.077942  0  0.105486  0.114034  0  1.020948  0
H  H28  1  0.61797504  0.96637091  0.69935199  1  0  0.105996  0  0.953081  0  0  0.120416  0  1.01322  0  0  0.122939  0  1.011747  0  0.093636  0  0.099977  0.11844  0  1.014538  0
H  H29  1  0.38202327  0.03362652  0.30064879  1  0  0.106005  0  0.953087  0  0  0.120421  0  1.013222  0  0  0.122945  0  1.011749  0  0.093636  0  0.099963  0.118444  0  1.014541  0
H  H30  1  0.75730426  0.90043362  0.68430755  1  0  0.097373  0  0.962311  0  0  0.109056  0  1.030597  0  0  0.110608  0  1.030448  0  0.061582  0  0.095918  0.107827  0  1.030896  0
H  H31  1  0.24269612  0.09956593  0.31569175  1  0  0.0974  0  0.962301  0  0  0.109082  0  1.030572  0  0  0.110634  0  1.030425  0  0.061595  0  0.095914  0.107853  0  1.030868  0
H  H32  1  0.75195380  0.52874525  0.87918671  1  0  0.104715  0  0.960831  0  0  0.115075  0  1.022347  0  0  0.117893  0  1.021774  0  0.072329  0  0.100024  0.112633  0  1.024164  0
H  H33  1  0.24804487  0.47125536  0.12081224  1  0  0.104727  0  0.960856  0  0  0.11508  0  1.022377  0  0  0.117896  0  1.021808  0  0.072314  0  0.100013  0.112637  0  1.024195  0
H  H34  1  0.59618152  0.89059313  0.92851301  1  0  0.08061  0  0.929556  0  0  0.09848  0  0.988587  0  0  0.09942  0  0.989041  0  0.053433  0  0.094011  0.097927  0  0.987898  0
H  H35  1  0.40381606  0.10940748  0.07148643  1  0  0.080604  0  0.92958  0  0  0.098487  0  0.988597  0  0  0.099427  0  0.989049  0  0.05343  0  0.094016  0.097932  0  0.987909  0
H  H36  1  0.63318939  0.05848993  0.91005651  1  0  0.079515  0  0.93583  0  0  0.098999  0  0.994396  0  0  0.100044  0  0.993936  0  0.020013  0  0.095281  0.09831  0  0.994451  0
H  H37  1  0.36681099  0.94150962  0.08994279  1  0  0.079519  0  0.935849  0  0  0.099013  0  0.994406  0  0  0.100047  0  0.993958  0  0.020002  0  0.09528  0.098323  0  0.994462  0
H  H38  1  0.84419131  0.27837166  0.09175541  1  0  0.111267  0  0.949925  0  0  0.123553  0  1.00687  0  0  0.125613  0  1.00844  0  0.098601  0  0.107399  0.122063  0  1.006034  0
H  H39  1  0.15581174  0.72162894  0.90824653  1  0  0.111245  0  0.949951  0  0  0.123552  0  1.006876  0  0  0.125594  0  1.00847  0  0.098578  0  0.107399  0.12207  0  1.00602  0
H  H40  1  0.83985358  0.89007086  0.90882447  1  0  0.059739  0  0.936404  0  0  0.079045  0  0.998297  0  0  0.079527  0  0.999631  0  0.043287  0  0.087219  0.078753  0  0.997187  0
H  H41  1  0.16014522  0.10992763  0.09117581  1  0  0.05976  0  0.936412  0  0  0.079062  0  0.998307  0  0  0.079545  0  0.999642  0  0.043292  0  0.087216  0.078771  0  0.99719  0
H  H42  1  0.88399028  0.06126971  0.89956746  1  0  0.058125  0  0.943874  0  0  0.074958  0  1.011802  0  0  0.075491  0  1.012679  0  0.015849  0  0.085766  0.074648  0  1.010971  0
H  H43  1  0.11600790  0.93872984  0.10043199  1  0  0.058125  0  0.94387  0  0  0.074941  0  1.011817  0  0  0.075473  0  1.012696  0  0.015848  0  0.085752  0.074633  0  1.010987  0
H  H44  1  0.15852926  0.55467756  0.55856176  1  0  0.089725  0  0.965524  0  0  0.096473  0  1.031891  0  0  0.09924  0  1.028766  0  0.173869  0  0.117023  0.094474  0  1.034023  0
H  H45  1  0.84147439  0.44532199  0.44143854  1  0  0.089663  0  0.965599  0  0  0.09641  0  1.031966  0  0  0.09917  0  1.028859  0  0.173841  0  0.116993  0.094413  0  1.034094  0
C  C46  1  0.43720963  0.39339804  0.88343181  1  0  0.238259  0  3.828248  0  0  0.228848  0  4.087867  0  0  0.237771  0  4.105062  0  0.4191  0  0.065017  0.22293  0  4.07674  0
C  C47  1  0.56279172  0.60660363  0.11656897  1  0  0.238233  0  3.828238  0  0  0.228824  0  4.087844  0  0  0.237749  0  4.105041  0  0.419077  0  0.065006  0.222907  0  4.076716  0
C  C48  1  0.43767144  0.19175335  0.75029525  1  0  -0.084231  0  3.666638  0  0  -0.14703  0  3.938696  0  0  -0.142822  0  3.937641  0  0.36104  0  -0.076381  -0.149889  0  3.939193  0
C  C49  1  0.56232942  0.80824726  0.24970520  1  0  -0.08424  0  3.666603  0  0  -0.147003  0  3.938644  0  0  -0.142795  0  3.937591  0  0.361043  0  -0.07638  -0.149863  0  3.939143  0
C  C50  1  0.55863267  0.75019273  0.68287403  1  0  0.18637  0  3.680251  0  0  0.202074  0  3.912792  0  0  0.209175  0  3.933724  0  -0.073419  0  0.022102  0.197446  0  3.898638  0
C  C51  1  0.44136819  0.24980788  0.31712560  1  0  0.186356  0  3.680071  0  0  0.202005  0  3.912693  0  0  0.209104  0  3.933628  0  -0.073305  0  0.022061  0.197378  0  3.898538  0
C  C52  1  0.39537065  0.71980365  0.63674195  1  0  -0.172481  0  3.669098  0  0  -0.186615  0  3.908124  0  0  -0.196571  0  3.929749  0  -0.050331  0  -0.081887  -0.180641  0  3.894398  0
C  C53  1  0.60463239  0.28019696  0.36326000  1  0  -0.172429  0  3.668969  0  0  -0.186554  0  3.908043  0  0  -0.196504  0  3.929662  0  -0.050347  0  -0.081905  -0.180582  0  3.894317  0
C  C54  1  0.90246132  0.41921064  0.86975380  1  0  0.238471  0  3.838807  0  0  0.228336  0  4.102746  0  0  0.237378  0  4.119587  0  0.395311  0  0.064881  0.222501  0  4.090897  0
C  C55  1  0.09753881  0.58079314  0.13024614  1  0  0.238559  0  3.838757  0  0  0.228443  0  4.102671  0  0  0.237481  0  4.119511  0  0.395669  0  0.064922  0.222606  0  4.090823  0
C  C56  1  0.04263551  0.40309127  0.93899470  1  0  -0.19117  0  3.806396  0  0  -0.210199  0  4.05858  0  0  -0.213627  0  4.078488  0  -0.016955  0  -0.11646  -0.208113  0  4.045984  0
C  C57  1  0.95736486  0.59690828  0.06100377  1  0  -0.191275  0  3.806506  0  0  -0.210314  0  4.05871  0  0  -0.213728  0  4.078628  0  -0.017255  0  -0.11649  -0.208227  0  4.046112  0
C  C58  1  0.96364907  0.29728248  0.64231105  1  0  0.655259  0  3.892223  0  0  0.602956  0  4.201653  0  0  0.635664  0  4.194897  0  1.572697  0  0.197615  0.580666  0  4.205346  0
C  C59  1  0.03635131  0.70271707  0.35768742  1  0  0.655176  0  3.892264  0  0  0.602869  0  4.201697  0  0  0.635574  0  4.19495  0  1.572571  0  0.197604  0.580577  0  4.20539  0
C  C60  1  0.84203054  0.98273818  0.16465571  1  0  -0.178079  0  3.702737  0  0  -0.193243  0  3.950406  0  0  -0.202413  0  3.972185  0  -0.080673  0  -0.085934  -0.187712  0  3.935615  0
C  C61  1  0.15796983  0.01726137  0.83534441  1  0  -0.178106  0  3.702711  0  0  -0.193297  0  3.950375  0  0  -0.202464  0  3.972149  0  -0.080688  0  -0.085962  -0.187766  0  3.935588  0
C  C62  1  0.38508612  0.50327588  0.89061010  1  0  -0.155135  0  3.756885  0  0  -0.177037  0  4.010736  0  0  -0.179731  0  4.029982  0  -0.002441  0  -0.107226  -0.175654  0  3.998791  0
C  C63  1  0.61491425  0.49672367  0.10939250  1  0  -0.155045  0  3.756737  0  0  -0.176942  0  4.010579  0  0  -0.179635  0  4.029827  0  -0.002552  0  -0.10719  -0.17556  0  3.998638  0
C  C64  1  0.55180833  0.38994661  0.99323496  1  0  -0.185284  0  3.809869  0  0  -0.2041  0  4.06259  0  0  -0.20739  0  4.081925  0  -0.047517  0  -0.113257  -0.201713  0  4.050712  0
C  C65  1  0.44819107  0.61005082  0.00676450  1  0  -0.185248  0  3.809956  0  0  -0.204055  0  4.062673  0  0  -0.207343  0  4.082008  0  -0.047634  0  -0.113238  -0.20167  0  4.050791  0
C  C66  1  0.94744938  0.05065589  0.29338944  1  0  0.140714  0  3.670177  0  0  0.108124  0  3.920152  0  0  0.116323  0  3.936607  0  0.39554  0  0.04803  0.103135  0  3.909629  0
C  C67  1  0.05255148  0.94934472  0.70661101  1  0  0.140722  0  3.670111  0  0  0.108144  0  3.920065  0  0  0.116345  0  3.936518  0  0.395553  0  0.048029  0.103147  0  3.909539  0
C  C68  1  0.97349545  0.27112028  0.27578905  1  0  0.127722  0  3.694648  0  0  0.097482  0  3.944649  0  0  0.105398  0  3.961795  0  0.452789  0  0.04701  0.092615  0  3.933629  0
C  C69  1  0.02650650  0.72888033  0.72421173  1  0  0.127672  0  3.694657  0  0  0.097419  0  3.944665  0  0  0.105336  0  3.961805  0  0.452782  0  0.046986  0.092555  0  3.933638  0
C  C70  1  0.79995827  0.06193923  0.08735801  1  0  0.152573  0  3.741307  0  0  0.167964  0  3.978849  0  0  0.173783  0  4.001296  0  0.003689  0  0.013755  0.164504  0  3.962803  0
C  C71  1  0.20004368  0.93806138  0.91264195  1  0  0.152561  0  3.741372  0  0  0.167992  0  3.97886  0  0  0.173813  0  4.001298  0  0.003694  0  0.013781  0.164531  0  3.962815  0
C  C72  1  0.48689115  0.49846316  0.63458628  1  0  0.129701  0  3.719601  0  0  0.094379  0  3.977916  0  0  0.102351  0  3.996293  0  0.446526  0  0.041886  0.089257  0  3.964838  0
C  C73  1  0.51310594  0.50153639  0.36541200  1  0  0.129768  0  3.719601  0  0  0.094421  0  3.977913  0  0  0.102391  0  3.996289  0  0.44656  0  0.041912  0.089299  0  3.964835  0
C  C74  1  0.83363853  0.23781475  0.68004374  1  0  -0.079553  0  3.624651  0  0  -0.133093  0  3.88513  0  0  -0.131088  0  3.885351  0  0.381385  0  -0.071789  -0.134515  0  3.884644  0
C  C75  1  0.16636075  0.76218480  0.31995522  1  0  -0.079431  0  3.624698  0  0  -0.132943  0  3.88512  0  0  -0.130945  0  3.885354  0  0.381381  0  -0.07175  -0.134367  0  3.884631  0
C  C76  1  0.60286136  0.63495978  0.68097858  1  0  -0.182173  0  3.704258  0  0  -0.198899  0  3.953279  0  0  -0.208238  0  3.975436  0  -0.016699  0  -0.087371  -0.19264  0  3.93805  0
C  C77  1  0.39713415  0.36503871  0.31902069  1  0  -0.182151  0  3.704155  0  0  -0.198845  0  3.953184  0  0  -0.208186  0  3.97534  0  -0.016716  0  -0.087321  -0.192587  0  3.937956  0
C  C78  1  0.68035031  0.89921111  0.73042653  1  0  -0.192495  0  3.680159  0  0  -0.231554  0  3.924741  0  0  -0.234192  0  3.935689  0  0.000915  0  -0.166814  -0.230002  0  3.917874  0
C  C79  1  0.31965007  0.10078844  0.26957276  1  0  -0.192555  0  3.680183  0  0  -0.231565  0  3.924733  0  0  -0.234205  0  3.935684  0  0.000887  0  -0.166762  -0.230012  0  3.91786  0
C  C80  1  0.86161537  0.51694281  0.93209326  1  0  -0.170049  0  3.794515  0  0  -0.190967  0  4.051973  0  0  -0.19376  0  4.070972  0  -0.02393  0  -0.111639  -0.189261  0  4.040607  0
C  C81  1  0.13838610  0.48305674  0.06791049  1  0  -0.170171  0  3.794285  0  0  -0.191097  0  4.051763  0  0  -0.193892  0  4.070768  0  -0.023882  0  -0.111667  -0.189392  0  4.0404  0
C  C82  1  0.69140794  0.99092393  0.94713468  1  0  -0.164367  0  3.700509  0  0  -0.206596  0  3.951107  0  0  -0.20796  0  3.962662  0  -0.004048  0  -0.159507  -0.205412  0  3.942485  0
C  C83  1  0.30859353  0.00907562  0.05286495  1  0  -0.164376  0  3.700534  0  0  -0.20663  0  3.951123  0  0  -0.207987  0  3.96268  0  -0.00406  0  -0.15952  -0.205446  0  3.942501  0
C  C84  1  0.86931648  0.20956030  0.14606223  1  0  -0.177465  0  3.702251  0  0  -0.19255  0  3.94357  0  0  -0.202165  0  3.966935  0  -0.093143  0  -0.085743  -0.186448  0  3.927881  0
C  C85  1  0.13068559  0.79043819  0.85393823  1  0  -0.177394  0  3.702376  0  0  -0.192508  0  3.943667  0  0  -0.202114  0  3.967041  0  -0.093154  0  -0.085718  -0.186404  0  3.927973  0
C  C86  1  0.78463307  0.96110055  0.87523213  1  0  -0.082696  0  3.667703  0  0  -0.123431  0  3.929788  0  0  -0.12493  0  3.945092  0  -0.038634  0  -0.157962  -0.122185  0  3.919126  0
C  C87  1  0.21536779  0.03890006  0.12476749  1  0  -0.082704  0  3.667687  0  0  -0.123439  0  3.929775  0  0  -0.124937  0  3.945077  0  -0.038631  0  -0.157959  -0.122192  0  3.919118  0
C  C88  1  0.28561428  0.58080268  0.59291576  1  0  0.141746  0  3.701386  0  0  0.108139  0  3.953187  0  0  0.11689  0  3.970277  0  0.456262  0  0.047631  0.102494  0  3.94162  0
C  C89  1  0.71438719  0.41919687  0.40708552  1  0  0.141784  0  3.70142  0  0  0.108177  0  3.953208  0  0  0.116925  0  3.970297  0  0.456682  0  0.047661  0.102534  0  3.941641  0
C  C90  1  0.36241693  0.10169738  0.61028714  1  0  0.672837  0  3.892989  0  0  0.623814  0  4.195607  0  0  0.656412  0  4.188317  0  1.62854  0  0.206987  0.601766  0  4.199538  0
C  C91  1  0.63758393  0.89830323  0.38971248  1  0  0.672883  0  3.892868  0  0  0.623819  0  4.195557  0  0  0.656417  0  4.188263  0  1.62854  0  0.206969  0.60177  0  4.199487  0
N  N92  1  0.01239523  0.19307121  0.34862097  1  0  -0.339711  0  3.284379  0  0  -0.257026  0  3.561265  0  0  -0.276543  0  3.575312  0  -1.234804  0  -0.330979  -0.244291  0  3.551567  0
N  N93  1  0.98760563  0.80692940  0.65137948  1  0  -0.33978  0  3.284381  0  0  -0.257075  0  3.561235  0  0  -0.276592  0  3.575281  0  -1.234772  0  -0.331002  -0.244339  0  3.551538  0
N  N94  1  0.32993562  0.47118015  0.59196644  1  0  -0.357865  0  3.348963  0  0  -0.270244  0  3.634524  0  0  -0.291364  0  3.648824  0  -1.274716  0  -0.340024  -0.255658  0  3.624002  0
N  N95  1  0.67006269  0.52881728  0.40803186  1  0  -0.357907  0  3.349013  0  0  -0.270239  0  3.634538  0  0  -0.291355  0  3.648838  0  -1.275071  0  -0.340031  -0.255653  0  3.624015  0
O  O96  1  0.37084267  0.29316788  0.76512165  1  0  -0.295914  0  2.456838  0  0  -0.21564  0  2.697829  0  0  -0.2345  0  2.701856  0  -1.106781  0  -0.184219  -0.202682  0  2.695099  0
O  O97  1  0.62915722  0.70683061  0.23487979  1  0  -0.295902  0  2.456863  0  0  -0.215632  0  2.697839  0  0  -0.234496  0  2.701869  0  -1.106802  0  -0.184204  -0.202673  0  2.69511  0
O  O98  1  0.79779318  0.34298793  0.74343766  1  0  -0.268501  0  2.333883  0  0  -0.204187  0  2.570839  0  0  -0.219865  0  2.572288  0  -1.084075  0  -0.189629  -0.1929  0  2.569259  0
O  O99  1  0.20220658  0.65701268  0.25656245  1  0  -0.268532  0  2.333915  0  0  -0.204231  0  2.570865  0  0  -0.219903  0  2.572317  0  -1.084191  0  -0.189635  -0.192941  0  2.569285  0
O  O100  1  0.01984884  0.20733986  0.61078779  1  0  -0.639513  0  2.061093  0  0  -0.563689  0  2.337255  0  0  -0.592792  0  2.322863  0  -1.169187  0  -0.32957  -0.542867  0  2.346774  0
O  O101  1  0.98014995  0.79265863  0.38921166  1  0  -0.639506  0  2.061029  0  0  -0.563693  0  2.337216  0  0  -0.592782  0  2.322794  0  -1.169316  0  -0.32959  -0.54287  0  2.34673  0
O  O102  1  0.27191896  0.13742569  0.52527011  1  0  -0.647085  0  2.074466  0  0  -0.568147  0  2.348737  0  0  -0.596939  0  2.334055  0  -1.188176  0  -0.331015  -0.5475  0  2.357501  0
O  O103  1  0.72808092  0.86257280  0.47472803  1  0  -0.647091  0  2.074476  0  0  -0.568122  0  2.348751  0  0  -0.596916  0  2.334073  0  -1.18817  0  -0.330975  -0.547476  0  2.357512  0
O  O104  1  0.00500931  0.42001682  0.63927708  1  0  -0.626669  0  1.957097  0  0  -0.579415  0  2.191426  0  0  -0.602982  0  2.182722  0  -1.191512  0  -0.318836  -0.562311  0  2.19692  0
O  O105  1  0.99498949  0.57998167  0.36072072  1  0  -0.626622  0  1.957134  0  0  -0.579388  0  2.191481  0  0  -0.602952  0  2.182782  0  -1.191509  0  -0.318827  -0.562285  0  2.196977  0
O  O106  1  0.39943520  0.99975529  0.58890031  1  0  -0.584242  0  1.95144  0  0  -0.538929  0  2.171769  0  0  -0.562498  0  2.164716  0  -1.170041  0  -0.305203  -0.522083  0  2.17592  0
O  O107  1  0.60056352  0.00024471  0.41109996  1  0  -0.584303  0  1.951367  0  0  -0.538968  0  2.171706  0  0  -0.562536  0  2.164654  0  -1.170126  0  -0.305233  -0.522122  0  2.175856  0
