# generated using pymatgen
data_Mn3P2H8(C3O5)2
_symmetry_space_group_name_H-M   'P 1'
_cell_length_a   8.20598330
_cell_length_b   9.17297068
_cell_length_c   9.35976907
_cell_angle_alpha   89.99999837
_cell_angle_beta   90.00004827
_cell_angle_gamma   104.70811493
_symmetry_Int_Tables_number   1
_chemical_formula_structural   Mn3P2H8(C3O5)2
_chemical_formula_sum   'Mn6 P4 H16 C12 O20'
_cell_volume   681.45367127
_cell_formula_units_Z   2
loop_
 _symmetry_equiv_pos_site_id
 _symmetry_equiv_pos_as_xyz
  1  'x, y, z'
loop_
 _atom_site_type_symbol
 _atom_site_label
 _atom_site_symmetry_multiplicity
 _atom_site_fract_x
 _atom_site_fract_y
 _atom_site_fract_z
 _atom_site_occupancy
 _atom_site_pbe_cm5_charge
 _atom_site_pbe_ddec_charge
 _atom_site_pbe_ddec_spin_density
 _atom_site_pbe_ddec_sum_bond_order
 _atom_site_pbe_magmom
Mn  Mn0  1  0.00000000  0.00000000  0.00000000  1  0.615217  1.159738  4.70957  2.25975  4.53
Mn  Mn1  1  0.00000014  0.50000001  0.49999951  1  0.615194  1.159744  4.709575  2.259694  4.53
Mn  Mn2  1  0.92732103  0.88709068  0.63410251  1  0.662615  1.067546  4.677759  2.191849  4.475
Mn  Mn3  1  0.92732068  0.38709300  0.86589777  1  0.662604  1.067513  4.677754  2.191847  4.475
Mn  Mn4  1  0.07267961  0.11290974  0.36589687  1  0.662627  1.06757  4.677765  2.191802  4.475
Mn  Mn5  1  0.07267938  0.61290968  0.13410268  1  0.662622  1.067524  4.677763  2.191844  4.475
P  P6  1  0.12190236  0.73187402  0.78636452  1  0.360273  1.326987  0.038574  5.269373  0.024
P  P7  1  0.12190519  0.23187517  0.71363731  1  0.360166  1.326692  0.038574  5.269554  0.024
P  P8  1  0.87809641  0.26812415  0.21363593  1  0.360186  1.326792  0.038575  5.269557  0.024
P  P9  1  0.87809666  0.76812525  0.28636315  1  0.360179  1.326766  0.038575  5.269498  0.024
H  H10  1  0.35826121  0.64703178  0.71045034  1  0.113004  0.154708  -6.1e-05  0.984697  0.001
H  H11  1  0.35826258  0.14703182  0.78954952  1  0.11301  0.154723  -6.1e-05  0.984681  0.001
H  H12  1  0.64174032  0.35296751  0.28954904  1  0.11301  0.154702  -6.1e-05  0.984694  0.001
H  H13  1  0.64173805  0.85296859  0.21045093  1  0.113  0.154702  -6.1e-05  0.98468  0.001
H  H14  1  0.36704115  0.83077591  0.65074374  1  0.114147  0.150402  8.1e-05  0.970414  0.001
H  H15  1  0.36704380  0.33077596  0.84925506  1  0.114154  0.150395  8.1e-05  0.970417  0.001
H  H16  1  0.63295705  0.16922451  0.34925564  1  0.114159  0.150404  8.1e-05  0.970406  0.001
H  H17  1  0.63295530  0.66922333  0.15074540  1  0.114148  0.150404  8.1e-05  0.970398  0.001
H  H18  1  0.43665984  0.74784498  0.96195016  1  0.107586  0.12537  0.000404  0.991642  0.001
H  H19  1  0.43666185  0.24784385  0.53804976  1  0.107591  0.125352  0.000404  0.991625  0.001
H  H20  1  0.56334112  0.25215656  0.03804922  1  0.107587  0.125375  0.000404  0.991615  0.001
H  H21  1  0.56333968  0.75215544  0.46195070  1  0.107582  0.125352  0.000404  0.991646  0.001
H  H22  1  0.42575902  0.92759960  0.90790929  1  0.1085  0.125094  0.000333  0.994116  0.001
H  H23  1  0.42576108  0.42759847  0.59208955  1  0.108457  0.12502  0.000333  0.994057  0.001
H  H24  1  0.57424194  0.07240195  0.09209009  1  0.108476  0.125056  0.000333  0.994019  0.001
H  H25  1  0.57423955  0.57240194  0.40790984  1  0.108459  0.125019  0.000333  0.994059  0.001
C  C26  1  0.34133823  0.75673419  0.74485823  1  -0.161977  -0.42946  0.003293  3.949634  0.004
C  C27  1  0.34133924  0.25673310  0.75514268  1  -0.161976  -0.42942  0.003293  3.949657  0.004
C  C28  1  0.65866240  0.24326623  0.25514115  1  -0.161968  -0.429384  0.003293  3.949596  0.004
C  C29  1  0.65866107  0.74326619  0.24485777  1  -0.161962  -0.429434  0.003293  3.949624  0.004
C  C30  1  0.45594201  0.82392909  0.86905151  1  -0.156962  -0.260407  0.003817  3.925558  0.003
C  C31  1  0.45594014  0.32392685  0.63095056  1  -0.156929  -0.260286  0.003817  3.925443  0.003
C  C32  1  0.54405894  0.17607246  0.13094894  1  -0.156941  -0.26038  0.003817  3.925389  0.003
C  C33  1  0.54406049  0.67607357  0.36904989  1  -0.156928  -0.260286  0.003817  3.925447  0.003
C  C34  1  0.64320192  0.86534668  0.83556998  1  0.234757  0.665549  0.021101  4.103716  0.02
C  C35  1  0.64319822  0.36534220  0.66442795  1  0.234762  0.66552  0.021102  4.103895  0.02
C  C36  1  0.35679904  0.13465486  0.16442833  1  0.234753  0.665528  0.021102  4.103765  0.02
C  C37  1  0.35679998  0.63465822  0.33557144  1  0.234771  0.665521  0.021102  4.103726  0.02
O  O38  1  0.09105762  0.88553849  0.82764010  1  -0.353329  -0.786185  0.09473  2.355464  0.062
O  O39  1  0.09106041  0.38553963  0.67235743  1  -0.353267  -0.786065  0.094724  2.35538  0.062
O  O40  1  0.90894147  0.11446080  0.17235822  1  -0.353261  -0.786082  0.094726  2.355459  0.062
O  O41  1  0.90894144  0.61446078  0.32764196  1  -0.353262  -0.78608  0.094725  2.355448  0.062
O  O42  1  0.01348590  0.68288099  0.65029809  1  -0.352332  -0.78584  0.102124  2.356706  0.065
O  O43  1  0.01348887  0.18288218  0.84970259  1  -0.352364  -0.785739  0.10212  2.356682  0.065
O  O44  1  0.98651319  0.31711830  0.34970130  1  -0.352364  -0.785803  0.102122  2.356683  0.065
O  O45  1  0.98651144  0.81711711  0.15029679  1  -0.352361  -0.785754  0.102122  2.356668  0.065
O  O46  1  0.07156904  0.61212350  0.90724142  1  -0.358406  -0.763384  0.098746  2.377638  0.059
O  O47  1  0.07156566  0.11212464  0.59276144  1  -0.358393  -0.763353  0.098745  2.377672  0.059
O  O48  1  0.92843460  0.38787466  0.09276010  1  -0.358404  -0.763378  0.098746  2.377652  0.059
O  O49  1  0.92843465  0.88787465  0.40724008  1  -0.358404  -0.763385  0.098746  2.377651  0.059
O  O50  1  0.74147649  0.90542105  0.93997003  1  -0.300887  -0.585869  0.047163  2.330415  0.03
O  O51  1  0.74147602  0.40541541  0.56003011  1  -0.300869  -0.585851  0.047162  2.330376  0.03
O  O52  1  0.25852292  0.09457937  0.06003042  1  -0.300885  -0.585877  0.047164  2.330483  0.03
O  O53  1  0.25852307  0.59458388  0.43997034  1  -0.30089  -0.585885  0.047163  2.330366  0.031
O  O54  1  0.68902584  0.85805798  0.70470459  1  -0.324569  -0.584377  0.057152  2.28194  0.034
O  O55  1  0.68902721  0.35805802  0.79529231  1  -0.324574  -0.584381  0.057152  2.282158  0.034
O  O56  1  0.31097358  0.14194244  0.29529479  1  -0.324564  -0.584377  0.057154  2.281964  0.034
O  O57  1  0.31097342  0.64194239  0.20470708  1  -0.324568  -0.584345  0.057151  2.282011  0.034
