# generated using pymatgen
data_Al3H24C42(Cl5O7)2
_symmetry_space_group_name_H-M   'P 1'
_cell_length_a   13.50522562
_cell_length_b   13.91420699
_cell_length_c   27.99802096
_cell_angle_alpha   88.99023222
_cell_angle_beta   88.89677185
_cell_angle_gamma   61.13924107
_symmetry_Int_Tables_number   1
_chemical_formula_structural   Al3H24C42(Cl5O7)2
_chemical_formula_sum   'Al6 H48 C84 Cl20 O28'
_cell_volume   4606.70171970
_cell_formula_units_Z   2
loop_
 _symmetry_equiv_pos_site_id
 _symmetry_equiv_pos_as_xyz
  1  'x, y, z'
loop_
 _atom_site_type_symbol
 _atom_site_label
 _atom_site_symmetry_multiplicity
 _atom_site_fract_x
 _atom_site_fract_y
 _atom_site_fract_z
 _atom_site_occupancy
 _atom_site_pbe_bader_charge
 _atom_site_pbe_bader_spin_density
 _atom_site_pbe_cm5_charge
 _atom_site_pbe_ddec_charge
 _atom_site_pbe_ddec_spin_density
 _atom_site_pbe_ddec_sum_bond_order
 _atom_site_pbe_magmom
Al  Al0  1  0.17498666  0.41413990  0.49799704  1  2.48995  0  0.398539  1.684614  0  2.55352  0
Al  Al1  1  0.94150336  0.64107761  0.50156994  1  2.481622  0  0.506921  1.658234  0  2.517849  0
Al  Al2  1  0.92889931  0.43156215  0.49941530  1  2.478629  0  0.509861  1.65779  0  2.510035  0
Al  Al3  1  0.15569913  0.90953985  0.99850555  1  2.489253  0  0.401611  1.682734  0  2.552226  0
Al  Al4  1  0.38287149  0.92937333  0.99867971  1  2.485646  0  0.506804  1.65851  0  2.518246  0
Al  Al5  1  0.40537136  0.70365512  0.99973807  1  2.482498  0  0.508603  1.657087  0  2.51257  0
H  H6  1  0.72527829  0.80997824  0.21663433  1  0.109635  0  0.116198  0.125814  0  0.959408  0
H  H7  1  0.34190888  0.07145803  0.30977521  1  0.088187  0  0.104074  0.118976  0  0.965403  0
H  H8  1  0.08380026  0.34080283  0.28348413  1  0.089709  0  0.099793  0.083589  0  0.98014  0
H  H9  1  0.04291512  0.10319560  0.22097543  1  0.080083  0  0.094706  0.11251  0  0.980859  0
H  H10  1  0.25879833  0.47598862  0.28090871  1  0.073902  0  0.103177  0.122272  0  0.967638  0
H  H11  1  0.21454673  0.76174355  0.28355503  1  0.048671  0  0.098075  0.112519  0  0.983541  0
H  H12  1  0.31566957  0.62596224  0.30034402  1  0.04819  0  0.103442  0.117678  0  0.965501  0
H  H13  1  0.34772351  0.56316714  0.22105915  1  0.1082  0  0.104168  0.084764  0  0.975851  0
H  H14  1  0.11466606  0.51028918  0.28298410  1  0.043485  0  0.092548  0.108321  0  1.000607  0
H  H15  1  0.09163437  0.55015140  0.20065146  1  0.08186  0  0.102977  0.082406  0  0.978195  0
H  H16  1  0.82998846  0.51149199  0.73925290  1  0.117416  0  0.090641  0.109991  0  1.030454  0
H  H17  1  0.67980437  0.53621996  0.79411786  1  0.110001  0  0.104365  0.10547  0  0.992259  0
H  H18  1  0.61739154  0.87063117  0.78897148  1  0.083325  0  0.110758  0.149719  0  0.946274  0
H  H19  1  0.81766828  0.70223011  0.79492710  1  0.112639  0  0.105946  0.091308  0  0.982448  0
H  H20  1  0.51212941  0.83771657  0.77091874  1  0.124646  0  0.087863  0.117084  0  1.057285  0
H  H21  1  0.25819814  0.00757486  0.69458831  1  0.073617  0  0.101081  0.124347  0  0.973917  0
H  H22  1  0.32272142  0.09152510  0.69861200  1  0.086727  0  0.098571  0.121125  0  0.989742  0
H  H23  1  0.54234430  0.61972130  0.29673206  1  0.084317  0  0.113845  0.123215  0  0.963184  0
H  H24  1  0.06815801  0.07310684  0.70949363  1  0.127346  0  0.113053  0.11657  0  0.959121  0
H  H25  1  0.04502160  0.35169576  0.72072851  1  0.084804  0  0.104765  0.095779  0  0.973033  0
H  H26  1  0.08260953  0.32719972  0.79946741  1  0.126876  0  0.096999  0.088324  0  1.024574  0
H  H27  1  0.99249663  0.66905183  0.72307775  1  0.041522  0  0.078398  0.073192  0  1.048609  0
H  H28  1  0.05167473  0.81372878  0.71708745  1  0.042722  0  0.089801  0.091613  0  0.978931  0
H  H29  1  0.12160363  0.82118329  0.79279876  1  0.02908  0  0.083956  0.091484  0  1.015833  0
H  H30  1  0.30769757  0.47497617  0.70367573  1  0.012225  0  0.087294  0.094389  0  1.002004  0
H  H31  1  0.34287452  0.58165543  0.70562036  1  0.03188  0  0.08334  0.086362  0  1.009931  0
H  H32  1  0.29019675  0.46811611  0.78740001  1  0.015424  0  0.083257  0.085877  0  1.013324  0
H  H33  1  0.09853196  0.53035154  0.73039381  1  0.06612  0  0.078626  0.079304  0  1.036938  0
H  H34  1  0.08625360  0.56986184  0.81220174  1  0.035216  0  0.087336  0.087612  0  1.002942  0
H  H35  1  0.37465609  0.53336899  0.78697543  1  0.027893  0  0.082018  0.086209  0  1.031017  0
H  H36  1  0.17183418  0.97880183  0.22106658  1  0.07303  0  0.083901  0.087466  0  1.038504  0
H  H37  1  0.20408421  0.99423998  0.30299722  1  0.03843  0  0.093277  0.097769  0  0.973435  0
H  H38  1  0.29663794  0.20290315  0.28435755  1  0.063664  0  0.100313  0.117041  0  0.976207  0
H  H39  1  0.34435043  0.99225861  0.23531110  1  0.045146  0  0.100574  0.076635  0  0.995857  0
H  H40  1  0.05647841  0.08382262  0.30475016  1  0.07375  0  0.096763  0.110521  0  0.984542  0
H  H41  1  0.18113354  0.28252090  0.21240119  1  0.10028  0  0.093507  0.07758  0  1.024338  0
H  H42  1  0.57718744  0.89054773  0.29639595  1  0.081849  0  0.111224  0.109546  0  0.973399  0
H  H43  1  0.96681914  0.72261925  0.27189483  1  0.058512  0  0.088506  0.099836  0  1.021247  0
H  H44  1  0.01332143  0.81978188  0.28157909  1  0.05496  0  0.101208  0.120771  0  0.974742  0
H  H45  1  0.99574507  0.73424304  0.19076616  1  0.062926  0  0.107026  0.08377  0  0.959461  0
H  H46  1  0.87973518  0.60405411  0.72240571  1  0.110197  0  0.101428  0.126375  0  1.003713  0
H  H47  1  0.33363629  0.06985787  0.78021252  1  0.096171  0  0.101555  0.089107  0  0.991319  0
H  H48  1  0.01176542  0.71333377  0.80188227  1  0.03467  0  0.090955  0.093702  0  0.977002  0
H  H49  1  0.18864239  0.78128580  0.69617047  1  0.011644  0  0.089026  0.091219  0  0.982995  0
H  H50  1  0.42804523  0.82781387  0.25257407  1  0.107181  0  0.093912  0.088014  0  1.039744  0
H  H51  1  0.26345198  0.74728124  0.77316796  1  0.036861  0  0.074521  0.078893  0  1.049386  0
H  H52  1  0.36173878  0.32903512  0.52504085  1  0.571725  0  0.294267  0.386281  0  0.918069  0
H  H53  1  0.97104717  0.97302131  0.02762742  1  0.585569  0  0.294789  0.388518  0  0.915151  0
C  C54  1  0.10083218  0.60758754  0.43112487  1  1.679719  0  0.280885  0.714258  0  4.16578  0
C  C55  1  0.73747851  0.64717376  0.39279378  1  0.184546  0  -0.034593  -0.195249  0  3.940445  0
C  C56  1  0.51973865  0.77877795  0.25474282  1  -0.033098  0  -0.070628  -0.071003  0  3.636458  0
C  C57  1  0.60159417  0.73498483  0.20929454  1  0.125122  0  0.008111  0.088704  0  3.784652  0
C  C58  1  0.58197838  0.66316398  0.27892156  1  -0.013634  0  -0.068213  -0.10838  0  3.631151  0
C  C59  1  0.66435179  0.69651185  0.30448283  1  0.090455  0  0.010214  0.091365  0  3.779299  0
C  C60  1  0.66411994  0.61819319  0.23518577  1  0.170566  0  0.025094  0.080202  0  3.744484  0
C  C61  1  0.74667027  0.65299951  0.25881656  1  0.136601  0  0.030719  0.092272  0  3.699625  0
C  C62  1  0.57277653  0.74969525  0.16038538  1  -0.385007  0  -0.019822  -0.012976  0  4.052652  0
C  C63  1  0.70164033  0.67189232  0.35224303  1  -0.388741  0  -0.014386  -0.006311  0  4.049242  0
C  C64  1  0.13586007  0.07046911  0.28784326  1  -0.043253  0  -0.160736  -0.196807  0  3.867767  0
C  C65  1  0.79491461  0.61384541  0.43770841  1  1.637705  0  0.28546  0.722054  0  4.144785  0
C  C66  1  0.28289653  0.13126243  0.28410535  1  -0.050706  0  -0.155879  -0.253292  0  3.860972  0
C  C67  1  0.30455630  0.08194643  0.23375715  1  0.120211  0  -0.041614  0.060951  0  3.770838  0
C  C68  1  0.20725947  0.07526671  0.11582511  1  0.116731  0  -0.037144  -0.186197  0  3.938764  0
C  C69  1  0.15952281  0.16552782  0.29998069  1  0.123057  0  0.002205  0.146909  0  3.884033  0
C  C70  1  0.13073028  0.06417043  0.23311184  1  -0.078471  0  -0.162986  -0.202392  0  3.854175  0
C  C71  1  0.18959522  0.12404749  0.20795294  1  0.134791  0  -0.003628  0.101816  0  3.877515  0
C  C72  1  0.12208831  0.24966639  0.21726137  1  0.108778  0  -0.048166  0.006715  0  3.772297  0
C  C73  1  0.07987233  0.26926010  0.26989822  1  0.10811  0  -0.042481  0.014628  0  3.745922  0
C  C74  1  0.20270780  0.09929002  0.15754209  1  -0.37043  0  -0.026823  -0.019552  0  4.048177  0
C  C75  1  0.14015876  0.19727982  0.34977258  1  -0.414208  0  -0.019942  -0.021618  0  4.00862  0
C  C76  1  0.08941505  0.29921026  0.43276898  1  1.638856  0  0.280427  0.713558  0  4.156977  0
C  C77  1  0.11820335  0.23637917  0.38950428  1  0.178375  0  -0.041311  -0.197615  0  3.950855  0
C  C78  1  0.17416353  0.53676496  0.26897272  1  -0.052349  0  -0.158286  -0.253521  0  3.840604  0
C  C79  1  0.24302407  0.67451943  0.27728717  1  -0.013916  0  -0.156334  -0.254049  0  3.864769  0
C  C80  1  0.27657008  0.64652800  0.22471674  1  0.091145  0  -0.040579  0.065613  0  3.757496  0
C  C81  1  0.21511968  0.66519171  0.10466658  1  0.259737  0  -0.033133  -0.173894  0  3.93271  0
C  C82  1  0.14461732  0.65052727  0.28964236  1  0.150301  0  0.004071  0.198557  0  3.885622  0
C  C83  1  0.17044047  0.54374297  0.21408584  1  0.124174  0  -0.039577  0.061095  0  3.761056  0
C  C84  1  0.17682451  0.64819470  0.19670975  1  0.118408  0  -0.002213  0.054875  0  3.871676  0
C  C85  1  0.05843119  0.74416105  0.21138317  1  0.114097  0  -0.039  0.065808  0  3.752138  0
C  C86  1  0.03693627  0.74020082  0.26550236  1  -0.017684  0  -0.16225  -0.257758  0  3.850576  0
C  C87  1  0.10536650  0.60213149  0.56757839  1  1.628161  0  0.277185  0.726236  0  4.150989  0
C  C88  1  0.19619463  0.65042995  0.14587412  1  -0.424427  0  -0.034182  -0.041744  0  4.082029  0
C  C89  1  0.12927769  0.64748384  0.34082363  1  -0.506738  0  -0.017328  -0.018961  0  3.994715  0
C  C90  1  0.11902862  0.63647058  0.38343315  1  0.233391  0  -0.041431  -0.204511  0  3.958646  0
C  C91  1  0.80912548  0.59811064  0.73918188  1  -0.08454  0  -0.16663  -0.251736  0  3.837517  0
C  C92  1  0.61613292  0.62063326  0.72692637  1  0.22211  0  0.063708  0.180866  0  3.706321  0
C  C93  1  0.61730215  0.61930101  0.78295819  1  0.150622  0  -0.05184  -0.051872  0  3.776485  0
C  C94  1  0.60134429  0.73716508  0.89321994  1  0.375282  0  -0.028101  -0.178145  0  3.911338  0
C  C95  1  0.70034712  0.66319698  0.70842453  1  0.124715  0  0.001193  0.048391  0  3.824531  0
C  C96  1  0.78815479  0.64222883  0.79048056  1  0.079167  0  -0.043809  0.051165  0  3.76454  0
C  C97  1  0.65891838  0.69923162  0.80127030  1  0.126066  0  -4.5e-05  0.126265  0  3.858736  0
C  C98  1  0.80555226  0.59689898  0.56898609  1  1.694979  0  0.28908  0.726035  0  4.131394  0
C  C99  1  0.60365661  0.80795020  0.77178546  1  -0.047299  0  -0.165582  -0.303363  0  3.840007  0
C  C100  1  0.65125619  0.78887264  0.72049249  1  0.229638  0  0.069132  0.235658  0  3.6952  0
C  C101  1  0.63177238  0.72095325  0.85166875  1  -0.547251  0  -0.020067  -0.014819  0  4.013643  0
C  C102  1  0.72835795  0.64124773  0.65814213  1  -0.079941  0  -0.028494  -0.017125  0  4.055912  0
C  C103  1  0.75705726  0.62177688  0.61649852  1  -0.121743  0  -0.023983  -0.162909  0  3.888856  0
C  C104  1  0.13131271  0.28388834  0.72525443  1  0.111842  0  -0.044347  0.000928  0  3.743519  0
C  C105  1  0.25307727  0.07930789  0.71248753  1  -0.038948  0  -0.162174  -0.256605  0  3.857588  0
C  C106  1  0.26309853  0.06056226  0.76687529  1  0.112677  0  -0.046852  0.063037  0  3.749419  0
C  C107  1  0.18789771  0.10048270  0.88605264  1  -0.063057  0  -0.022185  -0.149441  0  3.911179  0
C  C108  1  0.13950040  0.18101999  0.70019694  1  0.144272  0  -0.003722  0.12299  0  3.889948  0
C  C109  1  0.09188638  0.29163012  0.56336316  1  1.664287  0  0.280025  0.715996  0  4.149756  0
C  C110  1  0.15297718  0.26168590  0.77996647  1  0.103992  0  -0.04841  0.004165  0  3.744806  0
C  C111  1  0.15652528  0.14996869  0.79366506  1  0.115428  0  -0.003619  0.039568  0  3.85668  0
C  C112  1  0.04228624  0.15832229  0.77575620  1  0.198354  0  0.063269  0.17965  0  3.713884  0
C  C113  1  0.04480559  0.15691926  0.72007050  1  0.157811  0  -0.049854  -0.047942  0  3.795154  0
C  C114  1  0.16935799  0.12896274  0.84456172  1  -0.139287  0  -0.042726  -0.05299  0  4.104912  0
C  C115  1  0.12779691  0.20167612  0.64918759  1  0.081567  0  -0.032069  -0.035332  0  4.048671  0
C  C116  1  0.11461980  0.23060225  0.60762066  1  -0.322969  0  -0.034398  -0.176225  0  3.926905  0
C  C117  1  0.07799140  0.61571045  0.73653706  1  -0.077458  0  -0.161343  -0.18601  0  3.834046  0
C  C118  1  0.14208261  0.75461899  0.72081004  1  -0.020825  0  -0.15587  -0.183979  0  3.86103  0
C  C119  1  0.18142384  0.74904659  0.77251723  1  -0.004187  0  -0.162916  -0.195808  0  3.849569  0
C  C120  1  0.60164323  0.81281728  0.27867130  1  -0.010902  0  -0.06527  -0.06661  0  3.614532  0
C  C121  1  0.23132453  0.67610755  0.88793871  1  -0.091505  0  -0.054348  -0.22845  0  3.966276  0
C  C122  1  0.16240166  0.63941469  0.70677252  1  0.142619  0  9.7e-05  0.167984  0  3.887882  0
C  C123  1  0.08511379  0.63646737  0.79014759  1  -0.025191  0  -0.156438  -0.188726  0  3.846161  0
C  C124  1  0.19424604  0.64373646  0.79827795  1  0.121506  0  1.7e-05  0.173952  0  3.878674  0
C  C125  1  0.29394342  0.54179650  0.77513249  1  0.037938  0  -0.161756  -0.18942  0  3.844465  0
C  C126  1  0.28486619  0.55382376  0.72036559  1  -0.004517  0  -0.158282  -0.185954  0  3.840844  0
C  C127  1  0.21359824  0.65489790  0.84810245  1  -0.191843  0  -0.01015  -0.000854  0  3.982576  0
C  C128  1  0.14381471  0.63388218  0.65643165  1  -0.490455  0  -0.00842  0.001576  0  4.003287  0
C  C129  1  0.12900512  0.62519657  0.61438624  1  0.229005  0  -0.057812  -0.238597  0  3.981215  0
C  C130  1  0.22108878  0.03501137  0.06789537  1  1.688271  0  0.279593  0.718344  0  4.147161  0
C  C131  1  0.68392065  0.76855035  0.23480896  1  -0.036448  0  -0.066581  -0.108735  0  3.625485  0
C  C132  1  0.51285025  0.76821432  0.06959423  1  1.644236  0  0.284327  0.721658  0  4.14358  0
C  C133  1  0.24161226  0.70612193  0.06145196  1  1.64723  0  0.282686  0.719512  0  4.145757  0
C  C134  1  0.21816749  0.04506021  0.93175822  1  1.690254  0  0.285203  0.710116  0  4.151827  0
C  C135  1  0.54118174  0.76150614  0.93828026  1  1.656019  0  0.292343  0.727887  0  4.12978  0
C  C136  1  0.25300182  0.71591471  0.93134648  1  1.643136  0  0.276828  0.7205  0  4.151995  0
C  C137  1  0.55211847  0.75453801  0.11792142  1  0.147656  0  -0.032216  -0.185447  0  3.92961  0
Cl  Cl138  1  0.40412292  0.10951390  0.20145621  1  -0.247178  0  -0.048461  -0.129816  0  1.367944  0
Cl  Cl139  1  0.93627567  0.30010710  0.27883941  1  -0.226281  0  -0.038869  -0.12372  0  1.535674  0
Cl  Cl140  1  0.01369056  0.32402012  0.17540922  1  -0.216844  0  -0.041856  -0.108096  0  1.486027  0
Cl  Cl141  1  0.28015875  0.41999248  0.18865089  1  -0.232809  0  -0.027732  -0.113517  0  1.422246  0
Cl  Cl142  1  0.32995049  0.73182264  0.19927631  1  -0.244701  0  -0.017476  -0.10592  0  1.498592  0
Cl  Cl143  1  0.89227035  0.57335049  0.26108710  1  -0.195926  0  0.007813  -0.079838  0  1.608081  0
Cl  Cl144  1  0.04001911  0.87583831  0.19304643  1  -0.238067  0  -0.032189  -0.110409  0  1.408637  0
Cl  Cl145  1  0.86778519  0.53447629  0.83223483  1  -0.231194  0  -0.017323  -0.0858  0  1.445449  0
Cl  Cl146  1  0.47933151  0.69814844  0.70257269  1  -0.169798  0  -0.001719  -0.082605  0  1.636542  0
Cl  Cl147  1  0.66782528  0.48188480  0.70782339  1  -0.175103  0  -0.010303  -0.084536  0  1.503308  0
Cl  Cl148  1  0.48880368  0.64059609  0.80967067  1  -0.19043  0  0.012878  -0.038204  0  1.606669  0
Cl  Cl149  1  0.76505662  0.82279753  0.71495623  1  -0.204813  0  -0.005365  -0.101007  0  1.436798  0
Cl  Cl150  1  0.54779963  0.88010852  0.67949481  1  -0.177683  0  -0.013588  -0.089059  0  1.495337  0
Cl  Cl151  1  0.70271913  0.49567848  0.20731179  1  -0.173954  0  -0.0085  -0.067446  0  1.492536  0
Cl  Cl152  1  0.27534336  0.26350897  0.80151746  1  -0.208622  0  -0.009125  -0.076984  0  1.484018  0
Cl  Cl153  1  0.22078797  0.32738491  0.69572232  1  -0.207021  0  0.00516  -0.065672  0  1.54675  0
Cl  Cl154  1  0.29801382  0.92313915  0.78302744  1  -0.23435  0  -0.014029  -0.10461  0  1.6116  0
Cl  Cl155  1  0.91167019  0.24115010  0.69379479  1  -0.202154  0  -0.030267  -0.082363  0  1.548621  0
Cl  Cl156  1  0.92779311  0.28098161  0.79978348  1  -0.176039  0  -0.011252  -0.101428  0  1.615857  0
Cl  Cl157  1  0.02236757  0.04773136  0.79749104  1  -0.163121  0  0.003766  -0.066726  0  1.49983  0
O  O158  1  0.16273460  0.32080637  0.44910984  1  -1.206999  0  -0.200929  -0.53713  0  2.2838  0
O  O159  1  0.83005182  0.66688230  0.54992065  1  -1.240792  0  -0.221069  -0.577911  0  2.248599  0
O  O160  1  0.82470760  0.50591288  0.55066551  1  -1.240094  0  -0.22343  -0.580637  0  2.227536  0
O  O161  1  0.99721220  0.31667832  0.54323778  1  -1.250412  0  -0.239871  -0.601093  0  2.23217  0
O  O162  1  0.01284771  0.49651791  0.49984360  1  -1.612094  0  -0.391144  -1.274688  0  2.296557  0
O  O163  1  0.16800973  0.79977757  0.04727523  1  -1.220141  0  -0.206349  -0.563343  0  2.305202  0
O  O164  1  0.15718635  0.99867577  0.05424677  1  -1.211749  0  -0.206807  -0.552349  0  2.275188  0
O  O165  1  0.30251584  0.03613784  0.04311971  1  -1.256745  0  -0.24475  -0.611244  0  2.225715  0
O  O166  1  0.48890117  0.85920042  0.04869787  1  -1.243316  0  -0.225917  -0.587748  0  2.248004  0
O  O167  1  0.50074293  0.69048073  0.05182360  1  -1.235867  0  -0.225202  -0.582489  0  2.236714  0
O  O168  1  0.34032154  0.64654803  0.04274894  1  -1.256388  0  -0.236298  -0.593253  0  2.228645  0
O  O169  1  0.16940370  0.51246101  0.44575190  1  -1.216994  0  -0.20084  -0.538621  0  2.284397  0
O  O170  1  0.17577985  0.80604282  0.94723483  1  -1.217305  0  -0.207718  -0.551461  0  2.272211  0
O  O171  1  0.15257493  0.01302872  0.94941937  1  -1.202465  0  -0.192146  -0.521689  0  2.280131  0
O  O172  1  0.31288531  0.02896831  0.94891071  1  -1.256774  0  -0.237519  -0.597177  0  2.233167  0
O  O173  1  0.50395452  0.85843790  0.95435631  1  -1.235701  0  -0.220691  -0.576556  0  2.24002  0
O  O174  1  0.52427326  0.68623513  0.95701817  1  -1.240722  0  -0.218261  -0.57498  0  2.236832  0
O  O175  1  0.35218012  0.65719517  0.94951328  1  -1.261209  0  -0.245795  -0.616066  0  2.241067  0
O  O176  1  0.31679072  0.84684590  0.99873332  1  -1.615905  0  -0.390862  -1.275363  0  2.301818  0
O  O177  1  0.01286590  0.67996234  0.45370029  1  -1.260095  0  -0.241864  -0.605069  0  2.236772  0
O  O178  1  0.82615453  0.67854485  0.45584562  1  -1.236375  0  -0.224087  -0.583441  0  2.24747  0
O  O179  1  0.81462626  0.52076957  0.45524592  1  -1.240358  0  -0.22343  -0.584084  0  2.23915  0
O  O180  1  0.98885519  0.33153318  0.44987752  1  -1.247682  0  -0.240999  -0.604267  0  2.23285  0
O  O181  1  0.16358242  0.31997284  0.54975949  1  -1.211696  0  -0.205115  -0.555198  0  2.297473  0
O  O182  1  0.17353369  0.51073773  0.54936411  1  -1.235259  0  -0.213573  -0.575387  0  2.290985  0
O  O183  1  0.01271248  0.67594499  0.54837298  1  -1.25726  0  -0.24562  -0.610842  0  2.227985  0
O  O184  1  0.32271503  0.33943729  0.49523382  1  -1.351935  0  -0.57602  -0.994303  0  1.792093  0
O  O185  1  0.00809340  0.97343222  0.99779882  1  -1.364137  0  -0.57432  -0.994627  0  1.789029  0
