# generated using pymatgen
data_NiH24C34(NO3)2
_symmetry_space_group_name_H-M   'P 1'
_cell_length_a   11.23086370
_cell_length_b   14.95052136
_cell_length_c   16.83127587
_cell_angle_alpha   89.99995169
_cell_angle_beta   89.99997368
_cell_angle_gamma   104.55720884
_symmetry_Int_Tables_number   1
_chemical_formula_structural   NiH24C34(NO3)2
_chemical_formula_sum   'Ni4 H96 C136 N8 O24'
_cell_volume   2735.36790711
_cell_formula_units_Z   4
loop_
 _symmetry_equiv_pos_site_id
 _symmetry_equiv_pos_as_xyz
  1  'x, y, z'
loop_
 _atom_site_type_symbol
 _atom_site_label
 _atom_site_symmetry_multiplicity
 _atom_site_fract_x
 _atom_site_fract_y
 _atom_site_fract_z
 _atom_site_occupancy
 _atom_site_pbe_bader_charge
 _atom_site_pbe_bader_spin_density
 _atom_site_pbe_cm5_charge
 _atom_site_pbe_ddec_charge
 _atom_site_pbe_ddec_spin_density
 _atom_site_pbe_ddec_sum_bond_order
 _atom_site_pbe_magmom
Ni  Ni0  1  0.01679790  0.86949338  0.03841684  1  1.18285  1.565237  0.655652  0.777117  1.771622  2.466105  1.55
Ni  Ni1  1  0.98320065  0.63050712  0.53841750  1  1.182751  1.565238  0.655682  0.777161  1.771625  2.46603  1.55
Ni  Ni2  1  0.98320012  0.13050661  0.96158228  1  1.182846  1.565238  0.655671  0.777133  1.771624  2.466084  1.55
Ni  Ni3  1  0.01679848  0.36949356  0.46158281  1  1.182849  1.565236  0.655675  0.77716  1.771622  2.466014  1.55
H  H4  1  0.98789699  0.33908618  0.02113359  1  0.676937  0.000277  0.306437  0.370636  0.000302  0.973283  0.0
H  H5  1  0.01210409  0.16091520  0.52113452  1  0.676939  0.000277  0.306438  0.370613  0.000302  0.973318  0.0
H  H6  1  0.01210303  0.66091450  0.97886553  1  0.676936  0.000277  0.30642  0.370584  0.000302  0.973354  0.0
H  H7  1  0.98789705  0.83908618  0.47886638  1  0.676931  0.000277  0.306441  0.370636  0.000302  0.973296  0.0
H  H8  1  0.84246204  0.92654073  0.15196780  1  0.123249  0.001955  0.116982  0.083085  0.000651  1.028672  0.001
H  H9  1  0.15753684  0.57345825  0.65196638  1  0.123261  0.001955  0.116995  0.083132  0.000651  1.028649  0.001
H  H10  1  0.15753754  0.07345857  0.84803370  1  0.12327  0.001955  0.116972  0.083108  0.000651  1.028731  0.001
H  H11  1  0.84246252  0.42654036  0.34803334  1  0.123259  0.001955  0.116993  0.083098  0.000651  1.028694  0.001
H  H12  1  0.79815971  0.78536534  0.93807404  1  0.145448  0.001807  0.123472  0.099945  0.000621  0.995214  0.001
H  H13  1  0.20183818  0.71463400  0.43807285  1  0.145425  0.001807  0.12349  0.099991  0.000621  0.995116  0.001
H  H14  1  0.20183741  0.21463464  0.06192686  1  0.145427  0.001807  0.123491  0.099993  0.000621  0.995101  0.001
H  H15  1  0.79816005  0.28536392  0.56192627  1  0.145435  0.001807  0.123469  0.099976  0.000621  0.995185  0.001
H  H16  1  0.62901386  0.93950192  0.15153946  1  0.084994  0.001272  0.108253  0.11329  0.00059  1.017458  0.0
H  H17  1  0.37098479  0.56049638  0.65153739  1  0.085018  0.001272  0.10828  0.113331  0.00059  1.01742  0.0
H  H18  1  0.37098505  0.06049807  0.84846323  1  0.085062  0.001272  0.108302  0.113349  0.00059  1.017426  0.0
H  H19  1  0.62901546  0.43950224  0.34846174  1  0.085028  0.001272  0.108281  0.113325  0.00059  1.01744  0.0
H  H20  1  0.58099355  0.78960743  0.92833150  1  0.101325  0.001042  0.106548  0.113193  0.000485  1.041492  0.0
H  H21  1  0.41900548  0.71039262  0.42832965  1  0.101313  0.001042  0.10653  0.113195  0.000485  1.041513  0.0
H  H22  1  0.41900380  0.21039324  0.07167119  1  0.101306  0.001042  0.106497  0.113167  0.000485  1.0415  0.0
H  H23  1  0.58099410  0.28960668  0.57167007  1  0.101296  0.001042  0.106548  0.113199  0.000485  1.041476  0.0
H  H24  1  0.45363643  0.94210035  0.15052946  1  0.091597  0.001222  0.106588  0.110718  0.000574  1.028143  0.0
H  H25  1  0.54636044  0.55789794  0.65052853  1  0.091609  0.001222  0.106585  0.110689  0.000574  1.028149  0.0
H  H26  1  0.54636092  0.05789756  0.84947263  1  0.091613  0.001222  0.106589  0.110732  0.000574  1.028162  0.0
H  H27  1  0.45363825  0.44210136  0.34947179  1  0.091607  0.001222  0.106593  0.110719  0.000574  1.028156  0.0
H  H28  1  0.40703333  0.80441562  0.92140334  1  0.099154  0.001044  0.104593  0.109355  0.000492  1.052182  0.0
H  H29  1  0.59296592  0.69558237  0.42140264  1  0.099127  0.001044  0.104588  0.109347  0.000492  1.052175  0.0
H  H30  1  0.59296624  0.19558368  0.07859816  1  0.099126  0.001044  0.104611  0.109358  0.000492  1.052212  0.0
H  H31  1  0.40703344  0.30441624  0.57859708  1  0.099138  0.001044  0.104596  0.109348  0.000492  1.05226  0.0
H  H32  1  0.23454646  0.94329992  0.14331554  1  0.092402  0.001954  0.122449  0.09998  0.000707  0.995225  0.001
H  H33  1  0.76545153  0.55669907  0.64331573  1  0.092632  0.001953  0.122446  0.100002  0.000707  0.99522  0.001
H  H34  1  0.76545178  0.05670075  0.85668417  1  0.092658  0.001953  0.122466  0.099991  0.000707  0.995253  0.001
H  H35  1  0.23454716  0.44330023  0.35668518  1  0.092657  0.001954  0.122446  0.099982  0.000707  0.995249  0.001
H  H36  1  0.18984096  0.81056883  0.92600552  1  0.131628  0.001754  0.118744  0.094509  0.000619  1.020142  0.001
H  H37  1  0.81015874  0.68943054  0.42600535  1  0.131633  0.001754  0.118759  0.094513  0.000619  1.020136  0.001
H  H38  1  0.81015885  0.18943117  0.07399479  1  0.131619  0.001754  0.118751  0.094504  0.000619  1.020147  0.001
H  H39  1  0.18984174  0.31056877  0.57399496  1  0.131621  0.001754  0.118749  0.094491  0.00062  1.020152  0.001
H  H40  1  0.00940051  0.55951454  0.06242643  1  0.091281  0.0003  0.109108  0.107587  0.000204  1.072805  0.0
H  H41  1  0.99060292  0.94048734  0.56242685  1  0.091269  0.0003  0.109075  0.107539  0.000204  1.07294  0.0
H  H42  1  0.99060153  0.44048685  0.93757269  1  0.091295  0.0003  0.109069  0.107524  0.000204  1.072938  0.0
H  H43  1  0.00940157  0.05951613  0.43757346  1  0.091286  0.0003  0.109089  0.107579  0.000204  1.072853  0.0
H  H44  1  0.00580893  0.70435534  0.28398058  1  0.129227  0.000601  0.110573  0.119461  0.000447  1.037712  0.0
H  H45  1  0.99419427  0.79564628  0.78397993  1  0.12893  0.000601  0.110596  0.119488  0.000447  1.037806  0.0
H  H46  1  0.99419423  0.29564675  0.71602032  1  0.128931  0.000601  0.110618  0.11948  0.000447  1.037819  0.0
H  H47  1  0.00581067  0.20435581  0.21601920  1  0.129329  0.000601  0.110563  0.119464  0.000447  1.037722  0.0
H  H48  1  0.04979548  0.42629940  0.28245138  1  0.172298  -8e-06  0.112747  0.127871  -0.000158  1.064345  0.0
H  H49  1  0.95020644  0.07370237  0.78245150  1  0.172282  -8e-06  0.112752  0.127883  -0.000158  1.064346  0.0
H  H50  1  0.95020566  0.57370198  0.71754774  1  0.172243  -8e-06  0.112746  0.12786  -0.000158  1.064359  0.0
H  H51  1  0.04979516  0.92630039  0.21754881  1  0.172311  -8e-06  0.11276  0.12788  -0.000158  1.06435  0.0
H  H52  1  0.43833040  0.55945508  0.85044803  1  0.053074  2e-06  0.094374  0.095312  -1e-06  1.049625  0.0
H  H53  1  0.56166715  0.94054299  0.35044834  1  0.053114  2e-06  0.094383  0.095315  -1e-06  1.04964  0.0
H  H54  1  0.56166807  0.44054353  0.14955050  1  0.053095  2e-06  0.094357  0.095297  -1e-06  1.049652  0.0
H  H55  1  0.43833243  0.05945632  0.64955079  1  0.053094  2e-06  0.094374  0.095345  -1e-06  1.049601  0.0
H  H56  1  0.66578704  0.58824210  0.83359245  1  0.091451  7e-06  0.098978  0.102882  2e-06  1.012537  0.0
H  H57  1  0.33421074  0.91175668  0.33359226  1  0.09095  7e-06  0.098986  0.10288  2e-06  1.012573  0.0
H  H58  1  0.33421075  0.41175720  0.16640607  1  0.091437  7e-06  0.098988  0.102871  2e-06  1.012666  0.0
H  H59  1  0.66578973  0.08824263  0.66640508  1  0.09148  7e-06  0.098987  0.102874  2e-06  1.012595  0.0
H  H60  1  0.24740686  0.61008816  0.83183566  1  0.080691  9e-06  0.097392  0.101334  -1e-06  1.018371  0.0
H  H61  1  0.75259115  0.88991131  0.33183536  1  0.080704  9e-06  0.097381  0.1013  -1e-06  1.018421  0.0
H  H62  1  0.75259160  0.38991045  0.16816405  1  0.080721  9e-06  0.097386  0.101286  -1e-06  1.018435  0.0
H  H63  1  0.24740865  0.11008869  0.66816495  1  0.080734  9e-06  0.097387  0.101298  -1e-06  1.018459  0.0
H  H64  1  0.14145190  0.72694344  0.78406088  1  0.081023  0.000145  0.099381  0.100962  0.000105  1.036686  0.0
H  H65  1  0.85854639  0.77305677  0.28406004  1  0.081011  0.000145  0.099399  0.100993  0.000105  1.036704  0.0
H  H66  1  0.85854701  0.27305655  0.21593943  1  0.080985  0.000145  0.09939  0.100984  0.000105  1.036654  0.0
H  H67  1  0.14145275  0.22694391  0.71593968  1  0.080987  0.000145  0.099401  0.100975  0.000105  1.036661  0.0
H  H68  1  0.48844957  0.90535370  0.71106511  1  0.061764  1.4e-05  0.097282  0.098739  8e-06  1.023542  0.0
H  H69  1  0.51155102  0.59464523  0.21106451  1  0.061754  1.4e-05  0.097281  0.098743  8e-06  1.023564  0.0
H  H70  1  0.51154978  0.09464491  0.28893639  1  0.061725  1.4e-05  0.097282  0.09875  8e-06  1.023595  0.0
H  H71  1  0.48845012  0.40535340  0.78893581  1  0.061762  1.4e-05  0.09727  0.098732  8e-06  1.023556  0.0
H  H72  1  0.68069643  0.85135126  0.72464102  1  0.092433  1e-05  0.097623  0.102479  1e-06  1.008524  0.0
H  H73  1  0.31930728  0.64865181  0.22464162  1  0.092477  1e-05  0.097617  0.102405  1e-06  1.008663  0.0
H  H74  1  0.31930806  0.14865221  0.27535811  1  0.092493  1e-05  0.097626  0.102449  1e-06  1.008635  0.0
H  H75  1  0.68069521  0.35135096  0.77535929  1  0.092445  1e-05  0.097605  0.102411  1e-06  1.008606  0.0
H  H76  1  0.26195374  0.87550656  0.72667954  1  0.076197  7e-06  0.095575  0.095088  -9e-06  1.013259  0.0
H  H77  1  0.73804639  0.62449373  0.22668003  1  0.076196  7e-06  0.09558  0.095092  -9e-06  1.013244  0.0
H  H78  1  0.73804696  0.12449344  0.27332077  1  0.076179  7e-06  0.095583  0.095079  -9e-06  1.013197  0.0
H  H79  1  0.26195430  0.37550628  0.77332028  1  0.075878  7e-06  0.095582  0.095098  -9e-06  1.013235  0.0
H  H80  1  0.78415485  0.73085561  0.76947128  1  0.128921  1.9e-05  0.099155  0.105631  -7e-06  1.04514  0.0
H  H81  1  0.21584568  0.76914326  0.26946945  1  0.12892  1.9e-05  0.099152  0.105575  -7e-06  1.045143  0.0
H  H82  1  0.21584629  0.26914302  0.23052844  1  0.128912  1.9e-05  0.099145  0.105588  -7e-06  1.045168  0.0
H  H83  1  0.78415390  0.23085605  0.73052849  1  0.128931  1.9e-05  0.099147  0.105598  -7e-06  1.04517  0.0
H  H84  1  0.50533518  0.33067465  0.93274252  1  0.066192  -3e-06  0.094838  0.095956  -1.6e-05  1.035786  0.0
H  H85  1  0.49466456  0.16932350  0.43274305  1  0.066218  -3e-06  0.094842  0.095968  -1.6e-05  1.035819  0.0
H  H86  1  0.49466484  0.66932328  0.06725779  1  0.066208  -3e-06  0.094845  0.095959  -1.6e-05  1.035797  0.0
H  H87  1  0.50533479  0.83067512  0.56725667  1  0.0662  -3e-06  0.094844  0.095954  -1.6e-05  1.035783  0.0
H  H88  1  0.30110887  0.36642915  0.93945860  1  0.046501  -2.8e-05  0.097909  0.102312  -4.8e-05  1.019474  0.0
H  H89  1  0.69888954  0.13357035  0.43945851  1  0.046537  -2.8e-05  0.097923  0.102335  -4.8e-05  1.019457  0.0
H  H90  1  0.69888982  0.63357015  0.06054230  1  0.046523  -2.8e-05  0.097916  0.102309  -4.8e-05  1.019472  0.0
H  H91  1  0.30110937  0.86642688  0.56054121  1  0.046459  -2.8e-05  0.097904  0.102261  -4.8e-05  1.019478  0.0
H  H92  1  0.17466210  0.47403687  0.97574460  1  0.109457  9.4e-05  0.094913  0.092382  6.4e-05  1.054009  0.0
H  H93  1  0.82533782  0.02596191  0.47574455  1  0.109471  9.4e-05  0.094929  0.092432  6.4e-05  1.053938  0.0
H  H94  1  0.82533748  0.52596243  0.02425512  1  0.109466  9.4e-05  0.094916  0.092397  6.4e-05  1.054017  0.0
H  H95  1  0.17466131  0.97403601  0.52425576  1  0.109459  9.4e-05  0.094906  0.092374  6.4e-05  1.054011  0.0
H  H96  1  0.72977184  0.37492833  0.96081699  1  0.066537  -1e-06  0.09647  0.09918  -1.7e-05  1.010415  0.0
H  H97  1  0.27022743  0.12507116  0.46081822  1  0.06655  -1e-06  0.096466  0.099177  -1.7e-05  1.010442  0.0
H  H98  1  0.27022730  0.62507235  0.03918273  1  0.066521  -1e-06  0.096464  0.09917  -1.7e-05  1.010424  0.0
H  H99  1  0.72977170  0.87492676  0.53918210  1  0.066402  -1e-06  0.096466  0.099159  -1.7e-05  1.010453  0.0
C  C100  1  0.78211553  0.89891509  0.10248019  1  0.439241  -0.002265  0.052896  0.110539  -0.003071  3.92899  -0.002
C  C101  1  0.21788340  0.60108396  0.60247813  1  0.439278  -0.002265  0.052905  0.110466  -0.003071  3.929097  -0.002
C  C102  1  0.21788338  0.10108490  0.89752191  1  0.439257  -0.002265  0.052892  0.110399  -0.003071  3.929244  -0.002
C  C103  1  0.78211596  0.39891465  0.39752040  1  0.439253  -0.002265  0.052896  0.110481  -0.003071  3.929105  -0.002
C  C104  1  0.75692899  0.81984611  0.98369803  1  0.45338  -0.002672  0.053494  0.108483  -0.003531  3.91049  -0.002
C  C105  1  0.24306930  0.68015181  0.48369566  1  0.453345  -0.002672  0.05345  0.108369  -0.00353  3.910439  -0.002
C  C106  1  0.24306858  0.18015249  0.01630407  1  0.453336  -0.002672  0.053447  0.108335  -0.00353  3.910364  -0.002
C  C107  1  0.75692983  0.31984612  0.51630287  1  0.453355  -0.002672  0.053494  0.108399  -0.00353  3.910524  -0.002
C  C108  1  0.66100729  0.90542938  0.10177022  1  0.013966  0.00405  -0.077468  -0.15851  0.002259  3.91991  0.003
C  C109  1  0.33899141  0.59456897  0.60176813  1  0.01409  0.00405  -0.077485  -0.158512  0.002259  3.919953  0.003
C  C110  1  0.33899073  0.09457060  0.89823188  1  0.014084  0.00405  -0.077514  -0.158545  0.002259  3.920055  0.003
C  C111  1  0.66100772  0.40542895  0.39823100  1  0.013972  0.00405  -0.077503  -0.158539  0.002259  3.920013  0.003
C  C112  1  0.63451960  0.82300903  0.97888023  1  -0.048585  0.004063  -0.077328  -0.164916  0.00228  3.914737  0.003
C  C113  1  0.36547803  0.67698958  0.47887783  1  -0.048597  0.004063  -0.077338  -0.164943  0.00228  3.914766  0.003
C  C114  1  0.36547731  0.17699026  0.02112246  1  -0.048613  0.004063  -0.077312  -0.164924  0.00228  3.914694  0.003
C  C115  1  0.63452021  0.32300834  0.52112011  1  -0.048579  0.004063  -0.077357  -0.16493  0.00228  3.914779  0.003
C  C116  1  0.58331763  0.86776736  0.03844052  1  0.037645  -0.003555  0.012617  0.100593  -0.004004  3.960414  -0.002
C  C117  1  0.41668069  0.63223244  0.53843957  1  0.037617  -0.003555  0.012602  0.100546  -0.004004  3.960291  -0.002
C  C118  1  0.41668061  0.13223331  0.96156098  1  0.037647  -0.003555  0.012637  0.100619  -0.004003  3.960283  -0.002
C  C119  1  0.58331844  0.36776548  0.46155955  1  0.037657  -0.003555  0.012614  0.100571  -0.004003  3.960418  -0.002
C  C120  1  0.45299249  0.87267595  0.03621254  1  -0.047865  -0.003924  0.011841  0.100431  -0.00439  3.962575  -0.003
C  C121  1  0.54700628  0.62732248  0.53621096  1  -0.047904  -0.003924  0.011848  0.100498  -0.00439  3.962425  -0.003
C  C122  1  0.54700597  0.12732266  0.96378955  1  -0.048229  -0.003925  0.011853  0.100531  -0.00439  3.962492  -0.003
C  C123  1  0.45299330  0.37267682  0.46378876  1  -0.047863  -0.003924  0.011833  0.100453  -0.00439  3.962559  -0.003
C  C124  1  0.40080015  0.91260462  0.09845143  1  0.010733  0.00466  -0.080318  -0.167152  0.002596  3.934597  0.003
C  C125  1  0.59919766  0.58739374  0.59845046  1  0.010719  0.00466  -0.080266  -0.167085  0.002596  3.934517  0.003
C  C126  1  0.59919675  0.08739467  0.90155007  1  0.010722  0.00466  -0.080284  -0.167182  0.002596  3.93465  0.003
C  C127  1  0.40080170  0.41260488  0.40154985  1  0.010741  0.00466  -0.080264  -0.167082  0.002596  3.934579  0.003
C  C128  1  0.37495233  0.83616942  0.97258900  1  -0.065846  0.004393  -0.080786  -0.166896  0.00242  3.926118  0.003
C  C129  1  0.62504776  0.66382852  0.47258771  1  -0.065879  0.004393  -0.0808  -0.166921  0.00242  3.926091  0.003
C  C130  1  0.62504702  0.16382919  0.02741309  1  -0.06557  0.004394  -0.080796  -0.166901  0.00242  3.926064  0.003
C  C131  1  0.37495249  0.33617010  0.52741260  1  -0.065868  0.004393  -0.080789  -0.166912  0.00242  3.926103  0.003
C  C132  1  0.27734630  0.91309910  0.09571428  1  0.499065  -0.002533  0.05272  0.106303  -0.003189  3.919168  -0.002
C  C133  1  0.72265264  0.58689995  0.59571506  1  0.498825  -0.002533  0.052677  0.106198  -0.003189  3.919131  -0.002
C  C134  1  0.72265172  0.08690088  0.90428543  1  0.498745  -0.002534  0.052663  0.106262  -0.003189  3.919154  -0.002
C  C135  1  0.27734694  0.41309935  0.40428585  1  0.498836  -0.002533  0.052692  0.106228  -0.003189  3.919161  -0.002
C  C136  1  0.25220573  0.83894137  0.97443201  1  0.501257  -0.002775  0.048408  0.095468  -0.003477  3.929219  -0.002
C  C137  1  0.74779391  0.66105794  0.47443188  1  0.501291  -0.002775  0.048422  0.095495  -0.003477  3.929248  -0.002
C  C138  1  0.74779385  0.16105793  0.02556889  1  0.501249  -0.002775  0.048423  0.095485  -0.003477  3.929222  -0.002
C  C139  1  0.25220589  0.33894206  0.52556843  1  0.501254  -0.002775  0.048436  0.095539  -0.003477  3.929209  -0.002
C  C140  1  0.02396066  0.56074459  0.38203797  1  1.514086  0.003836  0.213066  0.569632  0.002554  4.207974  0.003
C  C141  1  0.97603819  0.93925482  0.88203899  1  1.514113  0.003836  0.213004  0.569461  0.002555  4.207981  0.003
C  C142  1  0.97603848  0.43925609  0.61796235  1  1.513903  0.003837  0.212994  0.569525  0.002554  4.208173  0.003
C  C143  1  0.02396049  0.06074447  0.11796192  1  1.514101  0.003836  0.213042  0.569598  0.002554  4.208077  0.003
C  C144  1  0.00736015  0.64176723  0.16775294  1  0.079013  0.004137  -0.018928  -0.040771  0.002602  3.986107  0.003
C  C145  1  0.99264095  0.85823589  0.66775223  1  0.078976  0.004137  -0.018859  -0.040732  0.002602  3.986071  0.003
C  C146  1  0.99264122  0.35823485  0.83224738  1  0.079044  0.004137  -0.018873  -0.040773  0.002602  3.98606  0.003
C  C147  1  0.00736154  0.14176688  0.33224689  1  0.078911  0.004137  -0.018877  -0.040693  0.002602  3.986015  0.003
C  C148  1  0.01336159  0.56168312  0.12682559  1  -0.10392  0.001412  -0.075771  -0.109692  0.000837  3.939981  0.001
C  C149  1  0.98664021  0.93831937  0.62682542  1  -0.103962  0.001412  -0.075754  -0.109591  0.000836  3.939946  0.001
C  C150  1  0.98664156  0.43831897  0.87317473  1  -0.103941  0.001412  -0.075751  -0.10961  0.000836  3.939986  0.001
C  C151  1  0.01336250  0.06168410  0.37317489  1  -0.103885  0.001412  -0.075786  -0.1097  0.000837  3.940096  0.001
C  C152  1  0.01090519  0.64262012  0.25114233  1  -0.087669  0.002572  -0.063987  -0.087781  0.001431  3.886522  0.001
C  C153  1  0.98909983  0.85738155  0.75114104  1  -0.087218  0.002571  -0.064079  -0.087946  0.001431  3.886732  0.001
C  C154  1  0.98909952  0.35738128  0.74885857  1  -0.087234  0.002571  -0.064086  -0.087826  0.001431  3.886705  0.001
C  C155  1  0.01090667  0.14261987  0.24885749  1  -0.087748  0.002571  -0.064017  -0.087872  0.001431  3.886521  0.001
C  C156  1  0.02854314  0.48439841  0.16814452  1  0.052542  0.001008  -0.01866  -0.043159  0.000515  4.014249  0.001
C  C157  1  0.97145980  0.01560350  0.66814527  1  0.052562  0.001008  -0.018635  -0.043196  0.000515  4.014271  0.001
C  C158  1  0.97145867  0.51560229  0.83185519  1  0.05256  0.001008  -0.018592  -0.043045  0.000515  4.014091  0.001
C  C159  1  0.02854269  0.98439927  0.33185504  1  0.052547  0.001009  -0.018608  -0.043138  0.000515  4.014265  0.001
C  C160  1  0.02470036  0.56471356  0.29264783  1  0.028814  0.009767  -0.016778  -0.038155  0.005896  3.963988  0.008
C  C161  1  0.97530082  0.93528735  0.79264767  1  0.028702  0.009767  -0.016747  -0.037942  0.005896  3.963847  0.008
C  C162  1  0.97530056  0.43528714  0.70735248  1  0.028679  0.009766  -0.016768  -0.038105  0.005896  3.963985  0.008
C  C163  1  0.02470278  0.06471335  0.20735264  1  0.028772  0.009767  -0.01678  -0.038133  0.005896  3.964079  0.008
C  C164  1  0.03752438  0.48673936  0.25075858  1  -0.101524  0.000823  -0.070869  -0.108396  0.000242  3.912032  0.001
C  C165  1  0.96247624  0.01326106  0.75075874  1  -0.101571  0.000823  -0.070925  -0.108529  0.000242  3.912139  0.001
C  C166  1  0.96247654  0.51326133  0.74924054  1  -0.101526  0.000822  -0.070914  -0.108491  0.000242  3.912107  0.001
C  C167  1  0.03752580  0.98674033  0.24924098  1  -0.101535  0.000823  -0.070898  -0.10841  0.000242  3.912169  0.001
C  C168  1  0.03548980  0.39933496  0.12427801  1  1.516031  0.000325  0.230995  0.577929  0.000193  4.136792  0.0
C  C169  1  0.96451140  0.10066699  0.62427869  1  1.51617  0.000325  0.231002  0.577994  0.000193  4.136809  0.0
C  C170  1  0.96450845  0.60066572  0.87572231  1  1.515984  0.000325  0.231022  0.577921  0.000193  4.136807  0.0
C  C171  1  0.03548996  0.89933508  0.37572103  1  1.516017  0.000325  0.231025  0.577956  0.000193  4.136826  0.0
C  C172  1  0.00019440  0.72598660  0.12264284  1  1.541575  -0.003116  0.208077  0.55639  -0.004601  4.164636  -0.005
C  C173  1  0.99980897  0.77401521  0.62264160  1  1.541666  -0.003116  0.208121  0.556443  -0.004601  4.164677  -0.005
C  C174  1  0.99980831  0.27401411  0.87735747  1  1.541603  -0.003116  0.208127  0.556511  -0.004601  4.164436  -0.005
C  C175  1  0.00019619  0.22598758  0.37735633  1  1.541701  -0.003117  0.208073  0.55642  -0.004601  4.164602  -0.005
C  C176  1  0.49150298  0.62253579  0.82205086  1  -0.081643  0.000122  -0.09725  -0.150082  7.5e-05  3.999137  0.0
C  C177  1  0.50849504  0.87746369  0.32205064  1  -0.081657  0.000122  -0.097225  -0.150044  7.5e-05  3.999101  0.0
C  C178  1  0.50849548  0.37746282  0.17794886  1  -0.081623  0.000122  -0.09727  -0.150109  7.5e-05  3.999106  0.0
C  C179  1  0.49150565  0.12253631  0.67794848  1  -0.08164  0.000122  -0.097261  -0.150171  7.5e-05  3.999044  0.0
C  C180  1  0.42894357  0.68903170  0.79643544  1  -0.005528  0.00016  -0.015522  0.057648  9.2e-05  4.018025  0.0
C  C181  1  0.57105538  0.81096781  0.29643584  1  -0.00474  0.00016  -0.015506  0.057678  9.2e-05  4.017983  0.0
C  C182  1  0.57105601  0.31096760  0.20356309  1  -0.004757  0.00016  -0.015542  0.057596  9.2e-05  4.018076  0.0
C  C183  1  0.42894532  0.18903219  0.70356447  1  -0.004763  0.00016  -0.015492  0.057777  9.2e-05  4.017968  0.0
C  C184  1  0.61709486  0.63826608  0.81261958  1  -0.045794  5.4e-05  -0.094314  -0.081527  3.6e-05  4.010272  0.0
C  C185  1  0.38290384  0.86173272  0.31262060  1  -0.045338  5.4e-05  -0.094374  -0.081613  3.6e-05  4.010387  0.0
C  C186  1  0.38290316  0.36173390  0.18738013  1  -0.045841  5.4e-05  -0.094304  -0.081482  3.6e-05  4.01035  0.0
C  C187  1  0.61709686  0.13826728  0.68737793  1  -0.045887  5.4e-05  -0.094355  -0.081549  3.6e-05  4.010315  0.0
C  C188  1  0.29964662  0.67437538  0.80477826  1  -0.111474  7.3e-05  -0.09346  -0.136948  3.9e-05  3.980647  0.0
C  C189  1  0.70035232  0.82562412  0.30477683  1  -0.111777  7.3e-05  -0.093452  -0.136958  3.9e-05  3.980753  0.0
C  C190  1  0.70035296  0.32562393  0.19522264  1  -0.111438  7.3e-05  -0.093428  -0.136853  3.9e-05  3.980751  0.0
C  C191  1  0.29964815  0.17437519  0.69522288  1  -0.111492  7.3e-05  -0.09344  -0.13695  3.9e-05  3.980748  0.0
C  C192  1  0.24101444  0.73991379  0.77930008  1  -0.063287  0.000107  -0.096456  -0.085105  5.8e-05  4.017023  0.0
C  C193  1  0.75898474  0.76008644  0.27929869  1  -0.06333  0.000107  -0.096473  -0.08513  5.8e-05  4.017121  0.0
C  C194  1  0.75898447  0.26008620  0.22070082  1  -0.063654  0.000107  -0.096489  -0.08518  5.8e-05  4.017125  0.0
C  C195  1  0.24101618  0.23991426  0.72070103  1  -0.063585  0.000107  -0.096482  -0.08511  5.8e-05  4.017106  0.0
C  C196  1  0.49857557  0.77375004  0.76122654  1  -0.030141  5.8e-05  -0.015138  0.059843  3.2e-05  4.015078  0.0
C  C197  1  0.50142542  0.72625021  0.26122703  1  -0.030561  5.8e-05  -0.015198  0.059801  3.2e-05  4.015076  0.0
C  C198  1  0.50142513  0.22624996  0.23877259  1  -0.030563  5.8e-05  -0.01521  0.059795  3.2e-05  4.015087  0.0
C  C199  1  0.49857304  0.27374839  0.73877329  1  -0.030581  5.8e-05  -0.015206  0.059689  3.2e-05  4.015216  0.0
C  C200  1  0.43555595  0.84069026  0.73722596  1  -0.073534  2.4e-05  -0.095989  -0.144227  1.3e-05  3.999373  0.0
C  C201  1  0.56444461  0.65930864  0.23722708  1  -0.073568  2.4e-05  -0.095952  -0.144245  1.3e-05  3.999424  0.0
C  C202  1  0.56444340  0.15930836  0.26277316  1  -0.073532  2.4e-05  -0.095937  -0.144227  1.3e-05  3.999431  0.0
C  C203  1  0.43555675  0.34069067  0.76277323  1  -0.073539  2.4e-05  -0.095955  -0.144202  1.3e-05  3.999374  0.0
C  C204  1  0.62771527  0.78732256  0.75185943  1  -0.120975  3.1e-05  -0.095507  -0.140991  1.1e-05  3.981691  0.0
C  C205  1  0.37228461  0.71267701  0.25186056  1  -0.121016  3.1e-05  -0.095467  -0.140895  1.1e-05  3.981611  0.0
C  C206  1  0.37228476  0.21267813  0.24813910  1  -0.120982  3.1e-05  -0.095512  -0.141005  1.1e-05  3.981663  0.0
C  C207  1  0.62771520  0.28732299  0.74813916  1  -0.120587  3.1e-05  -0.095485  -0.14091  1.1e-05  3.981646  0.0
C  C208  1  0.30962742  0.82403100  0.74583674  1  -0.050259  0.0  -0.098467  -0.088627  -1.8e-05  4.027893  0.0
C  C209  1  0.69037269  0.67596926  0.24583662  1  -0.050227  0.0  -0.098482  -0.088606  -1.8e-05  4.027892  0.0
C  C210  1  0.69037238  0.17596899  0.25416357  1  -0.050224  0.0  -0.09847  -0.088562  -1.8e-05  4.027797  0.0
C  C211  1  0.30962801  0.32403074  0.75416310  1  -0.049939  0.0  -0.098479  -0.088616  -1.8e-05  4.027866  0.0
C  C212  1  0.68543368  0.72087946  0.77660148  1  -0.068708  1.9e-05  -0.095287  -0.083774  -2e-06  4.010188  0.0
C  C213  1  0.31456663  0.77912146  0.27660079  1  -0.068694  1.9e-05  -0.095276  -0.083668  -2e-06  4.010057  0.0
C  C214  1  0.31456479  0.27912191  0.22339824  1  -0.068728  1.9e-05  -0.095224  -0.083644  -2e-06  4.010087  0.0
C  C215  1  0.68543363  0.22087991  0.72339714  1  -0.069082  1.9e-05  -0.095225  -0.083652  -2e-06  4.010072  0.0
C  C216  1  0.47227803  0.45639368  0.98154923  1  -0.048319  8e-06  -0.00991  0.066591  1e-06  3.99796  0.0
C  C217  1  0.52772211  0.04360579  0.48154747  1  -0.048337  8e-06  -0.009917  0.066613  1e-06  3.99801  0.0
C  C218  1  0.52772289  0.54360701  0.01845227  1  0.005908  8e-06  -0.009948  0.066594  1e-06  3.99793  0.0
C  C219  1  0.47227613  0.95639213  0.51845046  1  0.005752  8e-06  -0.010016  0.066475  1e-06  3.99805  0.0
C  C220  1  0.54785325  0.39666330  0.96093167  1  -0.058053  2.5e-05  -0.0946  -0.141103  1.5e-05  3.99499  0.0
C  C221  1  0.45214870  0.10333620  0.46093227  1  -0.058081  2.5e-05  -0.094583  -0.141072  1.5e-05  3.995009  0.0
C  C222  1  0.45214834  0.60333671  0.03906804  1  -0.058061  2.5e-05  -0.094599  -0.141092  1.5e-05  3.99492  0.0
C  C223  1  0.54785066  0.89666241  0.53906804  1  -0.057885  2.5e-05  -0.094617  -0.141096  1.5e-05  3.994975  0.0
C  C224  1  0.34359959  0.43284598  0.96699659  1  -0.07958  -1e-06  -0.091953  -0.13622  -9e-06  3.979276  0.0
C  C225  1  0.65640056  0.06715075  0.46699537  1  -0.079795  -1e-06  -0.091944  -0.136252  -9e-06  3.979318  0.0
C  C226  1  0.65639932  0.56715125  0.03300491  1  -0.079826  -1e-06  -0.091938  -0.136194  -9e-06  3.97924  0.0
C  C227  1  0.34359834  0.93284648  0.53300316  1  -0.079553  -1e-06  -0.091883  -0.136019  -9e-06  3.979165  0.0
C  C228  1  0.27301421  0.49265270  0.98751552  1  -0.080155  5.3e-05  -0.098651  -0.084638  4e-05  4.022965  0.0
C  C229  1  0.72698459  0.00734538  0.48751492  1  -0.079948  5.3e-05  -0.098655  -0.08462  4e-05  4.022989  0.0
C  C230  1  0.72698359  0.50734660  0.01248538  1  -0.079932  5.3e-05  -0.098663  -0.084659  4e-05  4.022983  0.0
C  C231  1  0.27301365  0.99265254  0.51248420  1  -0.080167  5.3e-05  -0.098654  -0.084664  4e-05  4.023003  0.0
C  C232  1  0.67250759  0.42142935  0.97622579  1  -0.04038  1.3e-05  -0.097731  -0.087762  -1e-06  4.028378  0.0
C  C233  1  0.32749345  0.07857012  0.47622526  1  -0.040347  1.3e-05  -0.097719  -0.087788  -1e-06  4.028398  0.0
C  C234  1  0.32749221  0.57857064  0.02377452  1  -0.040339  1.3e-05  -0.097703  -0.087738  -1e-06  4.028316  0.0
C  C235  1  0.67250568  0.92142780  0.52377387  1  -0.040255  1.3e-05  -0.097713  -0.087769  -1e-06  4.028379  0.0
N  N236  1  0.83101432  0.85861429  0.04390769  1  -1.214034  0.062613  -0.32439  -0.224802  0.036163  3.583673  0.056
N  N237  1  0.16898355  0.64138412  0.54390562  1  -1.213952  0.062613  -0.324383  -0.224696  0.036163  3.583554  0.056
N  N238  1  0.16898436  0.14138501  0.95609381  1  -1.214068  0.062614  -0.324366  -0.224611  0.036163  3.583493  0.056
N  N239  1  0.83101469  0.35861379  0.45609291  1  -1.214042  0.062613  -0.324397  -0.224712  0.036163  3.583561  0.056
N  N240  1  0.20332087  0.87621553  0.03509264  1  -1.210964  0.06557  -0.322647  -0.212449  0.038035  3.559853  0.058
N  N241  1  0.79667835  0.62378428  0.53509277  1  -1.210936  0.06557  -0.322652  -0.212434  0.038034  3.559799  0.058
N  N242  1  0.79667826  0.12378515  0.96490767  1  -1.21082  0.06557  -0.322675  -0.212486  0.038034  3.55984  0.058
N  N243  1  0.20332168  0.37621640  0.46490814  1  -1.210958  0.06557  -0.322673  -0.212476  0.038034  3.559882  0.058
O  O244  1  0.01041459  0.80192499  0.15818557  1  -1.139416  0.066125  -0.288251  -0.511355  0.036809  2.265765  0.059
O  O245  1  0.98958719  0.69807746  0.65818439  1  -1.139299  0.066123  -0.288252  -0.511383  0.036808  2.265948  0.059
O  O246  1  0.98958990  0.19807573  0.84181474  1  -1.139385  0.066124  -0.28823  -0.511375  0.036809  2.265791  0.059
O  O247  1  0.01041397  0.30192668  0.34181473  1  -1.139462  0.066124  -0.288266  -0.511399  0.036808  2.265736  0.059
O  O248  1  0.98638597  0.72302952  0.04615591  1  -1.163132  0.073106  -0.304261  -0.540802  0.040766  2.333411  0.066
O  O249  1  0.01362106  0.77697240  0.54615438  1  -1.163207  0.073106  -0.304308  -0.540883  0.040767  2.333413  0.066
O  O250  1  0.01361964  0.27697189  0.95384499  1  -1.163163  0.073104  -0.304309  -0.540935  0.040766  2.333387  0.066
O  O251  1  0.98638656  0.22302971  0.45384355  1  -1.163096  0.073106  -0.304274  -0.540855  0.040766  2.333428  0.066
O  O252  1  0.98101649  0.62033742  0.41899281  1  -1.130783  0.09258  -0.300188  -0.526636  0.051239  2.389929  0.085
O  O253  1  0.01898121  0.87966126  0.91899179  1  -1.130795  0.092576  -0.300176  -0.526587  0.051237  2.389948  0.085
O  O254  1  0.01898198  0.37966119  0.58100810  1  -1.130577  0.092581  -0.300159  -0.526605  0.05124  2.389941  0.085
O  O255  1  0.98101636  0.12033735  0.08100733  1  -1.130784  0.092578  -0.300192  -0.526621  0.051238  2.389932  0.085
O  O256  1  0.06650120  0.49856289  0.41400882  1  -1.177102  0.038699  -0.319217  -0.579842  0.021035  2.485985  0.033
O  O257  1  0.93349834  0.00143734  0.91401078  1  -1.177137  0.038698  -0.319162  -0.579766  0.021034  2.485993  0.033
O  O258  1  0.93349949  0.50143711  0.58598971  1  -1.177129  0.038695  -0.319154  -0.579778  0.021033  2.486142  0.033
O  O259  1  0.06650057  0.99856265  0.08599013  1  -1.177105  0.0387  -0.319181  -0.579813  0.021035  2.486075  0.033
O  O260  1  0.09438438  0.34531887  0.14728578  1  -1.141727  0.000376  -0.280541  -0.481436  0.00018  2.156572  0.0
O  O261  1  0.90561456  0.15468166  0.64728644  1  -1.141769  0.000376  -0.280557  -0.481462  0.00018  2.156542  0.0
O  O262  1  0.90561297  0.65468180  0.85271275  1  -1.141727  0.000376  -0.280588  -0.481489  0.00018  2.1566  0.0
O  O263  1  0.09438524  0.84531834  0.35271327  1  -1.141742  0.000376  -0.280567  -0.481474  0.00018  2.156594  0.0
O  O264  1  0.96904992  0.38898341  0.05727284  1  -1.20075  0.001251  -0.339549  -0.505122  0.000595  2.34893  0.001
O  O265  1  0.03094911  0.11101723  0.55727262  1  -1.200868  0.001251  -0.339535  -0.505105  0.000595  2.348968  0.001
O  O266  1  0.03094854  0.61101796  0.94272747  1  -1.200714  0.001251  -0.339519  -0.505062  0.000595  2.34901  0.001
O  O267  1  0.96904980  0.88898276  0.44272769  1  -1.200718  0.001251  -0.339548  -0.505099  0.000595  2.348919  0.001
