# generated using pymatgen
data_Cd3H50C46(N2O9)2
_symmetry_space_group_name_H-M   'P 1'
_cell_length_a   9.68349457
_cell_length_b   12.01724524
_cell_length_c   12.36048424
_cell_angle_alpha   110.29002577
_cell_angle_beta   105.13990347
_cell_angle_gamma   100.49313005
_symmetry_Int_Tables_number   1
_chemical_formula_structural   Cd3H50C46(N2O9)2
_chemical_formula_sum   'Cd3 H50 C46 N4 O18'
_cell_volume   1241.82812823
_cell_formula_units_Z   1
loop_
 _symmetry_equiv_pos_site_id
 _symmetry_equiv_pos_as_xyz
  1  'x, y, z'
loop_
 _atom_site_type_symbol
 _atom_site_label
 _atom_site_symmetry_multiplicity
 _atom_site_fract_x
 _atom_site_fract_y
 _atom_site_fract_z
 _atom_site_occupancy
 _atom_site_hle17_bader_spin_density
 _atom_site_hle17_ddec_charge
 _atom_site_hle17_ddec_spin_density
 _atom_site_hle17_ddec_sum_bond_order
 _atom_site_hle17_magmom
 _atom_site_hse06_10hf_bader_spin_density
 _atom_site_hse06_10hf_ddec_charge
 _atom_site_hse06_10hf_ddec_spin_density
 _atom_site_hse06_10hf_ddec_sum_bond_order
 _atom_site_hse06_10hf_magmom
 _atom_site_hse06_bader_spin_density
 _atom_site_hse06_ddec_charge
 _atom_site_hse06_ddec_spin_density
 _atom_site_hse06_ddec_sum_bond_order
 _atom_site_hse06_magmom
 _atom_site_pbe_bader_spin_density
 _atom_site_pbe_cm5_charge
 _atom_site_pbe_ddec_charge
 _atom_site_pbe_ddec_spin_density
 _atom_site_pbe_ddec_sum_bond_order
 _atom_site_pbe_magmom
Cd  Cd0  1  0.00000411  0.50000207  0.00000094  1  0  1.324556  0  1.688722  0  0  1.162081  0  2.159788  0  0  1.215637  0  2.097787  0  0  0.801683  1.123488  0  2.204272  0
Cd  Cd1  1  0.90622484  0.31688155  0.67191687  1  0  1.242464  0  1.608764  0  0  1.068645  0  2.05864  0  0  1.128632  0  1.997988  0  0  0.78015  1.023797  0  2.10237  0
Cd  Cd2  1  0.09377869  0.68311855  0.32808241  1  0  1.242513  0  1.60865  0  0  1.06869  0  2.05854  0  0  1.128678  0  1.997885  0  0  0.780188  1.023851  0  2.102259  0
H  H3  1  0.40954674  0.37346154  0.74983568  1  0  0.100119  0  0.980989  0  0  0.106934  0  1.052194  0  0  0.110358  0  1.049794  0  0  0.106548  0.104556  0  1.05399  0
H  H4  1  0.59045860  0.62653763  0.25016526  1  0  0.100134  0  0.980973  0  0  0.106947  0  1.052166  0  0  0.110374  0  1.049757  0  0  0.106566  0.104567  0  1.053959  0
H  H5  1  0.40821061  0.73336504  0.98485986  1  0  0.125839  0  0.939393  0  0  0.134772  0  1.001596  0  0  0.138664  0  0.998785  0  0  0.11168  0.131884  0  1.003674  0
H  H6  1  0.59178825  0.26663414  0.01513414  1  0  0.125803  0  0.939421  0  0  0.134764  0  1.00159  0  0  0.138656  0  0.998781  0  0  0.111661  0.131871  0  1.003671  0
H  H7  1  0.81379839  0.68360535  0.91952390  1  0  0.133435  0  0.948356  0  0  0.139729  0  1.01529  0  0  0.143941  0  1.011773  0  0  0.111124  0.1367  0  1.017656  0
H  H8  1  0.18620588  0.31639663  0.08048021  1  0  0.133459  0  0.948345  0  0  0.139751  0  1.015275  0  0  0.143958  0  1.011785  0  0  0.111124  0.136718  0  1.017655  0
H  H9  1  0.83623570  0.07548476  0.15370099  1  0  0.112006  0  0.949824  0  0  0.124381  0  1.007274  0  0  0.127715  0  1.00621  0  0  0.106803  0.122047  0  1.008102  0
H  H10  1  0.16375893  0.92451726  0.84629879  1  0  0.112025  0  0.949754  0  0  0.124403  0  1.007196  0  0  0.127737  0  1.006138  0  0  0.106829  0.122072  0  1.008021  0
H  H11  1  0.92077336  0.22882496  0.07038406  1  0  0.098736  0  0.96509  0  0  0.108388  0  1.029935  0  0  0.11141  0  1.027531  0  0  0.104406  0.106196  0  1.031707  0
H  H12  1  0.07922593  0.77117518  0.92961682  1  0  0.098761  0  0.96502  0  0  0.108421  0  1.029856  0  0  0.11144  0  1.027456  0  0  0.104408  0.106226  0  1.031634  0
H  H13  1  0.71731180  0.94319076  0.70308240  1  0  0.095288  0  0.949341  0  0  0.108104  0  1.005973  0  0  0.111344  0  1.003459  0  0  0.103793  0.105705  0  1.007942  0
H  H14  1  0.28268957  0.05681216  0.29691820  1  0  0.095285  0  0.94931  0  0  0.108092  0  1.005954  0  0  0.111331  0  1.003443  0  0  0.10378  0.105692  0  1.00792  0
H  H15  1  0.63300643  0.78897115  0.78354810  1  0  0.103607  0  0.975877  0  0  0.115962  0  1.034662  0  0  0.118725  0  1.034883  0  0  0.100154  0.114012  0  1.034582  0
H  H16  1  0.36699458  0.21103083  0.21645131  1  0  0.103583  0  0.975863  0  0  0.115952  0  1.034641  0  0  0.118707  0  1.034867  0  0  0.100139  0.113997  0  1.03456  0
H  H17  1  0.95259404  0.71886167  0.72309691  1  0  0.124305  0  0.957316  0  0  0.143562  0  1.019073  0  0  0.145805  0  1.018417  0  0  0.097147  0.14185  0  1.019677  0
H  H18  1  0.04739998  0.28113289  0.27690024  1  0  0.124277  0  0.957381  0  0  0.143541  0  1.01913  0  0  0.145785  0  1.018467  0  0  0.097145  0.141836  0  1.019723  0
H  H19  1  0.06052700  0.68193394  0.62632501  1  0  0.158984  0  0.937894  0  0  0.175213  0  1.000387  0  0  0.178951  0  0.998213  0  0  0.105174  0.172558  0  1.001896  0
H  H20  1  0.93947161  0.31806433  0.37367510  1  0  0.15901  0  0.937879  0  0  0.175243  0  1.000362  0  0  0.178981  0  0.998183  0  0  0.105203  0.172585  0  1.001879  0
H  H21  1  0.05990566  0.61418129  0.73417060  1  0  0.143281  0  0.946043  0  0  0.16295  0  1.003372  0  0  0.165231  0  1.002656  0  0  0.101577  0.161099  0  1.00424  0
H  H22  1  0.94009154  0.38581606  0.26582974  1  0  0.143347  0  0.945992  0  0  0.162994  0  1.003344  0  0  0.165273  0  1.002623  0  0  0.101601  0.161145  0  1.004209  0
H  H23  1  0.51679688  0.47213415  0.39445305  1  0  0.096931  0  0.964339  0  0  0.117267  0  1.02749  0  0  0.117197  0  1.029129  0  0  0.103561  0.117216  0  1.026418  0
H  H24  1  0.48320489  0.52786410  0.60554525  1  0  0.096937  0  0.964344  0  0  0.117282  0  1.027469  0  0  0.117211  0  1.029111  0  0  0.10356  0.117234  0  1.026398  0
H  H25  1  0.59633130  0.37668664  0.46076775  1  0  0.100094  0  0.966814  0  0  0.116607  0  1.036458  0  0  0.117561  0  1.035617  0  0  0.102691  0.115779  0  1.037168  0
H  H26  1  0.40366479  0.62330790  0.53922495  1  0  0.100082  0  0.966828  0  0  0.116575  0  1.036492  0  0  0.117537  0  1.035645  0  0  0.102642  0.115752  0  1.037199  0
H  H27  1  0.64212215  0.39782322  0.33695527  1  0  0.095703  0  0.941058  0  0  0.115842  0  1.003588  0  0  0.115498  0  1.004828  0  0  0.099395  0.116011  0  1.002756  0
H  H28  1  0.35787783  0.60217596  0.66304219  1  0  0.095753  0  0.941056  0  0  0.115894  0  1.003567  0  0  0.115548  0  1.00481  0  0  0.099419  0.116073  0  1.002733  0
H  H29  1  0.62311672  0.66888946  0.46348356  1  0  0.115498  0  0.961727  0  0  0.13219  0  1.028303  0  0  0.134423  0  1.026636  0  0  0.107392  0.13034  0  1.029818  0
H  H30  1  0.37688157  0.33110508  0.53651443  1  0  0.11551  0  0.961724  0  0  0.132207  0  1.028294  0  0  0.134444  0  1.026622  0  0  0.107389  0.13036  0  1.029807  0
H  H31  1  0.81816471  0.71633172  0.48643288  1  0  0.112602  0  0.927985  0  0  0.133378  0  0.986429  0  0  0.134542  0  0.985893  0  0  0.106523  0.132385  0  0.987013  0
H  H32  1  0.18183322  0.28366469  0.51356729  1  0  0.112671  0  0.928004  0  0  0.133458  0  0.986424  0  0  0.134624  0  0.985886  0  0  0.106544  0.132468  0  0.98701  0
H  H33  1  0.75816448  0.74018432  0.61562698  1  0  0.084847  0  0.960588  0  0  0.1046  0  1.026879  0  0  0.104382  0  1.027981  0  0  0.097869  0.10457  0  1.026253  0
H  H34  1  0.24183131  0.25981210  0.38437196  1  0  0.084885  0  0.960697  0  0  0.104642  0  1.026979  0  0  0.104428  0  1.028076  0  0  0.097881  0.104606  0  1.026354  0
H  H35  1  0.51734027  0.01631805  0.36425404  1  0  0.134854  0  0.970064  0  0  0.151251  0  1.033866  0  0  0.153752  0  1.033274  0  0  0.098045  0.149462  0  1.034244  0
H  H36  1  0.48265477  0.98368492  0.63575100  1  0  0.13487  0  0.970017  0  0  0.151289  0  1.0338  0  0  0.153791  0  1.03321  0  0  0.098045  0.149499  0  1.034184  0
H  H37  1  0.61003884  0.17999074  0.43136710  1  0  0.144809  0  0.940102  0  0  0.165621  0  0.997603  0  0  0.168436  0  0.996055  0  0  0.103951  0.163474  0  0.998867  0
H  H38  1  0.38995763  0.82001035  0.56863596  1  0  0.144797  0  0.940136  0  0  0.165615  0  0.997627  0  0  0.168429  0  0.996079  0  0  0.103936  0.163465  0  0.998892  0
H  H39  1  0.61987160  0.09862571  0.52604222  1  0  0.157528  0  0.946344  0  0  0.176798  0  1.004728  0  0  0.180094  0  1.002736  0  0  0.10644  0.174483  0  1.005992  0
H  H40  1  0.38012732  0.90137630  0.47396003  1  0  0.157554  0  0.946339  0  0  0.176843  0  1.0047  0  0  0.180141  0  1.002705  0  0  0.106441  0.174522  0  1.005967  0
H  H41  1  0.88092590  0.88400027  0.23058666  1  0  0.107797  0  0.953669  0  0  0.124091  0  1.021551  0  0  0.12518  0  1.021273  0  0  0.105349  0.123261  0  1.021646  0
H  H42  1  0.11907126  0.11599988  0.76941380  1  0  0.107829  0  0.95362  0  0  0.124111  0  1.021505  0  0  0.125211  0  1.021214  0  0  0.105365  0.12328  0  1.021601  0
H  H43  1  0.95919312  0.91370654  0.38934483  1  0  0.105677  0  0.957945  0  0  0.12501  0  1.022853  0  0  0.125827  0  1.022715  0  0  0.101728  0.12439  0  1.022967  0
H  H44  1  0.04080402  0.08629360  0.61065482  1  0  0.105668  0  0.95797  0  0  0.12499  0  1.022885  0  0  0.125806  0  1.022748  0  0  0.1017  0.124362  0  1.022998  0
H  H45  1  0.98064672  0.03940496  0.34402831  1  0  0.102067  0  0.941407  0  0  0.120227  0  1.008295  0  0  0.121295  0  1.007642  0  0  0.104197  0.119303  0  1.009011  0
H  H46  1  0.01934903  0.96059426  0.65597155  1  0  0.102069  0  0.94138  0  0  0.120216  0  1.008273  0  0  0.121281  0  1.007625  0  0  0.104201  0.119292  0  1.00899  0
H  H47  1  0.65988422  0.78267493  0.21295055  1  0  0.109708  0  0.949016  0  0  0.129016  0  1.012063  0  0  0.129967  0  1.012034  0  0  0.11027  0.128302  0  1.012108  0
H  H48  1  0.34011294  0.21732521  0.78704991  1  0  0.109712  0  0.949051  0  0  0.129056  0  1.012049  0  0  0.130011  0  1.012025  0  0  0.110262  0.12834  0  1.012097  0
H  H49  1  0.54289539  0.87907609  0.20416972  1  0  0.099714  0  0.933101  0  0  0.11916  0  0.995831  0  0  0.119481  0  0.996128  0  0  0.104523  0.118784  0  0.99587  0
H  H50  1  0.45710105  0.12092499  0.79583173  1  0  0.09972  0  0.933096  0  0  0.119153  0  0.995839  0  0  0.119475  0  0.996134  0  0  0.104524  0.118779  0  0.995879  0
H  H51  1  0.57802756  0.83099602  0.32777617  1  0  0.109121  0  0.934008  0  0  0.131526  0  0.989876  0  0  0.131921  0  0.990308  0  0  0.106459  0.131084  0  0.989837  0
H  H52  1  0.42196962  0.16900413  0.67222591  1  0  0.109187  0  0.934036  0  0  0.131557  0  0.989942  0  0  0.131952  0  0.990374  0  0  0.106466  0.131116  0  0.989903  0
C  C53  1  0.69664447  0.43619345  0.76141079  1  0  0.652185  0  3.903981  0  0  0.602371  0  4.190524  0  0  0.636946  0  4.18404  0  0  0.202889  0.578697  0  4.19408  0
C  C54  1  0.30336301  0.56380851  0.23859395  1  0  0.652173  0  3.904123  0  0  0.602403  0  4.190633  0  0  0.636974  0  4.184151  0  0  0.202915  0.578741  0  4.194181  0
C  C55  1  0.61998550  0.51865664  0.82838347  1  0  -0.048933  0  3.775345  0  0  -0.020964  0  4.008829  0  0  -0.028837  0  4.031273  0  0  -0.017905  -0.016116  0  3.994412  0
C  C56  1  0.38002055  0.48134440  0.17161904  1  0  -0.04891  0  3.7754  0  0  -0.021011  0  4.008949  0  0  -0.028878  0  4.031394  0  0  -0.017955  -0.016176  0  3.994534  0
C  C57  1  0.46932661  0.47036861  0.81075720  1  0  -0.085017  0  3.717603  0  0  -0.125847  0  3.968875  0  0  -0.124221  0  3.988547  0  0  -0.081499  -0.127471  0  3.956958  0
C  C58  1  0.53067660  0.52963057  0.18924332  1  0  -0.085052  0  3.717668  0  0  -0.125836  0  3.968956  0  0  -0.124212  0  3.988628  0  0  -0.081495  -0.127459  0  3.957032  0
C  C59  1  0.39413523  0.54591205  0.86942949  1  0  -0.043587  0  3.767347  0  0  -0.015472  0  3.999493  0  0  -0.02365  0  4.022418  0  0  -0.015762  -0.010066  0  3.984189  0
C  C60  1  0.60586722  0.45408805  0.13056876  1  0  -0.043565  0  3.767305  0  0  -0.015488  0  3.999526  0  0  -0.023663  0  4.022447  0  0  -0.015717  -0.010076  0  3.984218  0
C  C61  1  0.23253167  0.49290544  0.85108027  1  0  0.667779  0  3.90859  0  0  0.616383  0  4.200975  0  0  0.65196  0  4.193427  0  0  0.211473  0.59199  0  4.205207  0
C  C62  1  0.76747432  0.50709558  0.14891819  1  0  0.667792  0  3.90864  0  0  0.616355  0  4.201106  0  0  0.651932  0  4.193556  0  0  0.211414  0.59195  0  4.205346  0
C  C63  1  0.46760506  0.67306681  0.94143225  1  0  -0.164767  0  3.700088  0  0  -0.202815  0  3.953703  0  0  -0.202687  0  3.969982  0  0  -0.085135  -0.20227  0  3.942456  0
C  C64  1  0.53239598  0.32693237  0.05856541  1  0  -0.164751  0  3.699989  0  0  -0.202814  0  3.953586  0  0  -0.202688  0  3.969869  0  0  -0.085147  -0.202265  0  3.942344  0
C  C65  1  0.61598775  0.72101043  0.95442378  1  0  0.255686  0  3.801716  0  0  0.24887  0  4.070295  0  0  0.255959  0  4.086846  0  0  0.079696  0.243518  0  4.058987  0
C  C66  1  0.38401189  0.27898782  0.04557330  1  0  0.255729  0  3.801577  0  0  0.248983  0  4.070088  0  0  0.256064  0  4.086641  0  0  0.07974  0.243627  0  4.058789  0
C  C67  1  0.69537837  0.64501081  0.90244601  1  0  -0.158387  0  3.675539  0  0  -0.194702  0  3.928113  0  0  -0.19467  0  3.944325  0  0  -0.085473  -0.193618  0  3.916703  0
C  C68  1  0.30462483  0.35499117  0.09755707  1  0  -0.158474  0  3.675476  0  0  -0.194781  0  3.928066  0  0  -0.194762  0  3.944277  0  0  -0.085497  -0.193693  0  3.91665  0
C  C69  1  0.73164226  0.92395291  0.97383824  1  0  0.298748  0  3.781835  0  0  0.287424  0  4.041135  0  0  0.300653  0  4.055526  0  0  0.09159  0.278313  0  4.031523  0
C  C70  1  0.26835662  0.07604908  0.02616075  1  0  0.298712  0  3.781916  0  0  0.287403  0  4.041224  0  0  0.300621  0  4.055613  0  0  0.091584  0.278292  0  4.031611  0
C  C71  1  0.81253152  0.04769741  0.05531920  1  0  -0.186393  0  3.744188  0  0  -0.207392  0  3.997205  0  0  -0.21417  0  4.016386  0  0  -0.103573  -0.202879  0  3.984489  0
C  C72  1  0.18746774  0.95230552  0.94468261  1  0  -0.186423  0  3.744249  0  0  -0.207423  0  3.997265  0  0  -0.214206  0  4.01646  0  0  -0.103609  -0.202905  0  3.984545  0
C  C73  1  0.85925490  0.13192037  0.00911640  1  0  -0.044021  0  3.758001  0  0  -0.068664  0  4.00694  0  0  -0.065712  0  4.026685  0  0  -0.083836  -0.070537  0  3.993759  0
C  C74  1  0.14074648  0.86808255  0.99088421  1  0  -0.04399  0  3.757991  0  0  -0.068626  0  4.006913  0  0  -0.065678  0  4.026669  0  0  -0.083811  -0.070499  0  3.993732  0
C  C75  1  0.82557162  0.09498340  0.88197439  1  0  -0.091516  0  3.777387  0  0  -0.071908  0  4.015446  0  0  -0.082377  0  4.039017  0  0  -0.032196  -0.065149  0  3.999465  0
C  C76  1  0.17443048  0.90501858  0.11802605  1  0  -0.091638  0  3.777472  0  0  -0.072047  0  4.015556  0  0  -0.082518  0  4.03913  0  0  -0.032226  -0.065282  0  3.99958  0
C  C77  1  0.74387534  0.97123102  0.80180638  1  0  -0.050121  0  3.779835  0  0  -0.074278  0  4.031473  0  0  -0.070969  0  4.050783  0  0  -0.086688  -0.07606  0  4.018177  0
C  C78  1  0.25612567  0.02877096  0.19819303  1  0  -0.050053  0  3.779857  0  0  -0.074199  0  4.031488  0  0  -0.07089  0  4.050795  0  0  -0.08665  -0.075981  0  4.018187  0
C  C79  1  0.69681915  0.88503716  0.84650085  1  0  -0.220643  0  3.784765  0  0  -0.238458  0  4.03419  0  0  -0.246717  0  4.055635  0  0  -0.114687  -0.233076  0  4.019953  0
C  C80  1  0.30318154  0.11496389  0.15349900  1  0  -0.220606  0  3.784829  0  0  -0.238434  0  4.034229  0  0  -0.246682  0  4.055678  0  0  -0.114666  -0.233045  0  4.019986  0
C  C81  1  0.87570858  0.18796256  0.83471737  1  0  0.662885  0  3.92017  0  0  0.613731  0  4.210031  0  0  0.649899  0  4.201872  0  0  0.20392  0.589214  0  4.214619  0
C  C82  1  0.12429283  0.81204036  0.16528567  1  0  0.662966  0  3.920054  0  0  0.613825  0  4.209903  0  0  0.649994  0  4.20174  0  0  0.203939  0.589298  0  4.21451  0
C  C83  1  0.86373153  0.53394891  0.57427025  1  0  0.593933  0  3.744592  0  0  0.551995  0  4.024418  0  0  0.582529  0  4.024202  0  0  0.244426  0.531275  0  4.024142  0
C  C84  1  0.13626815  0.46604656  0.42572670  1  0  0.59385  0  3.74472  0  0  0.552033  0  4.024409  0  0  0.582565  0  4.024186  0  0  0.244405  0.531313  0  4.024131  0
C  C85  1  0.99145416  0.64457767  0.67108076  1  0  -0.441749  0  3.655922  0  0  -0.519982  0  3.891672  0  0  -0.526462  0  3.893436  0  0  -0.240883  -0.515315  0  3.890496  0
C  C86  1  0.00854340  0.35541781  0.32891740  1  0  -0.441811  0  3.656009  0  0  -0.520043  0  3.891686  0  0  -0.526544  0  3.893505  0  0  -0.240938  -0.515374  0  3.890499  0
C  C87  1  0.61666284  0.44322045  0.42017387  1  0  -0.170323  0  3.663549  0  0  -0.272905  0  3.914974  0  0  -0.268248  0  3.924655  0  0  -0.141662  -0.275731  0  3.908255  0
C  C88  1  0.38333645  0.55677688  0.57982364  1  0  -0.170412  0  3.66351  0  0  -0.272952  0  3.914972  0  0  -0.268302  0  3.924648  0  0  -0.141624  -0.275786  0  3.908261  0
C  C89  1  0.73554418  0.67668700  0.51990736  1  0  -0.172551  0  3.639974  0  0  -0.2692  0  3.881832  0  0  -0.266078  0  3.892203  0  0  -0.134732  -0.270952  0  3.874965  0
C  C90  1  0.26445373  0.32330941  0.48009118  1  0  -0.172782  0  3.640206  0  0  -0.269413  0  3.88206  0  0  -0.266292  0  3.892421  0  0  -0.134808  -0.271164  0  3.875194  0
C  C91  1  0.76281835  0.07456099  0.42122769  1  0  0.579383  0  3.756305  0  0  0.537341  0  4.036328  0  0  0.5672  0  4.037635  0  0  0.242238  0.517127  0  4.034732  0
C  C92  1  0.23717813  0.92543729  0.57877282  1  0  0.579501  0  3.755992  0  0  0.537393  0  4.036088  0  0  0.567246  0  4.037402  0  0  0.242265  0.51718  0  4.034493  0
C  C93  1  0.61697661  0.09089167  0.43421535  1  0  -0.456906  0  3.662075  0  0  -0.533992  0  3.893376  0  0  -0.540534  0  3.895225  0  0  -0.243356  -0.529178  0  3.891801  0
C  C94  1  0.38302163  0.90910848  0.56578613  1  0  -0.456923  0  3.662033  0  0  -0.534042  0  3.893319  0  0  -0.540585  0  3.89517  0  0  -0.243328  -0.529229  0  3.891747  0
C  C95  1  0.90454309  0.95001190  0.32503573  1  0  -0.171838  0  3.644178  0  0  -0.277504  0  3.901608  0  0  -0.273379  0  3.910152  0  0  -0.142585  -0.280085  0  3.895856  0
C  C96  1  0.09545266  0.04998732  0.67496413  1  0  -0.171815  0  3.644076  0  0  -0.277463  0  3.901474  0  0  -0.273346  0  3.910012  0  0  -0.142566  -0.280046  0  3.895722  0
C  C97  1  0.62774034  0.85975354  0.26771822  1  0  -0.167302  0  3.639709  0  0  -0.267808  0  3.888339  0  0  -0.264047  0  3.898432  0  0  -0.132818  -0.270204  0  3.881712  0
C  C98  1  0.37225683  0.14024661  0.73228305  1  0  -0.167401  0  3.639824  0  0  -0.267923  0  3.888419  0  0  -0.264168  0  3.898516  0  0  -0.132845  -0.270316  0  3.881784  0
N  N99  1  0.74074877  0.55298276  0.51123420  1  0  -0.137015  0  3.39855  0  0  -0.036361  0  3.629281  0  0  -0.057769  0  3.652511  0  0  -0.278562  -0.022191  0  3.613311  0
N  N100  1  0.25924914  0.44701365  0.48876434  1  0  -0.136795  0  3.398461  0  0  -0.036262  0  3.629257  0  0  -0.057666  0  3.652487  0  0  -0.278483  -0.022084  0  3.613277  0
N  N101  1  0.76300640  0.96700287  0.33841150  1  0  -0.132236  0  3.405402  0  0  -0.031827  0  3.638075  0  0  -0.052462  0  3.660835  0  0  -0.275381  -0.018013  0  3.622365  0
N  N102  1  0.23699041  0.03299635  0.66158857  1  0  -0.132346  0  3.405318  0  0  -0.031853  0  3.637913  0  0  -0.052488  0  3.660677  0  0  -0.275421  -0.018041  0  3.622206  0
O  O103  1  0.84246943  0.46986327  0.80783354  1  0  -0.720347  0  2.117786  0  0  -0.636028  0  2.385982  0  0  -0.670328  0  2.372911  0  0  -0.341198  -0.611851  0  2.395526  0
O  O104  1  0.15753801  0.53013868  0.19216794  1  0  -0.720345  0  2.117865  0  0  -0.636059  0  2.386084  0  0  -0.670356  0  2.373012  0  0  -0.341248  -0.6119  0  2.395625  0
O  O105  1  0.62172396  0.34223594  0.66287509  1  0  -0.61408  0  1.921582  0  0  -0.565198  0  2.14838  0  0  -0.5903  0  2.141043  0  0  -0.311757  -0.547174  0  2.152769  0
O  O106  1  0.37828388  0.65776416  0.33712828  1  0  -0.614054  0  1.921695  0  0  -0.565178  0  2.148475  0  0  -0.59028  0  2.141141  0  0  -0.311732  -0.547159  0  2.152866  0
O  O107  1  0.15819924  0.39254294  0.75491355  1  0  -0.65061  0  1.995833  0  0  -0.584566  0  2.250422  0  0  -0.613704  0  2.237213  0  0  -0.329442  -0.563438  0  2.259112  0
O  O108  1  0.84180353  0.60746089  0.24508684  1  0  -0.650599  0  1.995816  0  0  -0.584544  0  2.250417  0  0  -0.613682  0  2.237204  0  0  -0.329397  -0.563412  0  2.2591  0
O  O109  1  0.18499434  0.55489460  0.93186493  1  0  -0.659472  0  2.027937  0  0  -0.598294  0  2.287494  0  0  -0.627572  0  2.27581  0  0  -0.330045  -0.57666  0  2.295096  0
O  O110  1  0.81500697  0.44510830  0.06813080  1  0  -0.659485  0  2.027999  0  0  -0.598268  0  2.287549  0  0  -0.627546  0  2.275863  0  0  -0.330031  -0.576624  0  2.295156  0
O  O111  1  0.68679548  0.84766271  0.02744331  1  0  -0.301982  0  2.364196  0  0  -0.229317  0  2.58717  0  0  -0.247728  0  2.590099  0  0  -0.149215  -0.216169  0  2.584778  0
O  O112  1  0.31320306  0.15233835  0.97255530  1  0  -0.301946  0  2.364245  0  0  -0.229349  0  2.587247  0  0  -0.247731  0  2.590161  0  0  -0.1492  -0.216195  0  2.584856  0
O  O113  1  0.97547794  0.29000300  0.91111283  1  0  -0.690532  0  2.058263  0  0  -0.628585  0  2.321874  0  0  -0.656506  0  2.307665  0  0  -0.338807  -0.609061  0  2.331121  0
O  O114  1  0.02452702  0.70999804  0.08888785  1  0  -0.690556  0  2.058181  0  0  -0.628631  0  2.321807  0  0  -0.656553  0  2.307599  0  0  -0.338794  -0.609093  0  2.331055  0
O  O115  1  0.81694344  0.15826973  0.71908514  1  0  -0.658018  0  2.003746  0  0  -0.591281  0  2.25012  0  0  -0.622358  0  2.240107  0  0  -0.330416  -0.569454  0  2.256485  0
O  O116  1  0.18305652  0.84173506  0.28091825  1  0  -0.65806  0  2.003727  0  0  -0.591296  0  2.250052  0  0  -0.622374  0  2.240035  0  0  -0.330424  -0.569444  0  2.256418  0
O  O117  1  0.86938351  0.42398591  0.54907600  1  0  -0.628663  0  2.042721  0  0  -0.568448  0  2.300509  0  0  -0.595686  0  2.290613  0  0  -0.319138  -0.549397  0  2.307014  0
O  O118  1  0.13061828  0.57600953  0.45091975  1  0  -0.628666  0  2.042757  0  0  -0.568493  0  2.300508  0  0  -0.595726  0  2.290599  0  0  -0.319136  -0.549441  0  2.307008  0
O  O119  1  0.88479941  0.16183192  0.48754391  1  0  -0.620898  0  2.006154  0  0  -0.558619  0  2.255364  0  0  -0.586149  0  2.245719  0  0  -0.317315  -0.539063  0  2.261228  0
O  O120  1  0.11519561  0.83816824  0.51245613  1  0  -0.620964  0  2.005946  0  0  -0.55866  0  2.255172  0  0  -0.586188  0  2.24553  0  0  -0.317329  -0.539111  0  2.261042  0
