# generated using pymatgen
data_CdH24(C19N9)2
_symmetry_space_group_name_H-M   'P 1'
_cell_length_a   7.95963006
_cell_length_b   9.42556058
_cell_length_c   12.79038461
_cell_angle_alpha   87.92389032
_cell_angle_beta   85.08184568
_cell_angle_gamma   70.97961062
_symmetry_Int_Tables_number   1
_chemical_formula_structural   CdH24(C19N9)2
_chemical_formula_sum   'Cd1 H24 C38 N18'
_cell_volume   903.81957937
_cell_formula_units_Z   1
loop_
 _symmetry_equiv_pos_site_id
 _symmetry_equiv_pos_as_xyz
  1  'x, y, z'
loop_
 _atom_site_type_symbol
 _atom_site_label
 _atom_site_symmetry_multiplicity
 _atom_site_fract_x
 _atom_site_fract_y
 _atom_site_fract_z
 _atom_site_occupancy
 _atom_site_hle17_bader_spin_density
 _atom_site_hle17_ddec_charge
 _atom_site_hle17_ddec_spin_density
 _atom_site_hle17_ddec_sum_bond_order
 _atom_site_hle17_magmom
 _atom_site_hse06_10hf_bader_spin_density
 _atom_site_hse06_10hf_ddec_charge
 _atom_site_hse06_10hf_ddec_spin_density
 _atom_site_hse06_10hf_ddec_sum_bond_order
 _atom_site_hse06_10hf_magmom
 _atom_site_hse06_bader_spin_density
 _atom_site_hse06_ddec_charge
 _atom_site_hse06_ddec_spin_density
 _atom_site_hse06_ddec_sum_bond_order
 _atom_site_hse06_magmom
 _atom_site_pbe_bader_spin_density
 _atom_site_pbe_cm5_charge
 _atom_site_pbe_ddec_charge
 _atom_site_pbe_ddec_spin_density
 _atom_site_pbe_ddec_sum_bond_order
 _atom_site_pbe_magmom
Cd  Cd0  1  0.99999801  0.49999966  0.50000151  1  0  1.015298  0  1.898509  0  0  0.803204  0  2.373285  0  0  0.852229  0  2.333891  0  0  0.805741  0.769522  0  2.40019  0
H  H1  1  0.19447456  0.51030422  0.96743665  1  0  0.065816  0  0.965946  0  0  0.067512  0  1.042233  0  0  0.070407  0  1.040156  0  0  0.105195  0.066236  0  1.042701  0
H  H2  1  0.80553890  0.48969431  0.03255908  1  0  0.065769  0  0.965944  0  0  0.067501  0  1.04218  0  0  0.070395  0  1.040105  0  0  0.105224  0.066226  0  1.042647  0
H  H3  1  0.33619235  0.50461768  0.13319607  1  0  0.102648  0  0.943652  0  0  0.117234  0  0.996657  0  0  0.119882  0  0.995854  0  0  0.110684  0.115304  0  0.997323  0
H  H4  1  0.66381429  0.49538530  0.86680064  1  0  0.102683  0  0.943661  0  0  0.117241  0  0.996693  0  0  0.119891  0  0.995886  0  0  0.110694  0.11531  0  0.997362  0
H  H5  1  0.42148309  0.26475408  0.23980747  1  0  0.08884  0  0.957364  0  0  0.102059  0  1.016715  0  0  0.103755  0  1.016417  0  0  0.103696  0.100885  0  1.016905  0
H  H6  1  0.57851454  0.73525217  0.76019425  1  0  0.08887  0  0.957308  0  0  0.102015  0  1.016728  0  0  0.103713  0  1.016427  0  0  0.103688  0.10084  0  1.016923  0
H  H7  1  0.37388541  0.03642965  0.16736128  1  0  0.119205  0  0.941835  0  0  0.126916  0  1.00614  0  0  0.130968  0  1.003284  0  0  0.110858  0.124008  0  1.008133  0
H  H8  1  0.62610958  0.96357318  0.83264765  1  0  0.119128  0  0.941893  0  0  0.126869  0  1.006161  0  0  0.130923  0  1.0033  0  0  0.110792  0.123963  0  1.008157  0
H  H9  1  0.93855242  0.97401957  0.73673304  1  0  0.123929  0  0.964522  0  0  0.129835  0  1.030558  0  0  0.133011  0  1.029377  0  0  0.109621  0.127421  0  1.031528  0
H  H10  1  0.06144566  0.02598218  0.26327109  1  0  0.123956  0  0.964579  0  0  0.129885  0  1.030566  0  0  0.133062  0  1.029386  0  0  0.109635  0.12747  0  1.031536  0
H  H11  1  0.88541731  0.83087445  0.59647508  1  0  0.079251  0  0.956606  0  0  0.085577  0  1.024972  0  0  0.087501  0  1.023306  0  0  0.113698  0.08409  0  1.026372  0
H  H12  1  0.11457656  0.16912500  0.40353161  1  0  0.079306  0  0.956481  0  0  0.085616  0  1.024856  0  0  0.08754  0  1.023187  0  0  0.113724  0.084131  0  1.026256  0
H  H13  1  0.28381021  0.44237037  0.67883364  1  0  0.077176  0  0.935409  0  0  0.087615  0  0.993715  0  0  0.089016  0  0.993658  0  0  0.117111  0.086566  0  0.993777  0
H  H14  1  0.71618003  0.55762907  0.32116851  1  0  0.077204  0  0.935266  0  0  0.087635  0  0.9936  0  0  0.089037  0  0.99354  0  0  0.117137  0.086587  0  0.993662  0
H  H15  1  0.35598908  0.57205251  0.82665696  1  0  0.11063  0  0.954436  0  0  0.121068  0  1.013972  0  0  0.124041  0  1.01308  0  0  0.113413  0.118658  0  1.015256  0
H  H16  1  0.64400879  0.42794701  0.17334175  1  0  0.110652  0  0.954401  0  0  0.121075  0  1.013962  0  0  0.124064  0  1.013052  0  0  0.113425  0.118665  0  1.015246  0
H  H17  1  0.38500012  0.98207140  0.70123658  1  0  0.125145  0  0.948568  0  0  0.131952  0  1.014085  0  0  0.135242  0  1.013003  0  0  0.114077  0.129422  0  1.015344  0
H  H18  1  0.61499379  0.01793145  0.29876614  1  0  0.125129  0  0.948532  0  0  0.131929  0  1.014056  0  0  0.135216  0  1.012974  0  0  0.114061  0.129398  0  1.015316  0
H  H19  1  0.70029297  0.84768660  0.45185690  1  0  0.072109  0  0.96106  0  0  0.082011  0  1.023793  0  0  0.083286  0  1.023138  0  0  0.11636  0.081113  0  1.024283  0
H  H20  1  0.29970224  0.15231626  0.54814420  1  0  0.072018  0  0.960997  0  0  0.081914  0  1.023756  0  0  0.083188  0  1.023102  0  0  0.116324  0.081014  0  1.024247  0
H  H21  1  0.16114586  0.58214240  0.28966960  1  0  0.080531  0  0.964405  0  0  0.087719  0  1.030731  0  0  0.090037  0  1.028866  0  0  0.112976  0.085953  0  1.032457  0
H  H22  1  0.83884838  0.41785930  0.71033704  1  0  0.080513  0  0.964444  0  0  0.08771  0  1.030758  0  0  0.090028  0  1.028892  0  0  0.112968  0.085944  0  1.032485  0
H  H23  1  0.90687911  0.25911180  0.87407453  1  0  0.130959  0  0.972304  0  0  0.132548  0  1.045321  0  0  0.136962  0  1.041845  0  0  0.114547  0.129273  0  1.048148  0
H  H24  1  0.09312064  0.74088544  0.12593353  1  0  0.131014  0  0.972334  0  0  0.132627  0  1.045325  0  0  0.137041  0  1.041848  0  0  0.114588  0.129351  0  1.048154  0
C  C25  1  0.23882052  0.40595612  0.01245515  1  0  0.127683  0  3.731621  0  0  0.106402  0  3.987977  0  0  0.111195  0  4.005019  0  0  0.04466  0.10256  0  3.97678  0
C  C26  1  0.76119166  0.59404240  0.98754142  1  0  0.127743  0  3.73161  0  0  0.10646  0  3.987938  0  0  0.111253  0  4.00498  0  0  0.044649  0.102618  0  3.976741  0
C  C27  1  0.31568190  0.40330122  0.10679595  1  0  -0.113191  0  3.721093  0  0  -0.129743  0  3.972701  0  0  -0.135013  0  3.994265  0  0  -0.082552  -0.125396  0  3.957955  0
C  C28  1  0.68432211  0.59670172  0.89320478  1  0  -0.113305  0  3.721181  0  0  -0.129835  0  3.972767  0  0  -0.135106  0  3.994332  0  0  -0.082598  -0.125486  0  3.958018  0
C  C29  1  0.36479369  0.26967255  0.16464819  1  0  -0.015723  0  3.743764  0  0  -0.035059  0  3.997751  0  0  -0.033808  0  4.019089  0  0  -0.075606  -0.035655  0  3.982198  0
C  C30  1  0.63520699  0.73032924  0.83535270  1  0  -0.015656  0  3.743645  0  0  -0.03493  0  3.997607  0  0  -0.033677  0  4.018946  0  0  -0.075548  -0.035526  0  3.982053  0
C  C31  1  0.33908890  0.14343974  0.12524925  1  0  -0.134581  0  3.691004  0  0  -0.157375  0  3.940643  0  0  -0.162754  0  3.961663  0  0  -0.081539  -0.15263  0  3.925329  0
C  C32  1  0.66091376  0.85656318  0.87475466  1  0  -0.134626  0  3.691077  0  0  -0.157406  0  3.940676  0  0  -0.162786  0  3.9617  0  0  -0.081525  -0.152667  0  3.92537  0
C  C33  1  0.26453557  0.15647784  0.02807942  1  0  0.157863  0  3.808404  0  0  0.161797  0  4.056687  0  0  0.166211  0  4.075755  0  0  0.119374  0.158666  0  4.044061  0
C  C34  1  0.73546979  0.84351835  0.97192374  1  0  0.157885  0  3.808457  0  0  0.161846  0  4.056908  0  0  0.16626  0  4.07598  0  0  0.119368  0.158697  0  4.044274  0
C  C35  1  0.24003067  0.02338770  0.98507157  1  0  0.233376  0  3.706511  0  0  0.199697  0  3.98176  0  0  0.210966  0  3.996274  0  0  0.225706  0.191675  0  3.972606  0
C  C36  1  0.75997247  0.97661071  0.01493398  1  0  0.233486  0  3.706137  0  0  0.199457  0  3.98187  0  0  0.21072  0  3.996393  0  0  0.225656  0.191492  0  3.972634  0
C  C37  1  0.19559126  0.85872171  0.88293310  1  0  0.241281  0  3.735063  0  0  0.207982  0  4.012433  0  0  0.218896  0  4.027063  0  0  0.221464  0.201262  0  4.002175  0
C  C38  1  0.80441327  0.14127673  0.11706770  1  0  0.241208  0  3.735164  0  0  0.20784  0  4.012575  0  0  0.218749  0  4.027208  0  0  0.221437  0.201116  0  4.002323  0
C  C39  1  0.15457246  0.78465407  0.79488117  1  0  0.053088  0  3.787696  0  0  0.06485  0  4.028177  0  0  0.067676  0  4.048266  0  0  0.014181  0.063207  0  4.014749  0
C  C40  1  0.84542757  0.21533983  0.20511991  1  0  0.05325  0  3.787636  0  0  0.065093  0  4.028028  0  0  0.067927  0  4.04812  0  0  0.014265  0.063448  0  4.014603  0
C  C41  1  0.02150392  0.85719312  0.72810914  1  0  -0.135803  0  3.684447  0  0  -0.156869  0  3.931821  0  0  -0.162915  0  3.95212  0  0  -0.076703  -0.152735  0  3.918481  0
C  C42  1  0.97849086  0.14280748  0.27189437  1  0  -0.13589  0  3.684604  0  0  -0.157008  0  3.931978  0  0  -0.163061  0  3.952279  0  0  -0.076761  -0.152874  0  3.918641  0
C  C43  1  0.98977162  0.77547819  0.64818728  1  0  0.148532  0  3.68691  0  0  0.118736  0  3.937105  0  0  0.125777  0  3.954767  0  0  0.053132  0.113549  0  3.925355  0
C  C44  1  0.01022230  0.22452126  0.35181785  1  0  0.148532  0  3.686822  0  0  0.118773  0  3.936998  0  0  0.125816  0  3.954659  0  0  0.053176  0.113583  0  3.925252  0
C  C45  1  0.21008591  0.56009371  0.69502996  1  0  0.138507  0  3.711932  0  0  0.107543  0  3.964345  0  0  0.11398  0  3.983592  0  0  0.048393  0.103274  0  3.952045  0
C  C46  1  0.78991032  0.43990354  0.30496965  1  0  0.138527  0  3.711732  0  0  0.107573  0  3.964162  0  0  0.11401  0  3.983415  0  0  0.048383  0.103304  0  3.951863  0
C  C47  1  0.25036265  0.63233123  0.77720342  1  0  -0.138426  0  3.693267  0  0  -0.157511  0  3.940592  0  0  -0.163359  0  3.959882  0  0  -0.075921  -0.154124  0  3.928191  0
C  C48  1  0.74963779  0.36766493  0.22279604  1  0  -0.138529  0  3.693233  0  0  -0.157633  0  3.940565  0  0  -0.163498  0  3.959851  0  0  -0.076007  -0.154247  0  3.928168  0
C  C49  1  0.15158555  0.10971525  0.79946357  1  0  0.241694  0  3.747159  0  0  0.229817  0  3.997431  0  0  0.239509  0  4.014893  0  0  0.11697  0.223245  0  3.985666  0
C  C50  1  0.84841549  0.89028540  0.20054046  1  0  0.241875  0  3.746995  0  0  0.229924  0  3.997336  0  0  0.239617  0  4.014794  0  0  0.117025  0.22335  0  3.985574  0
C  C51  1  0.26386239  0.07837577  0.70758295  1  0  -0.179991  0  3.690672  0  0  -0.202024  0  3.945191  0  0  -0.208895  0  3.964673  0  0  -0.076844  -0.197291  0  3.932132  0
C  C52  1  0.73613502  0.92162147  0.29241896  1  0  -0.180103  0  3.690625  0  0  -0.202083  0  3.945193  0  0  -0.20895  0  3.964672  0  0  -0.07692  -0.19735  0  3.932133  0
C  C53  1  0.21558952  0.17338311  0.62148287  1  0  0.138856  0  3.716749  0  0  0.109275  0  3.967973  0  0  0.115451  0  3.987493  0  0  0.050362  0.104858  0  3.954395  0
C  C54  1  0.78440275  0.82661746  0.37852074  1  0  0.138843  0  3.7166  0  0  0.109225  0  3.967855  0  0  0.115401  0  3.987374  0  0  0.050407  0.104808  0  3.954276  0
C  C55  1  0.04079239  0.67912375  0.28689256  1  0  0.140873  0  3.694785  0  0  0.111638  0  3.944923  0  0  0.117811  0  3.963121  0  0  0.048715  0.107627  0  3.932919  0
C  C56  1  0.95920326  0.32087460  0.71311174  1  0  0.140875  0  3.694771  0  0  0.111626  0  3.944915  0  0  0.1178  0  3.963111  0  0  0.04875  0.107615  0  3.932911  0
C  C57  1  0.99647342  0.23337324  0.80319892  1  0  -0.162799  0  3.679369  0  0  -0.188254  0  3.941868  0  0  -0.193371  0  3.957086  0  0  -0.071534  -0.18502  0  3.931763  0
C  C58  1  0.00352804  0.76662628  0.19680589  1  0  -0.162832  0  3.679308  0  0  -0.188306  0  3.94184  0  0  -0.193422  0  3.957055  0  0  -0.071501  -0.185071  0  3.931734  0
C  C59  1  0.56736726  0.67090302  0.55551154  1  0  0.489303  0  4.033585  0  0  0.451508  0  4.322691  0  0  0.478693  0  4.332658  0  0  0.293595  0.432967  0  4.315754  0
C  C60  1  0.43262835  0.32911227  0.44447991  1  0  0.489125  0  4.033709  0  0  0.451399  0  4.322824  0  0  0.478583  0  4.332792  0  0  0.293443  0.43286  0  4.315888  0
C  C61  1  0.35023853  0.83472811  0.46179889  1  0  0.444918  0  4.020559  0  0  0.419514  0  4.309909  0  0  0.441165  0  4.323211  0  0  0.266779  0.40495  0  4.300303  0
C  C62  1  0.64976673  0.16527383  0.53817366  1  0  0.444985  0  4.020629  0  0  0.419651  0  4.309961  0  0  0.441308  0  4.323255  0  0  0.266788  0.405085  0  4.30036  0
N  N63  1  0.21384632  0.28543043  0.97280296  1  0  -0.328265  0  3.061301  0  0  -0.296303  0  3.317928  0  0  -0.306738  0  3.333937  0  0  -0.314734  -0.28923  0  3.307776  0
N  N64  1  0.78616789  0.71456585  0.02719748  1  0  -0.32825  0  3.061392  0  0  -0.296273  0  3.31802  0  0  -0.306708  0  3.33403  0  0  -0.314747  -0.289201  0  3.307874  0
N  N65  1  0.27107236  0.89381465  0.03728698  1  0  -0.254318  0  2.941909  0  0  -0.238605  0  3.235291  0  0  -0.246688  0  3.24848  0  0  -0.220006  -0.233092  0  3.226525  0
N  N66  1  0.72893179  0.10618153  0.96271467  1  0  -0.254321  0  2.941715  0  0  -0.238496  0  3.235193  0  0  -0.246577  0  3.248384  0  0  -0.219949  -0.233003  0  3.226411  0
N  N67  1  0.24317711  0.79163934  0.97404739  1  0  -0.261231  0  2.966561  0  0  -0.240965  0  3.262836  0  0  -0.249344  0  3.276399  0  0  -0.21467  -0.235808  0  3.252998  0
N  N68  1  0.75682495  0.20835908  0.02595195  1  0  -0.261205  0  2.966483  0  0  -0.240916  0  3.26275  0  0  -0.249293  0  3.276312  0  0  -0.214659  -0.23576  0  3.252918  0
N  N69  1  0.19008866  0.00683391  0.88626909  1  0  -0.189811  0  3.452534  0  0  -0.105817  0  3.665957  0  0  -0.122778  0  3.687324  0  0  -0.201982  -0.094347  0  3.651716  0
N  N70  1  0.80991105  0.99317011  0.11373493  1  0  -0.189889  0  3.452522  0  0  -0.105712  0  3.666013  0  0  -0.122672  0  3.687384  0  0  -0.201963  -0.094252  0  3.651742  0
N  N71  1  0.08110893  0.62981476  0.63156747  1  0  -0.328929  0  3.25824  0  0  -0.252354  0  3.522901  0  0  -0.271473  0  3.543077  0  0  -0.325841  -0.239509  0  3.51002  0
N  N72  1  0.91888457  0.37018582  0.36843687  1  0  -0.329049  0  3.258235  0  0  -0.252486  0  3.522879  0  0  -0.271606  0  3.543054  0  0  -0.325892  -0.239642  0  3.510002  0
N  N73  1  0.06662703  0.29282138  0.62380610  1  0  -0.332188  0  3.234799  0  0  -0.258057  0  3.497556  0  0  -0.276368  0  3.517399  0  0  -0.323395  -0.244989  0  3.483721  0
N  N74  1  0.93336951  0.70717472  0.37619821  1  0  -0.332256  0  3.234737  0  0  -0.258096  0  3.49748  0  0  -0.276411  0  3.517332  0  0  -0.323456  -0.245028  0  3.483648  0
N  N75  1  0.70453654  0.57799578  0.57233907  1  0  -0.63235  0  2.799934  0  0  -0.582759  0  3.081015  0  0  -0.604822  0  3.083642  0  0  -0.409725  -0.567618  0  3.07916  0
N  N76  1  0.29545338  0.42201378  0.42766602  1  0  -0.632267  0  2.800195  0  0  -0.582677  0  3.081278  0  0  -0.604739  0  3.083903  0  0  -0.409674  -0.56754  0  3.079424  0
N  N77  1  0.41546896  0.77360551  0.54933737  1  0  -0.468866  0  3.318067  0  0  -0.417879  0  3.581446  0  0  -0.442009  0  3.58966  0  0  -0.319447  -0.401127  0  3.575161  0
N  N78  1  0.58452350  0.22639967  0.45064113  1  0  -0.468775  0  3.318239  0  0  -0.417922  0  3.58169  0  0  -0.442052  0  3.589899  0  0  -0.319364  -0.401162  0  3.575387  0
N  N79  1  0.28240673  0.89915366  0.38763291  1  0  -0.563295  0  2.586189  0  0  -0.542726  0  2.812561  0  0  -0.557112  0  2.821345  0  0  -0.377918  -0.532849  0  2.806348  0
N  N80  1  0.71760519  0.10083484  0.61233729  1  0  -0.563369  0  2.586067  0  0  -0.542816  0  2.81242  0  0  -0.557205  0  2.821204  0  0  -0.377936  -0.532938  0  2.806205  0
