# generated using pymatgen
data_Zn4H29C42Cl6O13
_symmetry_space_group_name_H-M   'P 1'
_cell_length_a   18.26184408
_cell_length_b   18.35659961
_cell_length_c   18.32071321
_cell_angle_alpha   59.75490661
_cell_angle_beta   60.12218146
_cell_angle_gamma   60.01170739
_symmetry_Int_Tables_number   1
_chemical_formula_structural   Zn4H29C42Cl6O13
_chemical_formula_sum   'Zn8 H58 C84 Cl12 O26'
_cell_volume   4338.99969906
_cell_formula_units_Z   2
loop_
 _symmetry_equiv_pos_site_id
 _symmetry_equiv_pos_as_xyz
  1  'x, y, z'
loop_
 _atom_site_type_symbol
 _atom_site_label
 _atom_site_symmetry_multiplicity
 _atom_site_fract_x
 _atom_site_fract_y
 _atom_site_fract_z
 _atom_site_occupancy
 _atom_site_pbe_bader_charge
 _atom_site_pbe_bader_spin_density
 _atom_site_pbe_cm5_charge
 _atom_site_pbe_ddec_charge
 _atom_site_pbe_ddec_spin_density
 _atom_site_pbe_ddec_sum_bond_order
 _atom_site_pbe_magmom
Zn  Zn0  1  0.45751254  0.46261088  0.94964370  1  1.308468  0  0.669773  0.948094  0  2.38776  0
Zn  Zn1  1  0.45908685  0.45786747  0.13081962  1  1.299323  0  0.672564  0.977805  0  2.353588  0
Zn  Zn2  1  0.44873866  0.63106397  0.96021770  1  1.307278  0  0.675701  0.975259  0  2.334612  0
Zn  Zn3  1  0.63204617  0.45194923  0.95397819  1  1.311404  0  0.673515  0.974901  0  2.336772  0
Zn  Zn4  1  0.04224548  0.04903228  0.54335957  1  1.309282  0  0.672819  0.957636  0  2.358228  0
Zn  Zn5  1  0.04273905  0.87114872  0.54421167  1  1.306558  0  0.672842  0.949959  0  2.392468  0
Zn  Zn6  1  0.04383799  0.04767942  0.36935019  1  1.298379  0  0.672392  0.971684  0  2.356981  0
Zn  Zn7  1  0.86958870  0.03699839  0.55225038  1  1.308983  0  0.674566  0.959986  0  2.375688  0
H  H8  1  0.77178838  0.38264319  0.71209406  1  0.023235  0  0.093681  0.065085  0  0.986131  0
H  H9  1  0.71622728  0.56377828  0.18604281  1  0.102591  0  0.10606  0.118904  0  0.986906  0
H  H10  1  0.79026557  0.47151437  0.30171653  1  0.035016  0  0.10246  0.103081  0  0.995131  0
H  H11  1  0.78100922  0.32016232  0.58986482  1  0.026648  0  0.091032  0.059667  0  0.985519  0
H  H12  1  0.01096959  0.85281604  0.34947581  1  0.092191  0  0.105404  0.123316  0  1.006179  0
H  H13  1  0.19849673  0.40473281  0.20470904  1  0.07708  0  0.109204  0.116129  0  0.983977  0
H  H14  1  0.81792174  0.25520841  0.82096147  1  0.025855  0  0.094624  0.098451  0  0.989049  0
H  H15  1  0.58280651  0.31034223  0.77853999  1  0.057349  0  0.095663  0.072457  0  0.979592  0
H  H16  1  0.18903976  0.49426731  0.95341326  1  0.05692  0  0.092017  0.133158  0  0.989386  0
H  H17  1  0.30289001  0.45536945  0.94132699  1  0.100001  0  0.091858  0.142694  0  1.013527  0
H  H18  1  0.23008130  0.55738998  0.96311463  1  0.007596  0  0.089337  0.128412  0  1.007247  0
H  H19  1  0.69909203  0.13571674  0.76733973  1  0.038271  0  0.093495  0.065604  0  0.981006  0
H  H20  1  0.22586558  0.72399860  0.52993335  1  0.075399  0  0.092996  0.140279  0  1.013667  0
H  H21  1  0.28820420  0.77853739  0.52235697  1  0.033335  0  0.083585  0.113481  0  1.032929  0
H  H22  1  0.34242523  0.67146519  0.51152886  1  0.035201  0  0.095353  0.133973  0  0.981726  0
H  H23  1  0.69986705  0.47491046  0.59574764  1  0.031328  0  0.079931  0.111793  0  1.0265  0
H  H24  1  0.62359457  0.41522778  0.65372403  1  0.001627  0  0.086276  0.118781  0  1.033022  0
H  H25  1  0.61975146  0.48018757  0.70184271  1  -0.001462  0  0.085887  0.125148  0  1.012435  0
H  H26  1  0.67158476  0.60598972  0.63889611  1  0.053424  0  0.087711  0.128576  0  1.03034  0
H  H27  1  0.68955990  0.53813272  0.74295455  1  0.074976  0  0.092653  0.13751  0  1.013035  0
H  H28  1  0.61279766  0.64946967  0.72712298  1  0.040986  0  0.0949  0.141351  0  1.008134  0
H  H29  1  0.72016396  0.10612815  0.22335859  1  0.086284  0  0.083681  0.127354  0  1.040316  0
H  H30  1  0.74926832  0.19111761  0.90861386  1  -0.007179  0  0.090791  0.092214  0  0.985588  0
H  H31  1  0.61997548  0.19922259  0.22213722  1  0.034783  0  0.091455  0.136781  0  1.002981  0
H  H32  1  0.71491859  0.20051153  0.12398309  1  0.082677  0  0.094537  0.144146  0  0.989702  0
H  H33  1  0.80272719  0.25982968  0.44787745  1  0.051193  0  0.093161  0.136849  0  1.014311  0
H  H34  1  0.90921356  0.25279281  0.36324274  1  0.037268  0  0.090053  0.127867  0  1.026768  0
H  H35  1  0.84628599  0.34775345  0.39706109  1  0.028577  0  0.093743  0.130405  0  0.9992  0
H  H36  1  0.15187743  0.62635144  0.13788860  1  0.044789  0  0.080693  0.125228  0  1.046983  0
H  H37  1  0.24297568  0.66536648  0.08452952  1  0.068441  0  0.095225  0.15205  0  1.016085  0
H  H38  1  0.24006419  0.56908038  0.18297882  1  0.046867  0  0.094618  0.145205  0  1.001105  0
H  H39  1  0.30412702  0.80284469  0.36551460  1  0.07285  0  0.091331  0.131478  0  1.025554  0
H  H40  1  0.39657557  0.79655816  0.26559289  1  0.048976  0  0.084453  0.127005  0  1.040108  0
H  H41  1  0.78963457  0.10107912  0.83110841  1  0.032499  0  0.092656  0.055508  0  0.979453  0
H  H42  1  0.30088723  0.89496333  0.26497259  1  0.071466  0  0.095539  0.141818  0  0.991004  0
H  H43  1  0.92141655  0.28632407  0.65868679  1  0.013812  0  0.086271  0.118799  0  1.018093  0
H  H44  1  0.94464249  0.27049928  0.56040079  1  0.068314  0  0.083441  0.125706  0  1.031928  0
H  H45  1  0.88582925  0.37891162  0.57012487  1  0.019164  0  0.073937  0.103615  0  1.048406  0
H  H46  1  0.53160248  0.88466173  0.32053434  1  0.05711  0  0.097789  0.143701  0  0.97959  0
H  H47  1  0.43444616  0.87376693  0.33207127  1  0.065328  0  0.08672  0.131143  0  1.037065  0
H  H48  1  0.52132793  0.89073875  0.22668835  1  0.067928  0  0.095345  0.140519  0  0.986528  0
H  H49  1  0.04409098  0.30462161  0.38413916  1  0.069902  0  0.098407  0.14478  0  0.995487  0
H  H50  1  0.05556711  0.39892334  0.28450984  1  0.041837  0  0.094949  0.129744  0  0.997567  0
H  H51  1  0.03727583  0.31063445  0.28799337  1  0.048134  0  0.097771  0.140442  0  0.992177  0
H  H52  1  0.29909883  0.54056005  0.63975217  1  0.064905  0  0.108328  0.126762  0  0.982645  0
H  H53  1  0.95236954  0.04945112  0.76469936  1  0.033211  0  0.081464  0.113679  0  1.018732  0
H  H54  1  0.95813966  0.15288476  0.74153770  1  0.032118  0  0.087724  0.122082  0  1.02004  0
H  H55  1  0.92006090  0.08418967  0.85395810  1  0.028585  0  0.0877  0.119827  0  0.994855  0
H  H56  1  0.64801995  0.13702711  0.92288621  1  0.010742  0  0.075959  0.100099  0  1.046917  0
H  H57  1  0.54917984  0.22979982  0.94042140  1  0.052345  0  0.074565  0.111547  0  1.054459  0
H  H58  1  0.56102786  0.16549367  0.88606253  1  0.014802  0  0.085965  0.121681  0  0.995616  0
H  H59  1  0.65873481  0.31334314  0.61542826  1  -0.006535  0  0.080491  0.105178  0  1.050854  0
H  H60  1  0.69277058  0.20410349  0.61584919  1  0.010974  0  0.083366  0.124474  0  1.030484  0
H  H61  1  0.58796364  0.24801359  0.69019685  1  0.02969  0  0.08878  0.12337  0  0.996148  0
H  H62  1  0.17847435  0.91558071  0.71917653  1  0.120882  0  0.112373  0.134328  0  0.991051  0
H  H63  1  0.94674828  0.65241533  0.48450975  1  0.096846  0  0.101901  0.117279  0  0.999802  0
H  H64  1  0.93917889  0.74907643  0.54684776  1  0.088463  0  0.103019  0.115803  0  1.023995  0
H  H65  1  0.73161323  0.85608499  0.79276301  1  0.096604  0  0.113272  0.132668  0  0.980242  0
C  C66  1  0.64344324  0.36479426  0.13498902  1  1.603284  0  0.224386  0.619532  0  4.201024  0
C  C67  1  0.26622448  0.66743814  0.64641912  1  0.021772  0  -0.002827  0.148374  0  3.947224  0
C  C68  1  0.24560901  0.71097425  0.70398252  1  0.024806  0  -0.001023  -0.002465  0  3.912125  0
C  C69  1  0.34174494  0.63850296  0.87963688  1  1.519337  0  0.219215  0.600133  0  4.170556  0
C  C70  1  0.26218454  0.65727748  0.78762532  1  0.024907  0  0.009133  0.043749  0  3.895587  0
C  C71  1  0.27846649  0.69687775  0.82730400  1  0.050629  0  -0.016797  -0.143177  0  3.872724  0
C  C72  1  0.25138225  0.78997563  0.79896200  1  0.012177  0  0.023164  0.142974  0  4.027502  0
C  C73  1  0.20929008  0.84372660  0.73302408  1  0.095134  0  -0.088829  -0.166958  0  3.972281  0
C  C74  1  0.20777548  0.80608804  0.68506482  1  -0.040028  0  -0.007367  -0.045108  0  3.925914  0
C  C75  1  0.75208727  0.64074763  0.66177363  1  0.035965  0  -0.009378  0.069725  0  3.903417  0
C  C76  1  0.82347455  0.62887457  0.58461770  1  0.009914  0  0.012939  0.091685  0  4.013971  0
C  C77  1  0.63858232  0.25503730  0.80148593  1  -0.022451  0  -0.087903  0.007714  0  3.778945  0
C  C78  1  0.89228603  0.66507717  0.54437571  1  -0.008726  0  -0.100308  -0.148171  0  4.064242  0
C  C79  1  0.88769272  0.71871866  0.57920821  1  0.001666  0  -0.092773  -0.11863  0  3.996775  0
C  C80  1  0.81718395  0.73408101  0.65782424  1  0.035722  0  -0.001137  0.055131  0  3.968285  0
C  C81  1  0.36831050  0.36113972  0.13320420  1  1.602575  0  0.221336  0.603369  0  4.226564  0
C  C82  1  0.75152072  0.69008653  0.70325457  1  0.002811  0  0.006563  0.029055  0  3.884685  0
C  C83  1  0.68709002  0.69882135  0.78797952  1  0.021202  0  -0.012367  -0.124238  0  3.891233  0
C  C84  1  0.68294191  0.75633020  0.81911509  1  0.039674  0  0.018301  0.134474  0  4.042706  0
C  C85  1  0.73971721  0.80802926  0.76889340  1  0.020145  0  -0.088078  -0.164818  0  3.987182  0
C  C86  1  0.80701239  0.79545771  0.69098307  1  0.005431  0  -0.004802  -0.044915  0  3.940991  0
C  C87  1  0.70825364  0.45246573  0.18455321  1  0.002464  0  0.012199  0.098946  0  4.018026  0
C  C88  1  0.69263535  0.29729089  0.80287158  1  0.025853  0  -0.013611  -0.037587  0  3.766767  0
C  C89  1  0.73135877  0.49157154  0.21379678  1  0.016036  0  -0.102355  -0.152842  0  4.070794  0
C  C90  1  0.77400533  0.43870528  0.27861829  1  -0.006956  0  -0.096439  -0.136659  0  4.028685  0
C  C91  1  0.79650922  0.34664691  0.31404497  1  -0.045222  0  -0.008557  0.124995  0  3.924408  0
C  C92  1  0.77455529  0.30401529  0.28321551  1  0.058729  0  0.004421  0.023173  0  3.887578  0
C  C93  1  0.62936231  0.64039730  0.85058702  1  1.621379  0  0.229381  0.626343  0  4.182807  0
C  C94  1  0.72692601  0.35778742  0.21879146  1  0.05176  0  -0.001883  0.005534  0  3.941311  0
C  C95  1  0.70166628  0.31405401  0.19330789  1  0.009241  0  -0.008914  -0.104301  0  3.87795  0
C  C96  1  0.72361417  0.22159649  0.22457153  1  0.062951  0  -0.003197  0.11187  0  3.931883  0
C  C97  1  0.77395519  0.17043074  0.28366340  1  0.041377  0  0.018705  0.072667  0  3.988434  0
C  C98  1  0.79799152  0.20922860  0.31293249  1  0.007523  0  -0.016337  -0.122811  0  3.938575  0
C  C99  1  0.79846368  0.19821475  0.70028133  1  0.053829  0  -0.007376  -0.077767  0  3.678164  0
C  C100  1  0.15016784  0.69391058  0.20649550  1  0.04241  0  -0.002154  0.097815  0  3.884541  0
C  C101  1  0.05673662  0.72344182  0.23913374  1  0.039759  0  0.005795  0.022584  0  3.989297  0
C  C102  1  0.00661924  0.78146771  0.29028772  1  0.102213  0  0.004455  0.094013  0  4.098155  0
C  C103  1  0.05035230  0.80774965  0.31097582  1  -0.012197  0  -0.09938  -0.19843  0  3.990122  0
C  C104  1  0.14503321  0.77887070  0.28085915  1  0.081024  0  -0.003221  0.072928  0  4.017501  0
C  C105  1  0.35675128  0.63845086  0.14153388  1  1.618299  0  0.226331  0.620264  0  4.206769  0
C  C106  1  0.19661072  0.72181706  0.22746536  1  0.020909  0  0.002657  0.014854  0  3.895839  0
C  C107  1  0.29194002  0.69704953  0.19830619  1  0.019879  0  -0.013273  -0.116032  0  3.914062  0
C  C108  1  0.33121932  0.72831092  0.22016496  1  0.0284  0  0.018848  0.069891  0  3.982677  0
C  C109  1  0.28110135  0.78548107  0.27169615  1  0.02613  0  -0.006202  0.105521  0  3.960489  0
C  C110  1  0.82086084  0.15375559  0.78928182  1  -0.011155  0  -0.081041  0.05225  0  3.798322  0
C  C111  1  0.18886974  0.80815351  0.30173842  1  0.014201  0  -0.009554  -0.119673  0  3.905277  0
C  C112  1  0.45582048  0.15658402  0.18016685  1  0.055255  0  0.007844  0.028008  0  4.029087  0
C  C113  1  0.49222610  0.06440310  0.20233850  1  0.105225  0  0.005557  0.02994  0  4.037755  0
C  C114  1  0.43893388  0.00819540  0.26375197  1  0.091192  0  -0.014674  0.070258  0  3.983541  0
C  C115  1  0.34781841  0.04939776  0.29996831  1  0.04718  0  0.015261  0.037454  0  3.955947  0
C  C116  1  0.30460927  0.14459270  0.27350582  1  0.03258  0  -0.001183  0.018178  0  3.957315  0
C  C117  1  0.63580982  0.35814728  0.85913059  1  1.54902  0  0.235917  0.60822  0  4.084099  0
C  C118  1  0.36137473  0.19971740  0.21322349  1  0.062812  0  -0.001609  0.012915  0  3.954278  0
C  C119  1  0.31981106  0.29417949  0.19051537  1  0.013512  0  -0.009401  -0.041303  0  3.953075  0
C  C120  1  0.22810679  0.33206541  0.22326394  1  -0.047164  0  -0.082459  -0.154062  0  3.948333  0
C  C121  1  0.69895638  0.20516030  0.73195496  1  0.012745  0  -0.08624  0.005595  0  3.776838  0
C  C122  1  0.17141070  0.28025418  0.27941500  1  0.017513  0  0.001999  0.168872  0  3.958853  0
C  C123  1  0.20995514  0.18756931  0.30365503  1  0.045216  0  -0.011686  -0.121622  0  3.88143  0
C  C124  1  0.86516699  0.85264367  0.63991742  1  1.571661  0  0.234185  0.614671  0  4.152754  0
C  C125  1  0.14369789  0.13804023  0.36005381  1  1.567122  0  0.219793  0.609618  0  4.224532  0
C  C126  1  0.14772679  0.86588469  0.62902374  1  1.533171  0  0.227784  0.600725  0  4.161654  0
C  C127  1  0.85623900  0.14513165  0.37107759  1  1.622684  0  0.229045  0.627809  0  4.193756  0
C  C128  1  0.13336037  0.86594135  0.35949289  1  1.578545  0  0.234258  0.629366  0  4.165352  0
C  C129  1  0.73404615  0.35567822  0.70567487  1  0.003605  0  -0.080926  0.008481  0  3.763202  0
C  C130  1  0.86033578  0.13670340  0.64438172  1  1.512168  0  0.238992  0.614291  0  4.061099  0
C  C131  1  0.80352546  0.29503969  0.64659093  1  0.005432  0  -0.07955  0.026255  0  3.745366  0
C  C132  1  0.26352937  0.56674509  0.82811796  1  0.085233  0  -0.012051  0.063135  0  3.934029  0
C  C133  1  0.77191708  0.22395123  0.83558185  1  0.038559  0  -0.160047  -0.216859  0  3.882774  0
C  C134  1  0.24655362  0.51609420  0.92645379  1  -0.042778  0  -0.247014  -0.408898  0  3.999029  0
C  C135  1  0.28048400  0.71358613  0.54755866  1  -0.068804  0  -0.241851  -0.409774  0  3.977936  0
C  C136  1  0.66523236  0.43555605  0.66222244  1  -0.029094  0  -0.249553  -0.404431  0  3.953928  0
C  C137  1  0.67742737  0.60687545  0.69508560  1  -0.059979  0  -0.248708  -0.415037  0  3.967809  0
C  C138  1  0.69344036  0.17909829  0.19717776  1  -0.08529  0  -0.247794  -0.419946  0  3.96871  0
C  C139  1  0.84105172  0.29855565  0.38421536  1  -0.052515  0  -0.244865  -0.420758  0  3.967578  0
C  C140  1  0.19907702  0.63542474  0.15010699  1  -0.033115  0  -0.253786  -0.424191  0  3.94986  0
C  C141  1  0.32349843  0.82152814  0.29285918  1  -0.075006  0  -0.246144  -0.41853  0  3.97222  0
C  C142  1  0.89456257  0.30736389  0.60662863  1  -0.071713  0  -0.252422  -0.39704  0  3.948904  0
C  C143  1  0.27253745  0.52934115  0.77315365  1  -0.047244  0  0.013674  0.101346  0  4.040152  0
C  C144  1  0.48328403  0.90874060  0.28762679  1  -0.055849  0  -0.243928  -0.409115  0  3.985915  0
C  C145  1  0.07170642  0.32616679  0.31073061  1  -0.084714  0  -0.235714  -0.416115  0  3.948717  0
C  C146  1  0.91863801  0.10779309  0.78612176  1  -0.073296  0  -0.248279  -0.390855  0  3.95554  0
C  C147  1  0.59708577  0.19358095  0.89317582  1  -0.071522  0  -0.253394  -0.400534  0  3.965444  0
C  C148  1  0.65835195  0.24495926  0.65852941  1  -0.029859  0  -0.251623  -0.40063  0  3.957171  0
C  C149  1  0.28184402  0.57637421  0.68188422  1  0.047849  0  -0.096729  -0.210703  0  3.980779  0
Cl  Cl150  1  0.26716478  0.84811769  0.83729884  1  -0.170901  0  0.001518  -0.052764  0  1.483341  0
Cl  Cl151  1  0.52842638  0.21691973  0.11230497  1  -0.172579  0  0.047289  -0.010964  0  1.727957  0
Cl  Cl152  1  0.60595649  0.01445824  0.15835507  1  -0.184529  0  0.008748  -0.054144  0  1.544795  0
Cl  Cl153  1  0.28616361  0.97982541  0.38592224  1  -0.201896  0  0.034622  -0.035196  0  1.679755  0
Cl  Cl154  1  0.27536138  0.41983899  0.81598149  1  -0.2187  0  -0.014132  -0.086821  0  1.430252  0
Cl  Cl155  1  0.60967623  0.76451848  0.92341752  1  -0.19866  0  -0.014222  -0.082429  0  1.491537  0
Cl  Cl156  1  0.83045188  0.56939649  0.53028496  1  -0.230414  0  -0.001948  -0.087717  0  1.523763  0
Cl  Cl157  1  0.65827535  0.52546374  0.10219130  1  -0.201195  0  0.001309  -0.073023  0  1.633675  0
Cl  Cl158  1  0.80843812  0.05424087  0.32029687  1  -0.220011  0  -0.002273  -0.071463  0  1.549276  0
Cl  Cl159  1  0.44751921  0.69434347  0.18332952  1  -0.195156  0  0.000152  -0.068738  0  1.569469  0
Cl  Cl160  1  0.99670678  0.69097439  0.21832643  1  -0.206654  0  -0.01439  -0.081152  0  1.547711  0
Cl  Cl161  1  0.89114523  0.82089448  0.32561739  1  -0.198489  0  -0.007335  -0.072235  0  1.567296  0
O  O162  1  0.50086513  0.49992245  0.99989879  1  -1.208198  0  -0.575168  -1.031712  0  2.528903  0
O  O163  1  0.93985734  0.12561601  0.32845863  1  -1.16618  0  -0.308829  -0.540895  0  2.344273  0
O  O164  1  0.11525432  0.82460389  0.44360625  1  -1.175842  0  -0.306984  -0.545023  0  2.331553  0
O  O165  1  0.68211432  0.37316251  0.05242785  1  -1.171051  0  -0.313526  -0.548852  0  2.340867  0
O  O166  1  0.82629717  0.09507423  0.63775003  1  -1.17663  0  -0.312425  -0.548476  0  2.392446  0
O  O167  1  0.11027809  0.94999224  0.31958847  1  -1.15208  0  -0.301955  -0.527829  0  2.303059  0
O  O168  1  0.94343251  0.12829342  0.60948191  1  -1.176063  0  -0.303887  -0.531184  0  2.38722  0
O  O169  1  0.13234152  0.95002604  0.59986881  1  -1.16614  0  -0.314932  -0.54942  0  2.349117  0
O  O170  1  0.81758100  0.11560036  0.45501365  1  -1.172997  0  -0.308927  -0.545349  0  2.344289  0
O  O171  1  0.94988640  0.81455824  0.61466632  1  -1.156777  0  -0.307092  -0.533633  0  2.33814  0
O  O172  1  0.12394198  0.11559025  0.31825363  1  -1.149583  0  -0.315618  -0.550295  0  2.330926  0
O  O173  1  0.37801463  0.39452657  0.05019983  1  -1.182489  0  -0.312222  -0.548816  0  2.377254  0
O  O174  1  0.39730425  0.56541722  0.86444633  1  -1.163011  0  -0.311806  -0.5331  0  2.342486  0
O  O175  1  0.38682470  0.38366056  0.17568682  1  -1.162997  0  -0.314607  -0.545925  0  2.345763  0
O  O176  1  0.54501596  0.67879233  0.86654663  1  -1.169175  0  -0.314558  -0.552276  0  2.351165  0
O  O177  1  0.37937719  0.55449243  0.18220203  1  -1.155542  0  -0.306108  -0.536732  0  2.332848  0
O  O178  1  0.67783678  0.38071207  0.87899549  1  -1.179987  0  -0.316116  -0.555403  0  2.341602  0
O  O179  1  0.38470872  0.67952033  0.05803311  1  -1.165563  0  -0.309331  -0.540006  0  2.349736  0
O  O180  1  0.55103303  0.38455354  0.88041027  1  -1.19513  0  -0.306479  -0.532217  0  2.379252  0
O  O181  1  0.67124204  0.55818374  0.88334939  1  -1.168945  0  -0.304807  -0.533025  0  2.328592  0
O  O182  1  0.55960996  0.38795559  0.17686176  1  -1.159192  0  -0.310805  -0.542102  0  2.340415  0
O  O183  1  0.34149589  0.66595430  0.93145053  1  -1.16226  0  -0.31322  -0.554235  0  2.408968  0
O  O184  1  0.00082595  0.00164604  0.50052621  1  -1.21254  0  -0.574116  -1.029609  0  2.541877  0
O  O185  1  0.82385025  0.93605712  0.62600576  1  -1.166536  0  -0.308519  -0.532786  0  2.321066  0
O  O186  1  0.10763401  0.13054146  0.44222780  1  -1.174396  0  -0.313002  -0.547326  0  2.359681  0
O  O187  1  0.11165142  0.82755310  0.62063576  1  -1.168526  0  -0.307502  -0.531151  0  2.385852  0
