# generated using pymatgen
data_LiH26C15N2
_symmetry_space_group_name_H-M   'P 1'
_cell_length_a   8.25842063
_cell_length_b   8.94188782
_cell_length_c   10.87109907
_cell_angle_alpha   75.14583183
_cell_angle_beta   88.54155976
_cell_angle_gamma   73.54198141
_symmetry_Int_Tables_number   1
_chemical_formula_structural   LiH26C15N2
_chemical_formula_sum   'Li2 H52 C30 N4'
_cell_volume   743.20056022
_cell_formula_units_Z   2
loop_
 _symmetry_equiv_pos_site_id
 _symmetry_equiv_pos_as_xyz
  1  'x, y, z'
loop_
 _atom_site_type_symbol
 _atom_site_label
 _atom_site_symmetry_multiplicity
 _atom_site_fract_x
 _atom_site_fract_y
 _atom_site_fract_z
 _atom_site_occupancy
 _atom_site_pbe_bader_spin_density
 _atom_site_pbe_cm5_charge
 _atom_site_pbe_ddec_charge
 _atom_site_pbe_ddec_spin_density
 _atom_site_pbe_ddec_sum_bond_order
 _atom_site_pbe_magmom
Li  Li0  1  0.36300892  0.00088353  0.46087711  1  0  0.514014  0.73484  0  0.610956  0
Li  Li1  1  0.63700117  0.99911229  0.53912145  1  0  0.514007  0.734824  0  0.610993  0
H  H2  1  0.61192697  0.83196606  0.38843694  1  0  0.261223  0.25348  0  1.070186  0
H  H3  1  0.38807947  0.16802975  0.61155987  1  0  0.261235  0.253453  0  1.070169  0
H  H4  1  0.85456614  0.93759423  0.00536177  1  0  0.090935  0.08618  0  1.053727  0
H  H5  1  0.14542409  0.06241481  0.99462528  1  0  0.090911  0.086114  0  1.053859  0
H  H6  1  0.80461233  0.23446814  0.94312575  1  0  0.086008  0.085815  0  1.051681  0
H  H7  1  0.19537520  0.76554206  0.05687124  1  0  0.086  0.085788  0  1.051574  0
H  H8  1  0.62354509  0.40022651  0.07403186  1  0  0.090554  0.086075  0  1.056427  0
H  H9  1  0.37645410  0.59978132  0.92597087  1  0  0.090565  0.086071  0  1.056503  0
H  H10  1  0.62507274  0.73176690  0.25452945  1  0  0.091903  0.050037  0  0.977824  0
H  H11  1  0.37493150  0.26823615  0.74546681  1  0  0.092003  0.050153  0  0.97785  0
H  H12  1  0.65730034  0.74501436  0.02390899  1  0  0.086152  0.122956  0  1.022319  0
H  H13  1  0.34269833  0.25499107  0.97608782  1  0  0.086151  0.122947  0  1.022304  0
H  H14  1  0.76550527  0.55282956  0.12490244  1  0  0.079508  0.105766  0  1.041944  0
H  H15  1  0.23449413  0.44717346  0.87509394  1  0  0.079502  0.105761  0  1.041942  0
H  H16  1  0.88179246  0.68594474  0.04873543  1  0  0.08277  0.112418  0  1.01707  0
H  H17  1  0.11820822  0.31406193  0.95125648  1  0  0.082727  0.112371  0  1.017099  0
H  H18  1  0.01009011  0.66757985  0.26727988  1  0  0.082938  0.113063  0  1.035998  0
H  H19  1  0.98991521  0.33241959  0.73271436  1  0  0.082925  0.113063  0  1.035906  0
H  H20  1  0.89677040  0.52947310  0.34152727  1  0  0.07758  0.102194  0  1.042363  0
H  H21  1  0.10323247  0.47052633  0.65846242  1  0  0.077578  0.102189  0  1.042436  0
H  H22  1  0.87835581  0.70634238  0.39373959  1  0  0.084405  0.108125  0  1.042067  0
H  H23  1  0.12165136  0.29365102  0.60625588  1  0  0.084462  0.108227  0  1.041964  0
H  H24  1  0.40751385  0.23070782  0.35653494  1  0  0.100571  0.031093  0  1.020982  0
H  H25  1  0.59248788  0.76929159  0.64346307  1  0  0.100583  0.031116  0  1.020957  0
H  H26  1  0.43611642  0.54421603  0.17223529  1  0  0.08832  0.121587  0  1.025477  0
H  H27  1  0.56385969  0.45578803  0.82776694  1  0  0.088338  0.121585  0  1.025506  0
H  H28  1  0.28348603  0.52062651  0.28724290  1  0  0.081694  0.106473  0  1.03097  0
H  H29  1  0.71650345  0.47936554  0.71276154  1  0  0.0817  0.106518  0  1.030951  0
H  H30  1  0.28722248  0.44232299  0.15216251  1  0  0.088203  0.122411  0  1.01239  0
H  H31  1  0.71276239  0.55767628  0.84784513  1  0  0.088203  0.122402  0  1.012389  0
H  H32  1  0.69092161  0.22387220  0.44792835  1  0  0.092164  0.091254  0  1.088879  0
H  H33  1  0.30907067  0.77613439  0.55207205  1  0  0.092208  0.091292  0  1.088898  0
H  H34  1  0.52295409  0.39387015  0.46173493  1  0  0.086571  0.109112  0  1.026973  0
H  H35  1  0.47703448  0.60613279  0.53826817  1  0  0.086598  0.109161  0  1.027018  0
H  H36  1  0.67205038  0.41368537  0.34174599  1  0  0.089226  0.12199  0  1.020127  0
H  H37  1  0.32794303  0.58631759  0.65825699  1  0  0.08922  0.122035  0  1.020098  0
H  H38  1  0.18016335  0.22357202  0.22950020  1  0  0.110648  0.119721  0  1.006613  0
H  H39  1  0.81984205  0.77642738  0.77050324  1  0  0.110618  0.119661  0  1.006502  0
H  H40  1  0.05583656  0.26806451  0.35831466  1  0  0.100529  0.099646  0  1.025083  0
H  H41  1  0.94417375  0.73192283  0.64169120  1  0  0.100538  0.09957  0  1.025134  0
H  H42  1  0.96641034  0.21441095  0.23317919  1  0  0.095096  0.108601  0  1.015751  0
H  H43  1  0.03358895  0.78558478  0.76682977  1  0  0.095092  0.108574  0  1.015716  0
H  H44  1  0.25131169  0.79370549  0.32198184  1  0  0.100621  0.09946  0  1.021453  0
H  H45  1  0.74868912  0.20628906  0.67801997  1  0  0.1006  0.099433  0  1.021531  0
H  H46  1  0.29503976  0.96071510  0.21164136  1  0  0.109688  0.122066  0  1.000955  0
H  H47  1  0.70496372  0.03927463  0.78835864  1  0  0.109678  0.122094  0  1.000969  0
H  H48  1  0.08942367  0.93147262  0.20815775  1  0  0.09456  0.105401  0  1.018271  0
H  H49  1  0.91057596  0.06852191  0.79184777  1  0  0.094569  0.105389  0  1.018293  0
H  H50  1  0.05780522  0.83350100  0.47229397  1  0  0.10832  0.076278  0  1.008305  0
H  H51  1  0.94221016  0.16649362  0.52771392  1  0  0.10837  0.076311  0  1.008309  0
H  H52  1  0.89504599  0.99930318  0.38429670  1  0  0.105091  0.071387  0  1.033519  0
H  H53  1  0.10496762  0.00068537  0.61571435  1  0  0.105098  0.071467  0  1.033435  0
C  C54  1  0.62834791  0.02490213  0.26058824  1  0  0.084272  0.238703  0  4.116317  0
C  C55  1  0.37165320  0.97510331  0.73941127  1  0  0.084251  0.238596  0  4.116436  0
C  C56  1  0.71766938  0.93270131  0.17664736  1  0  -0.034796  -0.050943  0  3.887251  0
C  C57  1  0.28233256  0.06730535  0.82335004  1  0  -0.034703  -0.050705  0  3.886944  0
C  C58  1  0.78134720  0.00953957  0.06591742  1  0  -0.112019  -0.137761  0  4.079915  0
C  C59  1  0.21864345  0.99046825  0.93407632  1  0  -0.112064  -0.137765  0  4.079971  0
C  C60  1  0.75328963  0.17679975  0.02980531  1  0  -0.134708  -0.158825  0  4.14313  0
C  C61  1  0.24670962  0.82321174  0.97019114  1  0  -0.134728  -0.158897  0  4.143289  0
C  C62  1  0.65381923  0.26889255  0.10500131  1  0  -0.115359  -0.153729  0  4.102561  0
C  C63  1  0.34617670  0.73111405  0.89500084  1  0  -0.115322  -0.15359  0  4.102462  0
C  C64  1  0.59077269  0.19736789  0.21836415  1  0  -0.032875  -0.055835  0  3.900662  0
C  C65  1  0.40922066  0.80263509  0.78163146  1  0  -0.032909  -0.055966  0  3.900691  0
C  C66  1  0.74224467  0.75162508  0.21052072  1  0  -0.085539  0.100732  0  3.884253  0
C  C67  1  0.25775844  0.24838161  0.78947205  1  0  -0.085776  0.100268  0  3.884586  0
C  C68  1  0.76271878  0.68074542  0.09496640  1  0  -0.247759  -0.39582  0  3.927384  0
C  C69  1  0.23728385  0.31925884  0.90502689  1  0  -0.247674  -0.395649  0  3.92739  0
C  C70  1  0.88984606  0.65836158  0.30944469  1  0  -0.245861  -0.393363  0  3.916444  0
C  C71  1  0.11015767  0.34163907  0.69054749  1  0  -0.245875  -0.393381  0  3.91637  0
C  C72  1  0.48656452  0.30080177  0.29952511  1  0  -0.078299  0.106751  0  3.890332  0
C  C73  1  0.51343287  0.69920002  0.70047526  1  0  -0.078283  0.106737  0  3.89033  0
C  C74  1  0.36699421  0.46053270  0.22309442  1  0  -0.243882  -0.40232  0  3.933381  0
C  C75  1  0.63299779  0.53946300  0.77691012  1  0  -0.24387  -0.402296  0  3.933332  0
C  C76  1  0.59860824  0.33447399  0.39366069  1  0  -0.231419  -0.386467  0  3.898534  0
C  C77  1  0.40138079  0.66553137  0.60634005  1  0  -0.231502  -0.386646  0  3.89857  0
C  C78  1  0.08260155  0.19069132  0.29218135  1  0  -0.141272  -0.265661  0  3.914227  0
C  C79  1  0.91740690  0.80930206  0.70782329  1  0  -0.141154  -0.265319  0  3.914099  0
C  C80  1  0.19762313  0.92110212  0.27064549  1  0  -0.143984  -0.272365  0  3.93876  0
C  C81  1  0.80237769  0.07889243  0.72935724  1  0  -0.144019  -0.272406  0  3.938905  0
C  C82  1  0.01461597  0.96611977  0.44178223  1  0  -0.066605  -0.091242  0  3.919716  0
C  C83  1  0.98539854  0.03387364  0.55822410  1  0  -0.066734  -0.091423  0  3.919713  0
N  N84  1  0.57930360  0.95395510  0.37803945  1  0  -0.810793  -0.989157  0  3.24221  0
N  N85  1  0.42070566  0.04603951  0.62196123  1  0  -0.810765  -0.989  0  3.242074  0
N  N86  1  0.14586293  0.01928895  0.36266467  1  0  -0.438374  -0.16008  0  3.566439  0
N  N87  1  0.85414793  0.98070445  0.63733806  1  0  -0.438375  -0.160176  0  3.566522  0
