# generated using pymatgen
data_CdH26C24N4O7
_symmetry_space_group_name_H-M   'P 1'
_cell_length_a   17.72985340
_cell_length_b   17.66042051
_cell_length_c   17.71074361
_cell_angle_alpha   102.26358234
_cell_angle_beta   107.98310678
_cell_angle_gamma   118.46384036
_symmetry_Int_Tables_number   1
_chemical_formula_structural   CdH26C24N4O7
_chemical_formula_sum   'Cd6 H156 C144 N24 O42'
_cell_volume   4186.42491856
_cell_formula_units_Z   6
loop_
 _symmetry_equiv_pos_site_id
 _symmetry_equiv_pos_as_xyz
  1  'x, y, z'
loop_
 _atom_site_type_symbol
 _atom_site_label
 _atom_site_symmetry_multiplicity
 _atom_site_fract_x
 _atom_site_fract_y
 _atom_site_fract_z
 _atom_site_occupancy
 _atom_site_pbe_bader_charge
 _atom_site_pbe_bader_spin_density
 _atom_site_pbe_cm5_charge
 _atom_site_pbe_ddec_charge
 _atom_site_pbe_ddec_spin_density
 _atom_site_pbe_ddec_sum_bond_order
 _atom_site_pbe_magmom
Cd  Cd0  1  0.83992224  0.59127822  0.24751166  1  1.256133  0  0.762311  0.846509  0  2.216659  0
Cd  Cd1  1  0.16010040  0.40874377  0.75250293  1  1.256415  0  0.762295  0.846266  0  2.218082  0
Cd  Cd2  1  0.58579970  0.96695252  0.23689214  1  1.267551  0  0.753841  0.859867  0  2.207632  0
Cd  Cd3  1  0.22855787  0.34821174  0.26258081  1  1.268593  0  0.752497  0.858257  0  2.207877  0
Cd  Cd4  1  0.41419499  0.03301644  0.76311578  1  1.267512  0  0.753906  0.859951  0  2.207458  0
Cd  Cd5  1  0.77141141  0.65176110  0.73740229  1  1.268767  0  0.752544  0.858263  0  2.207978  0
H  H6  1  0.11187443  0.95960862  0.63369046  1  0.451462  0  0.333876  0.301381  0  0.896845  0
H  H7  1  0.82612560  0.47935736  0.86423012  1  0.460842  0  0.331606  0.298987  0  0.900547  0
H  H8  1  0.88823944  0.04039951  0.36629809  1  0.449727  0  0.333829  0.301609  0  0.896929  0
H  H9  1  0.17386806  0.52055833  0.13582575  1  0.460009  0  0.331407  0.298809  0  0.900567  0
H  H10  1  0.59169604  0.18190677  0.59568354  1  0.461091  0  0.332085  0.290204  0  0.907795  0
H  H11  1  0.08632557  0.99613512  0.90484771  1  0.443904  0  0.331337  0.289325  0  0.908521  0
H  H12  1  0.40826453  0.81804733  0.40432045  1  0.46126  0  0.332026  0.290157  0  0.907827  0
H  H13  1  0.91376125  0.00394607  0.09510072  1  0.444796  0  0.331347  0.289254  0  0.908753  0
H  H14  1  0.52194563  0.67667836  0.88990703  1  0.450536  0  0.326222  0.283841  0  0.927332  0
H  H15  1  0.28662239  0.63165511  0.61044735  1  0.453278  0  0.326131  0.284226  0  0.925916  0
H  H16  1  0.47804801  0.32329255  0.11009688  1  0.452332  0  0.32624  0.283778  0  0.927322  0
H  H17  1  0.71344007  0.36840826  0.38955510  1  0.452732  0  0.326121  0.284298  0  0.925828  0
H  H18  1  0.81720735  0.55772309  0.40509576  1  0.135638  0  0.113989  0.089629  0  1.021446  0
H  H19  1  0.65268931  0.41018244  0.09207700  1  0.098314  0  0.113467  0.088244  0  1.022806  0
H  H20  1  0.18279384  0.44232422  0.59492187  1  0.135223  0  0.114072  0.089786  0  1.021174  0
H  H21  1  0.34723362  0.58980199  0.90794878  1  0.099977  0  0.11353  0.088307  0  1.022591  0
H  H22  1  0.86420921  0.64730201  0.56306564  1  0.100384  0  0.10333  0.106962  0  1.035539  0
H  H23  1  0.58530556  0.29983875  0.93427502  1  0.111139  0  0.102623  0.106774  0  1.037721  0
H  H24  1  0.13583144  0.35278128  0.43695980  1  0.10016  0  0.103281  0.106785  0  1.035702  0
H  H25  1  0.41462587  0.70015980  0.06574710  1  0.110947  0  0.102597  0.106741  0  1.037632  0
H  H26  1  0.98688480  0.82158503  0.63820335  1  0.121955  0  0.111631  0.124805  0  1.004032  0
H  H27  1  0.68519789  0.34847407  0.85988274  1  0.103634  0  0.11018  0.121913  0  1.004732  0
H  H28  1  0.01319276  0.17849347  0.36179426  1  0.122179  0  0.111528  0.124603  0  1.004265  0
H  H29  1  0.31474440  0.65149917  0.14015660  1  0.102903  0  0.110077  0.121861  0  1.004716  0
H  H30  1  0.01135927  0.80782418  0.40136480  1  0.114291  0  0.107716  0.067246  0  1.092757  0
H  H31  1  0.90644276  0.60995375  0.09794332  1  0.154204  0  0.116154  0.1057  0  1.0451  0
H  H32  1  0.98861692  0.19217196  0.59856651  1  0.115125  0  0.107719  0.067131  0  1.093529  0
H  H33  1  0.09344708  0.39005439  0.90204883  1  0.153398  0  0.116246  0.10581  0  1.044626  0
H  H34  1  0.11507624  0.10566565  0.61213844  1  0.08403  0  0.104115  0.130402  0  0.982177  0
H  H35  1  0.99305408  0.50125792  0.88433661  1  0.075803  0  0.10534  0.134318  0  0.98276  0
H  H36  1  0.88492794  0.89436981  0.38788672  1  0.08415  0  0.104203  0.130504  0  0.982158  0
H  H37  1  0.00696540  0.49880175  0.11577159  1  0.07605  0  0.105265  0.134111  0  0.982877  0
H  H38  1  0.22063565  0.10733825  0.64924064  1  0.080144  0  0.102642  0.123816  0  1.0258  0
H  H39  1  0.95825669  0.57135705  0.84899097  1  0.091303  0  0.100541  0.120485  0  1.030984  0
H  H40  1  0.77935769  0.89268332  0.35077561  1  0.08023  0  0.102651  0.123902  0  1.025796  0
H  H41  1  0.04177804  0.42874123  0.15112395  1  0.091577  0  0.10067  0.120669  0  1.030475  0
H  H42  1  0.23771924  0.23485460  0.59900572  1  0.069078  0  0.089253  0.088025  0  1.00099  0
H  H43  1  0.13588215  0.63827729  0.89967077  1  0.032281  0  0.087574  0.085003  0  1.00269  0
H  H44  1  0.76234643  0.76520502  0.40106242  1  0.069781  0  0.089201  0.087986  0  1.001231  0
H  H45  1  0.86418754  0.36177290  0.10053646  1  0.033436  0  0.087315  0.084772  0  1.003253  0
H  H46  1  0.14616289  0.14691886  0.49131531  1  0.037864  0  0.081491  0.072121  0  1.012524  0
H  H47  1  0.15392266  0.65212420  0.00670891  1  0.015306  0  0.081703  0.072191  0  1.015669  0
H  H48  1  0.85386238  0.85315259  0.50874800  1  0.036152  0  0.081603  0.072271  0  1.012434  0
H  H49  1  0.84605813  0.34798464  0.99349960  1  0.017471  0  0.081771  0.072556  0  1.015424  0
H  H50  1  0.33011202  0.15847932  0.58563674  1  0.022117  0  0.08268  0.073073  0  1.031937  0
H  H51  1  0.07321477  0.74453002  0.91401848  1  0.010995  0  0.081842  0.072286  0  1.030958  0
H  H52  1  0.66986258  0.84149325  0.41434533  1  0.021723  0  0.08264  0.073139  0  1.031873  0
H  H53  1  0.92679877  0.25550630  0.08604027  1  0.011327  0  0.081774  0.07223  0  1.030703  0
H  H54  1  0.24543896  0.09401947  0.47241989  1  0.008288  0  0.079697  0.073376  0  1.000301  0
H  H55  1  0.12075572  0.77104091  0.02690127  1  0.008702  0  0.081852  0.076272  0  0.996223  0
H  H56  1  0.75450593  0.90597392  0.52756903  1  0.008258  0  0.079729  0.07345  0  1.000388  0
H  H57  1  0.87930349  0.22912195  0.97318403  1  0.01159  0  0.0818  0.076346  0  0.995878  0
H  H58  1  0.38912208  0.31162191  0.57740631  1  0.043903  0  0.086274  0.086992  0  1.004821  0
H  H59  1  0.23437396  0.81169838  0.92300609  1  0.038647  0  0.086422  0.087355  0  1.003521  0
H  H60  1  0.61086516  0.68837239  0.42259299  1  0.043745  0  0.086233  0.086972  0  1.004874  0
H  H61  1  0.76558713  0.18826770  0.07698094  1  0.038655  0  0.086369  0.087374  0  1.00329  0
H  H62  1  0.29295190  0.25714877  0.47118610  1  -0.025173  0  0.081627  0.058662  0  1.020718  0
H  H63  1  0.28491717  0.82057796  0.02911557  1  -0.026523  0  0.08053  0.057843  0  1.020082  0
H  H64  1  0.70704136  0.74284377  0.52881942  1  -0.025285  0  0.081607  0.058658  0  1.020656  0
H  H65  1  0.71511428  0.17946430  0.97089854  1  -0.025503  0  0.080536  0.057895  0  1.020127  0
H  H66  1  0.35725034  0.17106244  0.41333545  1  0.055425  0  0.085815  0.071762  0  1.00571  0
H  H67  1  0.25705612  0.94309515  0.08700108  1  0.035475  0  0.085727  0.071677  0  1.00655  0
H  H68  1  0.64272554  0.82890889  0.58667478  1  0.055267  0  0.085781  0.071725  0  1.005781  0
H  H69  1  0.74310667  0.05705469  0.91300421  1  0.035955  0  0.085978  0.072035  0  1.006238  0
H  H70  1  0.44071004  0.29608440  0.45922677  1  0.008742  0  0.083845  0.067657  0  1.014672  0
H  H71  1  0.33611746  0.98115680  0.04118188  1  0.010229  0  0.081924  0.064877  0  1.01796  0
H  H72  1  0.55926983  0.70387769  0.54076445  1  0.008512  0  0.083869  0.067692  0  1.01467  0
H  H73  1  0.66394109  0.01886392  0.95870812  1  0.011364  0  0.081822  0.064747  0  1.01826  0
H  H74  1  0.54738510  0.30184080  0.58696694  1  0.097815  0  0.109291  0.132547  0  0.962452  0
H  H75  1  0.21495025  0.96085263  0.91349294  1  0.08322  0  0.10825  0.130837  0  0.963057  0
H  H76  1  0.45258993  0.69814158  0.41305320  1  0.097496  0  0.109373  0.132519  0  0.962754  0
H  H77  1  0.78506080  0.03920348  0.08647969  1  0.083699  0  0.108239  0.130816  0  0.963063  0
H  H78  1  0.45656735  0.18780740  0.57027022  1  0.061265  0  0.102337  0.11685  0  0.989667  0
H  H79  1  0.11790065  0.88640770  0.93017068  1  0.059889  0  0.102297  0.11676  0  0.991017  0
H  H80  1  0.54339661  0.81216089  0.42973787  1  0.061196  0  0.102276  0.116689  0  0.990159  0
H  H81  1  0.88214739  0.11362352  0.06982222  1  0.059977  0  0.102288  0.116693  0  0.990768  0
H  H82  1  0.72212941  0.16659428  0.63456160  1  0.065258  0  0.116828  0.124392  0  0.968615  0
H  H83  1  0.03693119  0.09153730  0.86547382  1  0.06641  0  0.117035  0.123549  0  0.968543  0
H  H84  1  0.27771171  0.83321416  0.36544929  1  0.064984  0  0.116626  0.124346  0  0.968793  0
H  H85  1  0.96318296  0.90855305  0.13448463  1  0.067199  0  0.117127  0.123502  0  0.968851  0
H  H86  1  0.79934893  0.09392787  0.58167030  1  0.081102  0  0.106224  0.104257  0  1.012509  0
H  H87  1  0.01892991  0.22294343  0.91715771  1  0.100916  0  0.11061  0.116618  0  1.003615  0
H  H88  1  0.20045731  0.90582683  0.41834850  1  0.083347  0  0.106317  0.104542  0  1.012288  0
H  H89  1  0.98118973  0.77715741  0.08278021  1  0.102219  0  0.110406  0.116393  0  1.003982  0
H  H90  1  0.73595458  0.01391860  0.41901368  1  0.111193  0  0.117045  0.090209  0  1.025811  0
H  H91  1  0.09645330  0.31900527  0.08015407  1  0.099542  0  0.115718  0.088228  0  1.027139  0
H  H92  1  0.26393416  0.98592747  0.58100620  1  0.112057  0  0.117217  0.090262  0  1.025719  0
H  H93  1  0.90356369  0.68103241  0.91977916  1  0.10008  0  0.115668  0.088232  0  1.026998  0
H  H94  1  0.52374044  0.06372149  0.36209727  1  0.165423  0  0.116959  0.109363  0  1.038911  0
H  H95  1  0.19890606  0.16016462  0.13801541  1  0.13037  0  0.115804  0.107126  0  1.040807  0
H  H96  1  0.47631443  0.93635989  0.63790517  1  0.165367  0  0.116886  0.109321  0  1.038897  0
H  H97  1  0.80099119  0.83978902  0.86195003  1  0.129751  0  0.115852  0.107259  0  1.040887  0
H  H98  1  0.45336045  0.94394152  0.04243835  1  0.057599  0  0.107851  0.068656  0  1.038099  0
H  H99  1  0.40178978  0.41141506  0.45740171  1  0.065614  0  0.107106  0.067592  0  1.038044  0
H  H100  1  0.54665464  0.05604876  0.95758030  1  0.057608  0  0.107793  0.068551  0  1.038062  0
H  H101  1  0.59821508  0.58859258  0.54258594  1  0.074828  0  0.107121  0.067622  0  1.038027  0
H  H102  1  0.39232829  0.85323408  0.88130148  1  0.154677  0  0.105675  0.121983  0  1.048613  0
H  H103  1  0.47254407  0.51166281  0.61857398  1  0.151738  0  0.104972  0.12112  0  1.048048  0
H  H104  1  0.60769187  0.14677670  0.11870921  1  0.154403  0  0.105658  0.121974  0  1.048654  0
H  H105  1  0.52747948  0.48836406  0.38141397  1  0.151729  0  0.104993  0.120986  0  1.048309  0
H  H106  1  0.44443812  0.74959954  0.83959885  1  0.067678  0  0.115454  0.123258  0  0.970318  0
H  H107  1  0.41039851  0.60510725  0.66061163  1  0.078373  0  0.115387  0.123436  0  0.970498  0
H  H108  1  0.55558565  0.25042363  0.16039442  1  0.06744  0  0.115464  0.123317  0  0.970415  0
H  H109  1  0.58963745  0.39492837  0.33938181  1  0.077673  0  0.115403  0.123348  0  0.970642  0
H  H110  1  0.62167177  0.84519952  0.11694847  1  0.164907  0  0.121173  0.115824  0  1.03351  0
H  H111  1  0.22791478  0.50456210  0.38331890  1  0.17246  0  0.120867  0.116216  0  1.034306  0
H  H112  1  0.37831544  0.15475549  0.88304240  1  0.164335  0  0.121187  0.115866  0  1.033623  0
H  H113  1  0.77210387  0.49546054  0.61668361  1  0.170112  0  0.120929  0.116216  0  1.034129  0
H  H114  1  0.73021707  0.68863198  0.97565343  1  0.04345  0  0.097422  0.114755  0  1.006929  0
H  H115  1  0.21346906  0.75528794  0.52526611  1  0.048335  0  0.09556  0.112271  0  1.008334  0
H  H116  1  0.26980725  0.31137369  0.02434709  1  0.044055  0  0.097448  0.114706  0  1.007103  0
H  H117  1  0.78652609  0.24471832  0.47473545  1  0.048368  0  0.095602  0.11229  0  1.008182  0
H  H118  1  0.60953416  0.62434646  0.88905362  1  0.008365  0  0.092451  0.0996  0  1.033629  0
H  H119  1  0.23480013  0.71985025  0.61136434  1  0.013955  0  0.092322  0.099512  0  1.035345  0
H  H120  1  0.39049592  0.37566093  0.11094123  1  0.007426  0  0.092457  0.099649  0  1.033592  0
H  H121  1  0.76519915  0.28014809  0.38863648  1  0.01413  0  0.092321  0.099473  0  1.035192  0
H  H122  1  0.62056111  0.52432702  0.96056684  1  0.036457  0  0.086438  0.084647  0  0.995395  0
H  H123  1  0.06442104  0.66056252  0.53974611  1  0.022355  0  0.086183  0.084325  0  0.996439  0
H  H124  1  0.37946584  0.47569979  0.03945217  1  0.03607  0  0.086374  0.084665  0  0.99539  0
H  H125  1  0.93557114  0.33943518  0.46023796  1  0.022148  0  0.086202  0.084349  0  0.996429  0
H  H126  1  0.67601364  0.61462918  0.06654274  1  0.058518  0  0.089511  0.094363  0  0.995792  0
H  H127  1  0.04892462  0.61028274  0.43368952  1  0.061902  0  0.088119  0.093095  0  1.001618  0
H  H128  1  0.32400353  0.38539983  0.93346471  1  0.058647  0  0.089535  0.094298  0  0.995833  0
H  H129  1  0.95107566  0.38970595  0.56629718  1  0.062036  0  0.08816  0.09307  0  1.001844  0
H  H130  1  0.52428385  0.59989373  0.03811306  1  -0.004676  0  0.081394  0.072155  0  1.00719  0
H  H131  1  0.06121035  0.48574098  0.46168870  1  -0.003402  0  0.081231  0.072345  0  1.008011  0
H  H132  1  0.47572440  0.40011927  0.96188023  1  -0.00496  0  0.081427  0.072264  0  1.007332  0
H  H133  1  0.93879634  0.51426079  0.53832047  1  -0.003344  0  0.081248  0.072355  0  1.007983  0
H  H134  1  0.46824199  0.52684860  0.92530551  1  0.026526  0  0.080815  0.072313  0  1.038435  0
H  H135  1  0.10086530  0.54206076  0.57457719  1  0.028723  0  0.080825  0.072717  0  1.038031  0
H  H136  1  0.53177524  0.47316329  0.07469125  1  0.026722  0  0.080855  0.07241  0  1.038381  0
H  H137  1  0.89913998  0.45794816  0.42542973  1  0.028766  0  0.080842  0.072737  0  1.038097  0
H  H138  1  0.74468204  0.29122055  0.25606290  1  0.105335  0  0.101348  0.099609  0  1.035599  0
H  H139  1  0.53327764  0.48714908  0.24394653  1  0.092022  0  0.101762  0.10083  0  1.036377  0
H  H140  1  0.25526402  0.70865784  0.74392888  1  0.105179  0  0.101408  0.099742  0  1.035446  0
H  H141  1  0.46669034  0.51281098  0.75603750  1  0.091889  0  0.101765  0.10079  0  1.036204  0
H  H142  1  0.90030765  0.16557046  0.25119070  1  0.091645  0  0.102018  0.099243  0  1.038267  0
H  H143  1  0.41456316  0.64967714  0.24948343  1  0.084835  0  0.102049  0.098483  0  1.040202  0
H  H144  1  0.09970671  0.83439382  0.74879116  1  0.09274  0  0.101961  0.099244  0  1.038193  0
H  H145  1  0.58543359  0.35031316  0.75053079  1  0.084881  0  0.102003  0.09856  0  1.04004  0
H  H146  1  0.02803617  0.45261718  0.27475269  1  0.141952  0  0.113635  0.123324  0  1.00286  0
H  H147  1  0.67772125  0.75382073  0.22714518  1  0.107924  0  0.113081  0.123192  0  1.003607  0
H  H148  1  0.97194393  0.54737249  0.72532845  1  0.14094  0  0.113787  0.123473  0  1.002453  0
H  H149  1  0.32229297  0.24616743  0.77287839  1  0.107626  0  0.113034  0.123032  0  1.003949  0
H  H150  1  0.44706237  0.02270799  0.19284177  1  0.6205  0  0.334019  0.417169  0  0.856636  0
H  H151  1  0.32894270  0.25490330  0.30549823  1  0.621607  0  0.333418  0.416076  0  0.857717  0
H  H152  1  0.55298726  0.97729288  0.80716170  1  0.620398  0  0.333938  0.417019  0  0.856855  0
H  H153  1  0.67100923  0.74505968  0.69442499  1  0.621459  0  0.333406  0.416173  0  0.857674  0
H  H154  1  0.37709633  0.91231147  0.15509701  1  0.627952  0  0.319069  0.399757  0  0.902134  0
H  H155  1  0.25902580  0.22251039  0.34583228  1  0.621278  0  0.317614  0.397655  0  0.906393  0
H  H156  1  0.62291583  0.08768604  0.84485838  1  0.627275  0  0.319057  0.399777  0  0.901901  0
H  H157  1  0.74102492  0.77752995  0.65419811  1  0.621988  0  0.317702  0.397872  0  0.906122  0
H  H158  1  0.98924239  0.79268536  0.27219428  1  0.615977  0  0.330938  0.410817  0  0.870373  0
H  H159  1  0.03781614  0.73858640  0.27061151  1  0.60635  0  0.332241  0.40788  0  0.869663  0
H  H160  1  0.01132450  0.20756710  0.72767274  1  0.611673  0  0.330336  0.410684  0  0.870844  0
H  H161  1  0.96218661  0.26116093  0.72852991  1  0.614262  0  0.33178  0.407171  0  0.8707  0
C  C162  1  0.87162637  0.63464100  0.44193962  1  0.488606  0  0.038655  0.0681  0  3.951533  0
C  C163  1  0.69298470  0.42805150  0.05548749  1  0.497913  0  0.036732  0.063734  0  3.966769  0
C  C164  1  0.12837944  0.36540586  0.55806394  1  0.488536  0  0.038507  0.067746  0  3.951996  0
C  C165  1  0.30694072  0.57192664  0.94453511  1  0.422913  0  0.036623  0.063311  0  3.96691  0
C  C166  1  0.89817315  0.68433243  0.52863593  1  -0.065346  0  -0.084427  -0.104779  0  3.989768  0
C  C167  1  0.65650197  0.36824961  0.96891770  1  -0.030702  0  -0.08796  -0.112819  0  4.005744  0
C  C168  1  0.10186599  0.31573250  0.47137795  1  -0.065942  0  -0.084448  -0.104744  0  3.990244  0
C  C169  1  0.34343697  0.63173488  0.03111012  1  0.042948  0  -0.087612  -0.112095  0  4.005654  0
C  C170  1  0.96781394  0.78257614  0.57092665  1  -0.007939  0  -0.066847  -0.132743  0  3.92709  0
C  C171  1  0.71284024  0.39624364  0.92711354  1  -0.031138  0  -0.067251  -0.130465  0  3.936789  0
C  C172  1  0.03224425  0.21747868  0.42906783  1  -0.008609  0  -0.066481  -0.132136  0  3.926889  0
C  C173  1  0.28710986  0.60373065  0.07292297  1  -0.027472  0  -0.067267  -0.130968  0  3.937136  0
C  C174  1  0.01074653  0.82950872  0.52567416  1  0.315587  0  0.103833  0.209303  0  4.024443  0
C  C175  1  0.80464798  0.48445197  0.97254967  1  0.381231  0  0.107683  0.209206  0  4.029814  0
C  C176  1  0.98929721  0.17052705  0.47429902  1  0.315827  0  0.103725  0.209502  0  4.024336  0
C  C177  1  0.19529602  0.51552284  0.02747909  1  0.375965  0  0.107619  0.209687  0  4.029132  0
C  C178  1  0.98066234  0.77403511  0.43881982  1  0.559019  0  0.038343  -0.007482  0  3.938118  0
C  C179  1  0.83595430  0.54123738  0.05948283  1  0.511796  0  0.041991  -0.005524  0  3.8911  0
C  C180  1  0.01933573  0.22598863  0.56113604  1  0.559141  0  0.037819  -0.008238  0  3.938954  0
C  C181  1  0.16396168  0.45875361  0.94052774  1  0.514987  0  0.041363  -0.006766  0  3.891282  0
C  C182  1  0.10020004  0.98968143  0.52668426  1  1.336482  0  0.246043  0.54672  0  4.03863  0
C  C183  1  0.96317099  0.57042444  0.97120937  1  1.349435  0  0.24488  0.543218  0  4.040636  0
C  C184  1  0.89980417  0.01036501  0.47331909  1  1.336689  0  0.245932  0.54654  0  4.038017  0
C  C185  1  0.03680857  0.42961570  0.02888096  1  1.346734  0  0.244225  0.541758  0  4.039943  0
C  C186  1  0.16202448  0.09388145  0.59020731  1  -0.057458  0  -0.166846  -0.318981  0  3.938804  0
C  C187  1  0.00331241  0.57029061  0.90722375  1  -0.05591  0  -0.166834  -0.319484  0  3.937946  0
C  C188  1  0.83797629  0.90615049  0.40980783  1  -0.058088  0  -0.166842  -0.318912  0  3.938162  0
C  C189  1  0.99670220  0.42976826  0.09288812  1  -0.054986  0  -0.166911  -0.318932  0  3.937171  0
C  C190  1  0.20499993  0.16267684  0.55140366  1  -0.048744  0  -0.168002  -0.115016  0  3.940624  0
C  C191  1  0.11060426  0.65209471  0.94687900  1  0.004294  0  -0.169881  -0.116022  0  3.942773  0
C  C192  1  0.79502909  0.83738214  0.44864478  1  -0.047815  0  -0.168076  -0.115159  0  3.941076  0
C  C193  1  0.88941335  0.34797697  0.05327937  1  0.000445  0  -0.169764  -0.116818  0  3.943101  0
C  C194  1  0.28183265  0.16056399  0.53075591  1  -0.009572  0  -0.173459  -0.148862  0  3.929277  0
C  C195  1  0.12945795  0.75009022  0.96866058  1  -0.016427  0  -0.170331  -0.146458  0  3.929467  0
C  C196  1  0.71815078  0.83943676  0.46924593  1  -0.008783  0  -0.173468  -0.149045  0  3.929205  0
C  C197  1  0.87056625  0.24998021  0.03141832  1  -0.01906  0  -0.170062  -0.145806  0  3.928767  0
C  C198  1  0.34283586  0.24637812  0.51528777  1  -0.020858  0  -0.167307  -0.147418  0  3.946307  0
C  C199  1  0.23068128  0.82692612  0.98490593  1  -0.004086  0  -0.169285  -0.149113  0  3.948708  0
C  C200  1  0.65715571  0.75361506  0.48472035  1  -0.020519  0  -0.167242  -0.147399  0  3.94606  0
C  C201  1  0.76933705  0.17310666  0.01510341  1  -0.005597  0  -0.169382  -0.149434  0  3.948794  0
C  C202  1  0.40499703  0.23617059  0.47579930  1  -0.051172  0  -0.168853  -0.133602  0  3.97624  0
C  C203  1  0.25992105  0.92879140  0.02459876  1  -0.024551  0  -0.166853  -0.131507  0  3.980082  0
C  C204  1  0.59498613  0.76380453  0.52420681  1  -0.050807  0  -0.168817  -0.133514  0  3.976113  0
C  C205  1  0.74015085  0.07127057  0.97536342  1  -0.02595  0  -0.166782  -0.13153  0  3.980444  0
C  C206  1  0.48368326  0.23036914  0.53541683  1  -0.087835  0  -0.159438  -0.290222  0  3.901218  0
C  C207  1  0.19497816  0.94839793  0.96502963  1  -0.074762  0  -0.159514  -0.29022  0  3.905263  0
C  C208  1  0.51629273  0.76960898  0.46459854  1  -0.087431  0  -0.159466  -0.290148  0  3.901958  0
C  C209  1  0.80506465  0.05164994  0.03495628  1  -0.074015  0  -0.15956  -0.290227  0  3.905106  0
C  C210  1  0.51841308  0.18651358  0.48402631  1  1.386512  0  0.246235  0.5426  0  4.046031  0
C  C211  1  0.20245418  0.03466185  0.01633322  1  1.399312  0  0.246683  0.54336  0  4.048297  0
C  C212  1  0.48156879  0.81347244  0.51598999  1  1.386875  0  0.246186  0.542571  0  4.046515  0
C  C213  1  0.79754567  0.96535449  0.98366297  1  1.398403  0  0.246647  0.543554  0  4.047678  0
C  C214  1  0.61686949  0.12137707  0.50240863  1  0.285659  0  0.10969  0.216805  0  4.036972  0
C  C215  1  0.11936504  0.11520957  0.99773366  1  0.386957  0  0.105495  0.210895  0  4.046186  0
C  C216  1  0.38308966  0.87859180  0.49759449  1  0.287177  0  0.109683  0.216772  0  4.037151  0
C  C217  1  0.88065792  0.88482238  0.00223043  1  0.403997  0  0.105504  0.210802  0  4.046765  0
C  C218  1  0.69516712  0.12894787  0.56446524  1  0.022815  0  -0.072604  -0.143586  0  3.949291  0
C  C219  1  0.06745788  0.13335366  0.93547987  1  -0.028774  0  -0.06975  -0.13848  0  3.944031  0
C  C220  1  0.30471410  0.87092170  0.43554595  1  0.00867  0  -0.072586  -0.143924  0  3.950026  0
C  C221  1  0.93262669  0.86672129  0.06447860  1  -0.027144  0  -0.070093  -0.13835  0  3.944668  0
C  C222  1  0.73855283  0.08968200  0.53552299  1  -0.068025  0  -0.085147  -0.115676  0  4.022577  0
C  C223  1  0.05758826  0.20626053  0.96391245  1  -0.040554  0  -0.082363  -0.110994  0  3.999473  0
C  C224  1  0.26128890  0.91012783  0.46449359  1  -0.053836  0  -0.085033  -0.115497  0  4.021822  0
C  C225  1  0.94248221  0.79380646  0.03603299  1  -0.050128  0  -0.081944  -0.110902  0  4.000002  0
C  C226  1  0.70388555  0.04454678  0.44551419  1  0.534401  0  0.036616  0.066363  0  3.96337  0
C  C227  1  0.10027670  0.26002583  0.05394899  1  0.509537  0  0.039072  0.068363  0  3.959802  0
C  C228  1  0.29602792  0.95533710  0.55450989  1  0.530375  0  0.036419  0.06636  0  3.962301  0
C  C229  1  0.89972377  0.73999572  0.94599921  1  0.518483  0  0.03886  0.068301  0  3.959548  0
C  C230  1  0.58482094  0.07274297  0.41278126  1  0.57005  0  0.041843  -0.009913  0  3.887691  0
C  C231  1  0.15873435  0.17168070  0.08722811  1  0.550762  0  0.041303  -0.009266  0  3.898701  0
C  C232  1  0.41518198  0.92726214  0.58722544  1  0.570004  0  0.041794  -0.010012  0  3.887567  0
C  C233  1  0.84121167  0.82830521  0.91273087  1  0.533611  0  0.041272  -0.009383  0  3.899316  0
C  C234  1  0.47558718  0.89913890  0.02094720  1  0.48669  0  0.029012  0.054732  0  4.003931  0
C  C235  1  0.37834806  0.45496609  0.47901158  1  0.456491  0  0.029895  0.057559  0  4.000234  0
C  C236  1  0.52442340  0.10085536  0.97905662  1  0.49144  0  0.029125  0.055015  0  4.003512  0
C  C237  1  0.62166208  0.54504608  0.52098584  1  0.44756  0  0.029978  0.057429  0  4.000447  0
C  C238  1  0.44114762  0.84820958  0.93205784  1  -0.029304  0  -0.088496  -0.118207  0  3.997249  0
C  C239  1  0.41653480  0.50953727  0.56793636  1  0.010397  0  -0.088388  -0.118284  0  3.995392  0
C  C240  1  0.55887230  0.15179810  0.06794681  1  -0.029762  0  -0.08841  -0.118149  0  3.996943  0
C  C241  1  0.58347756  0.49049003  0.43206178  1  0.009963  0  -0.088398  -0.117999  0  3.995478  0
C  C242  1  0.47171545  0.79179897  0.90876858  1  -0.058841  0  -0.07091  -0.132332  0  3.925477  0
C  C243  1  0.38331020  0.56323160  0.59140243  1  -0.04867  0  -0.070426  -0.132645  0  3.927035  0
C  C244  1  0.52829083  0.20819787  0.09123006  1  -0.057711  0  -0.071031  -0.132625  0  3.92549  0
C  C245  1  0.61670115  0.43679516  0.40858524  1  -0.047259  0  -0.070522  -0.132532  0  3.926763  0
C  C246  1  0.53807173  0.78949923  0.97482672  1  0.40413  0  0.107709  0.211823  0  4.032622  0
C  C247  1  0.31470448  0.56330897  0.52542074  1  0.371944  0  0.107111  0.21104  0  4.034522  0
C  C248  1  0.46192588  0.21048757  0.02516667  1  0.404142  0  0.107741  0.212019  0  4.032787  0
C  C249  1  0.68531328  0.43671824  0.47457065  1  0.371565  0  0.107135  0.210692  0  4.034624  0
C  C250  1  0.57012471  0.84405685  0.06301138  1  0.512965  0  0.042059  -0.011638  0  3.885601  0
C  C251  1  0.28092702  0.50714111  0.43721140  1  0.482577  0  0.042123  -0.012257  0  3.887546  0
C  C252  1  0.42986460  0.15591457  0.93698517  1  0.51316  0  0.04194  -0.011943  0  3.886355  0
C  C253  1  0.71909615  0.49288235  0.56278198  1  0.485056  0  0.042109  -0.011952  0  3.887435  0
C  C254  1  0.65018106  0.73948168  0.00217154  1  1.385656  0  0.244518  0.546357  0  4.049421  0
C  C255  1  0.23723813  0.64819167  0.49820133  1  1.362959  0  0.243553  0.54564  0  4.052273  0
C  C256  1  0.34984190  0.26053618  0.99780934  1  1.386938  0  0.244698  0.546505  0  4.049626  0
C  C257  1  0.76275839  0.35182114  0.50178928  1  1.363299  0  0.243601  0.545788  0  4.052458  0
C  C258  1  0.65427719  0.65823243  0.96092146  1  -0.00328  0  -0.165014  -0.29844  0  3.92619  0
C  C259  1  0.19731177  0.69340510  0.53955028  1  0.0011  0  -0.164396  -0.297305  0  3.926889  0
C  C260  1  0.34574645  0.34177930  0.03908047  1  -0.003626  0  -0.165035  -0.298403  0  3.926224  0
C  C261  1  0.80267890  0.30659723  0.46045540  1  0.000835  0  -0.164434  -0.297203  0  3.92679  0
C  C262  1  0.62100466  0.58326760  0.99761582  1  -0.033427  0  -0.166007  -0.122628  0  3.898608  0
C  C263  1  0.08603297  0.62375950  0.50260913  1  -0.024506  0  -0.167178  -0.12379  0  3.899798  0
C  C264  1  0.37901368  0.41675407  0.00239072  1  -0.032872  0  -0.165983  -0.122645  0  3.898677  0
C  C265  1  0.91395235  0.37622596  0.49738245  1  -0.023612  0  -0.16736  -0.124019  0  3.900211  0
C  C266  1  0.52019127  0.54414935  0.99095761  1  0.001169  0  -0.174817  -0.149359  0  3.943814  0
C  C267  1  0.05298267  0.52899237  0.50901717  1  -0.025499  0  -0.17428  -0.149143  0  3.941149  0
C  C268  1  0.47982291  0.45586417  0.00904180  1  -0.019517  0  -0.174826  -0.149676  0  3.944104  0
C  C269  1  0.94701674  0.47100455  0.49098887  1  -0.006923  0  -0.174318  -0.149118  0  3.941205  0
C  C270  1  0.87636066  0.46055771  0.26910704  1  1.552469  0  0.188238  0.556559  0  4.241028  0
C  C271  1  0.68973127  0.60641137  0.23182232  1  1.557363  0  0.184619  0.549234  0  4.252348  0
C  C272  1  0.12356618  0.53936859  0.73090004  1  1.544898  0  0.18809  0.556514  0  4.241852  0
C  C273  1  0.31025156  0.39354595  0.76819157  1  1.555043  0  0.184483  0.548996  0  4.252031  0
C  C274  1  0.73561532  0.13127007  0.25153054  1  1.52976  0  0.183278  0.555448  0  4.244166  0
C  C275  1  0.37927977  0.48376179  0.24925859  1  1.527789  0  0.180226  0.550402  0  4.245283  0
C  C276  1  0.26438324  0.86865963  0.74845269  1  1.529538  0  0.183717  0.555501  0  4.243588  0
C  C277  1  0.62069774  0.51619831  0.75072804  1  1.527746  0  0.180252  0.550323  0  4.245121  0
C  C278  1  0.05792568  0.31348537  0.25773365  1  1.549535  0  0.186582  0.542483  0  4.256498  0
C  C279  1  0.55663022  0.80156820  0.24404160  1  1.533637  0  0.183019  0.540048  0  4.261722  0
C  C280  1  0.94208675  0.68653897  0.74228852  1  1.549203  0  0.186397  0.542006  0  4.256985  0
C  C281  1  0.44338182  0.19842144  0.75597537  1  1.533669  0  0.182913  0.539979  0  4.262205  0
C  C282  1  0.88589412  0.38029996  0.26660651  1  -0.023116  0  -0.019727  -0.038397  0  3.980271  0
C  C283  1  0.61266068  0.61885243  0.23451337  1  -0.044382  0  -0.014304  -0.025025  0  3.974508  0
C  C284  1  0.11405945  0.61964324  0.73342224  1  0.010262  0  -0.020027  -0.038834  0  3.980129  0
C  C285  1  0.38733330  0.38111564  0.76550543  1  -0.044464  0  -0.014307  -0.025008  0  3.974433  0
C  C286  1  0.80916665  0.29619590  0.25898857  1  -0.075355  0  -0.070211  -0.0968  0  3.945511  0
C  C287  1  0.53595090  0.54936810  0.24152557  1  -0.046209  0  -0.075874  -0.109888  0  3.953869  0
C  C288  1  0.19080083  0.70372698  0.74102642  1  -0.093971  0  -0.069749  -0.096046  0  3.944213  0
C  C289  1  0.46403262  0.45060533  0.75848020  1  -0.045971  0  -0.075866  -0.109913  0  3.954012  0
C  C290  1  0.81506411  0.21963421  0.25542952  1  0.026717  0  -0.024111  -0.044712  0  4.015884  0
C  C291  1  0.46355657  0.55934397  0.24524663  1  0.000447  0  -0.021269  -0.035971  0  4.008747  0
C  C292  1  0.18493490  0.78030645  0.74457656  1  0.029734  0  -0.024435  -0.04526  0  4.015231  0
C  C293  1  0.53641786  0.44062027  0.75474910  1  0.002332  0  -0.021217  -0.035758  0  4.008927  0
C  C294  1  0.89693626  0.22618009  0.25616550  1  -0.071047  0  -0.075903  -0.104849  0  3.961468  0
C  C295  1  0.46996211  0.64113042  0.24477780  1  -0.038533  0  -0.073965  -0.103217  0  3.956126  0
C  C296  1  0.10306465  0.77377199  0.74383230  1  -0.073725  0  -0.075782  -0.10479  0  3.961286  0
C  C297  1  0.53002024  0.35883878  0.75521737  1  -0.038867  0  -0.073848  -0.103239  0  3.956313  0
C  C298  1  0.97293292  0.30888280  0.26151969  1  -0.049788  0  -0.020412  -0.039889  0  3.994924  0
C  C299  1  0.54753167  0.71209681  0.23993562  1  -0.011234  0  -0.020878  -0.03981  0  3.995615  0
C  C300  1  0.02706698  0.69110147  0.73851669  1  -0.028106  0  -0.020635  -0.039857  0  3.995079  0
C  C301  1  0.45247694  0.28788814  0.76008654  1  -0.011907  0  -0.02085  -0.040063  0  3.996147  0
C  C302  1  0.96822658  0.38688922  0.26859903  1  -0.031795  0  -0.062163  -0.079677  0  3.88346  0
C  C303  1  0.61804135  0.69997651  0.23301778  1  -0.005788  0  -0.062823  -0.085515  0  3.884926  0
C  C304  1  0.03175108  0.61308505  0.73146595  1  -0.06074  0  -0.062164  -0.079743  0  3.883213  0
C  C305  1  0.38196277  0.30000237  0.76699400  1  -0.005356  0  -0.06281  -0.085157  0  3.885176  0
N  N306  1  0.91264320  0.67959522  0.39859046  1  -1.248015  0  -0.327834  -0.217695  0  3.567698  0
N  N307  1  0.78096779  0.51251430  0.09896754  1  -1.256769  0  -0.329341  -0.210136  0  3.563695  0
N  N308  1  0.08735867  0.32042823  0.60139978  1  -1.248463  0  -0.327592  -0.217302  0  3.567757  0
N  N309  1  0.21895043  0.48747249  0.90104103  1  -1.257253  0  -0.328846  -0.209097  0  3.563395  0
N  N310  1  0.07940398  0.92867992  0.56683841  1  -1.219159  0  -0.395423  -0.388471  0  3.544457  0
N  N311  1  0.86220091  0.51230778  0.93113216  1  -1.224825  0  -0.400083  -0.39503  0  3.5491  0
N  N312  1  0.92067043  0.07135680  0.43314904  1  -1.216902  0  -0.3952  -0.389012  0  3.544743  0
N  N313  1  0.13777683  0.48766438  0.06892275  1  -1.224855  0  -0.399872  -0.394797  0  3.548833  0
N  N314  1  0.57234681  0.15995726  0.53067117  1  -1.241949  0  -0.4004  -0.395944  0  3.566781  0
N  N315  1  0.12936995  0.04190597  0.96977461  1  -1.233549  0  -0.401195  -0.396233  0  3.567971  0
N  N316  1  0.42761881  0.84001740  0.46933714  1  -1.243125  0  -0.400339  -0.395752  0  3.566436  0
N  N317  1  0.87065562  0.95812588  0.03019290  1  -1.234588  0  -0.401184  -0.396091  0  3.567934  0
N  N318  1  0.62826471  0.03631017  0.38619271  1  -1.238378  0  -0.3251  -0.21577  0  3.543531  0
N  N319  1  0.14926286  0.24220917  0.11358946  1  -1.229573  0  -0.327313  -0.221467  0  3.55021  0
N  N320  1  0.37171509  0.96366439  0.61382300  1  -1.238293  0  -0.325101  -0.215898  0  3.543188  0
N  N321  1  0.85069715  0.75778894  0.88636792  1  -1.232415  0  -0.327223  -0.221444  0  3.550216  0
N  N322  1  0.53757005  0.89582544  0.08455416  1  -1.243093  0  -0.327355  -0.230807  0  3.547548  0
N  N323  1  0.31115052  0.45309278  0.41550960  1  -1.225947  0  -0.326944  -0.231989  0  3.543708  0
N  N324  1  0.46241567  0.10414172  0.91544741  1  -1.247709  0  -0.327284  -0.230696  0  3.547599  0
N  N325  1  0.68886518  0.54692404  0.58448845  1  -1.226192  0  -0.327053  -0.232096  0  3.544088  0
N  N326  1  0.56664349  0.73083439  0.95153353  1  -1.233776  0  -0.399503  -0.390843  0  3.564597  0
N  N327  1  0.27905800  0.61488774  0.54874521  1  -1.235341  0  -0.399204  -0.390458  0  3.561899  0
N  N328  1  0.43336179  0.26916007  0.04845902  1  -1.236134  0  -0.399492  -0.390713  0  3.564397  0
N  N329  1  0.72097476  0.38514643  0.45124929  1  -1.234951  0  -0.399064  -0.39042  0  3.56187  0
O  O330  1  0.06879608  0.96069946  0.44605889  1  -1.138194  0  -0.307562  -0.508647  0  2.090863  0
O  O331  1  0.01479097  0.61593845  0.05196389  1  -1.159306  0  -0.302488  -0.498389  0  2.089012  0
O  O332  1  0.93113957  0.03935599  0.55394101  1  -1.137868  0  -0.307474  -0.508346  0  2.090823  0
O  O333  1  0.98514048  0.38412931  0.94812512  1  -1.156992  0  -0.30203  -0.497571  0  2.088177  0
O  O334  1  0.49934406  0.17413240  0.40752209  1  -1.137759  0  -0.29546  -0.478771  0  2.077081  0
O  O335  1  0.26655537  0.09222536  0.09268811  1  -1.15263  0  -0.298107  -0.4821  0  2.076302  0
O  O336  1  0.50065672  0.82586977  0.59249837  1  -1.137702  0  -0.295441  -0.478789  0  2.077454  0
O  O337  1  0.73338740  0.90775428  0.90733066  1  -1.152711  0  -0.29802  -0.48224  0  2.076022  0
O  O338  1  0.71355453  0.80658623  0.07522420  1  -1.150462  0  -0.300189  -0.4855  0  2.06244  0
O  O339  1  0.23153573  0.63918134  0.42522025  1  -1.141053  0  -0.300695  -0.487053  0  2.065536  0
O  O340  1  0.28648660  0.19346769  0.92473891  1  -1.150322  0  -0.300321  -0.485656  0  2.062952  0
O  O341  1  0.76842641  0.36079976  0.57475686  1  -1.141529  0  -0.300757  -0.487091  0  2.065557  0
O  O342  1  0.93972036  0.53156475  0.26338696  1  -1.163972  0  -0.344705  -0.566518  0  2.130344  0
O  O343  1  0.76721202  0.67658887  0.23965961  1  -1.166298  0  -0.342961  -0.559421  0  2.137717  0
O  O344  1  0.06018591  0.46835717  0.73658660  1  -1.16399  0  -0.344866  -0.566834  0  2.130807  0
O  O345  1  0.23274192  0.32335082  0.76029921  1  -1.165298  0  -0.342902  -0.559379  0  2.137484  0
O  O346  1  0.80282566  0.45225933  0.27473707  1  -1.174978  0  -0.350239  -0.582296  0  2.173979  0
O  O347  1  0.67474452  0.52609361  0.22360175  1  -1.175065  0  -0.350049  -0.580641  0  2.170717  0
O  O348  1  0.19712027  0.54766828  0.72531147  1  -1.174738  0  -0.349936  -0.581923  0  2.174811  0
O  O349  1  0.32526996  0.47388735  0.77646493  1  -1.174253  0  -0.350014  -0.580509  0  2.170609  0
O  O350  1  0.65349110  0.11895867  0.23392961  1  -1.170015  0  -0.350279  -0.583771  0  2.17735  0
O  O351  1  0.38398206  0.41849516  0.26640053  1  -1.173473  0  -0.348039  -0.582775  0  2.173066  0
O  O352  1  0.34648969  0.88093619  0.76603917  1  -1.170558  0  -0.350572  -0.583755  0  2.176982  0
O  O353  1  0.61598429  0.58146226  0.73359127  1  -1.17405  0  -0.348077  -0.582823  0  2.172879  0
O  O354  1  0.75257625  0.07208522  0.26595937  1  -1.163957  0  -0.342322  -0.555937  0  2.146708  0
O  O355  1  0.30648990  0.48717912  0.23543929  1  -1.164153  0  -0.340139  -0.552513  0  2.150285  0
O  O356  1  0.24744895  0.92787476  0.73404822  1  -1.16376  0  -0.342469  -0.556092  0  2.146767  0
O  O357  1  0.69348189  0.51277928  0.76451824  1  -1.163612  0  -0.340217  -0.552454  0  2.15011  0
O  O358  1  0.07309570  0.25229216  0.26990752  1  -1.176498  0  -0.350647  -0.580929  0  2.122783  0
O  O359  1  0.48377746  0.80505570  0.23165262  1  -1.176527  0  -0.349723  -0.578712  0  2.12378  0
O  O360  1  0.92691394  0.74771689  0.73007056  1  -1.176694  0  -0.350476  -0.580689  0  2.122561  0
O  O361  1  0.51624148  0.19494039  0.76839027  1  -1.176955  0  -0.349655  -0.578689  0  2.123908  0
O  O362  1  0.11314269  0.38093511  0.24248189  1  -1.166528  0  -0.330691  -0.548886  0  2.238531  0
O  O363  1  0.63935436  0.87208962  0.25972916  1  -1.171445  0  -0.32978  -0.550102  0  2.239274  0
O  O364  1  0.88687583  0.61910728  0.75756237  1  -1.165901  0  -0.3307  -0.548732  0  2.238551  0
O  O365  1  0.36064450  0.12787889  0.74025479  1  -1.17151  0  -0.329821  -0.55017  0  2.239087  0
O  O366  1  0.97833754  0.73330508  0.23976879  1  -1.180033  0  -0.548915  -0.71746  0  1.981059  0
O  O367  1  0.02170613  0.26671424  0.75989196  1  -1.183771  0  -0.547971  -0.716312  0  1.982968  0
O  O368  1  0.43932442  0.96831736  0.20380506  1  -1.207571  0  -0.555446  -0.723274  0  2.019215  0
O  O369  1  0.26394562  0.23508799  0.29597533  1  -1.201568  0  -0.554456  -0.71988  0  2.023236  0
O  O370  1  0.56067067  0.03166377  0.79618359  1  -1.206759  0  -0.55529  -0.723121  0  2.019117  0
O  O371  1  0.73601735  0.76486812  0.70399849  1  -1.202122  0  -0.554484  -0.720188  0  2.023125  0
