# generated using pymatgen
data_CaH11PtC19N7
_symmetry_space_group_name_H-M   'P 1'
_cell_length_a   8.55602029
_cell_length_b   8.55602197
_cell_length_c   13.30848201
_cell_angle_alpha   79.89849788
_cell_angle_beta   79.89856114
_cell_angle_gamma   74.77381031
_symmetry_Int_Tables_number   1
_chemical_formula_structural   CaH11PtC19N7
_chemical_formula_sum   'Ca2 H22 Pt2 C38 N14'
_cell_volume   916.86514472
_cell_formula_units_Z   2
loop_
 _symmetry_equiv_pos_site_id
 _symmetry_equiv_pos_as_xyz
  1  'x, y, z'
loop_
 _atom_site_type_symbol
 _atom_site_label
 _atom_site_symmetry_multiplicity
 _atom_site_fract_x
 _atom_site_fract_y
 _atom_site_fract_z
 _atom_site_occupancy
 _atom_site_hle17_bader_spin_density
 _atom_site_hle17_ddec_charge
 _atom_site_hle17_ddec_spin_density
 _atom_site_hle17_ddec_sum_bond_order
 _atom_site_hle17_magmom
 _atom_site_hse06_10hf_bader_spin_density
 _atom_site_hse06_10hf_ddec_charge
 _atom_site_hse06_10hf_ddec_spin_density
 _atom_site_hse06_10hf_ddec_sum_bond_order
 _atom_site_hse06_10hf_magmom
 _atom_site_hse06_bader_spin_density
 _atom_site_hse06_ddec_charge
 _atom_site_hse06_ddec_spin_density
 _atom_site_hse06_ddec_sum_bond_order
 _atom_site_hse06_magmom
 _atom_site_pbe_bader_spin_density
 _atom_site_pbe_cm5_charge
 _atom_site_pbe_ddec_charge
 _atom_site_pbe_ddec_spin_density
 _atom_site_pbe_ddec_sum_bond_order
 _atom_site_pbe_magmom
Ca  Ca0  1  0.39417635  0.60582248  0.75000077  1  0  1.378086  0  1.28628  0  0  1.202735  0  1.668804  0  0  1.246592  0  1.629858  0  0  0.951389  1.170552  0  1.695869  0
Ca  Ca1  1  0.60582116  0.39417910  0.25000039  1  0  1.378094  0  1.286264  0  0  1.202796  0  1.668729  0  0  1.246653  0  1.629779  0  0  0.951393  1.170613  0  1.695795  0
H  H2  1  0.18085229  0.44788658  0.17046650  1  0  0.111089  0  0.948653  0  0  0.119392  0  1.009288  0  0  0.122116  0  1.009425  0  0  0.112216  0.117454  0  1.009308  0
H  H3  1  0.55211338  0.81914887  0.32953253  1  0  0.111078  0  0.948654  0  0  0.11938  0  1.009294  0  0  0.122106  0  1.009432  0  0  0.112212  0.117445  0  1.009319  0
H  H4  1  0.81914817  0.55211256  0.82953309  1  0  0.111085  0  0.948649  0  0  0.119388  0  1.009287  0  0  0.122113  0  1.009424  0  0  0.112225  0.117454  0  1.009305  0
H  H5  1  0.44788561  0.18085149  0.67046784  1  0  0.111073  0  0.948631  0  0  0.119377  0  1.009275  0  0  0.122102  0  1.009413  0  0  0.112209  0.117442  0  1.009294  0
H  H6  1  0.36402493  0.44187945  0.00324781  1  0  0.068677  0  0.974326  0  0  0.076233  0  1.041176  0  0  0.077673  0  1.040864  0  0  0.116121  0.07521  0  1.041382  0
H  H7  1  0.55811705  0.63597569  0.49675400  1  0  0.068683  0  0.974341  0  0  0.076245  0  1.041179  0  0  0.077685  0  1.040867  0  0  0.116137  0.075226  0  1.041389  0
H  H8  1  0.63597227  0.55811845  0.99675380  1  0  0.068636  0  0.974356  0  0  0.076225  0  1.041166  0  0  0.077664  0  1.040855  0  0  0.116114  0.075206  0  1.04137  0
H  H9  1  0.44188194  0.36402467  0.50324562  1  0  0.068635  0  0.974343  0  0  0.076211  0  1.041175  0  0  0.077651  0  1.040863  0  0  0.116127  0.075193  0  1.041383  0
H  H10  1  0.84408204  0.85369203  0.02366908  1  0  0.0889  0  0.992783  0  0  0.090547  0  1.071783  0  0  0.094721  0  1.068487  0  0  0.093172  0.087504  0  1.074277  0
H  H11  1  0.14630699  0.15591848  0.47633173  1  0  0.088892  0  0.992822  0  0  0.090548  0  1.071815  0  0  0.094716  0  1.068525  0  0  0.093164  0.087506  0  1.074307  0
H  H12  1  0.15591991  0.14630589  0.97633123  1  0  0.088928  0  0.992792  0  0  0.090587  0  1.071773  0  0  0.094754  0  1.068486  0  0  0.093179  0.087546  0  1.074266  0
H  H13  1  0.85369318  0.84408188  0.52366851  1  0  0.088896  0  0.992794  0  0  0.090545  0  1.071792  0  0  0.094718  0  1.068498  0  0  0.093164  0.087505  0  1.074283  0
H  H14  1  0.90896751  0.65516031  0.17864363  1  0  0.101193  0  0.955869  0  0  0.11194  0  1.013596  0  0  0.11425  0  1.01277  0  0  0.110952  0.110289  0  1.014178  0
H  H15  1  0.34484106  0.09103288  0.32135702  1  0  0.101096  0  0.955911  0  0  0.111863  0  1.013627  0  0  0.114173  0  1.0128  0  0  0.110919  0.110209  0  1.014212  0
H  H16  1  0.09103117  0.34484127  0.82135589  1  0  0.101155  0  0.955949  0  0  0.111895  0  1.013678  0  0  0.114206  0  1.012851  0  0  0.110944  0.110242  0  1.014256  0
H  H17  1  0.65516029  0.90896748  0.67864233  1  0  0.10111  0  0.955963  0  0  0.11188  0  1.013668  0  0  0.11419  0  1.012842  0  0  0.110933  0.110226  0  1.014243  0
H  H18  1  0.81593500  0.02375423  0.90739757  1  0  0.088594  0  1.000917  0  0  0.087705  0  1.083977  0  0  0.092427  0  1.079881  0  0  0.090776  0.08431  0  1.086999  0
H  H19  1  0.97624648  0.18406445  0.59260178  1  0  0.088599  0  1.000876  0  0  0.087703  0  1.083951  0  0  0.092425  0  1.079857  0  0  0.090757  0.08431  0  1.086969  0
H  H20  1  0.18406369  0.97624735  0.09260345  1  0  0.088589  0  1.000918  0  0  0.087706  0  1.08397  0  0  0.092427  0  1.079876  0  0  0.090764  0.08431  0  1.086987  0
H  H21  1  0.02375428  0.81593346  0.40739716  1  0  0.088574  0  1.000944  0  0  0.087689  0  1.083998  0  0  0.09241  0  1.079903  0  0  0.090772  0.084295  0  1.087018  0
H  H22  1  0.77558738  0.22441262  0.74999927  1  0  0.105281  0  0.957252  0  0  0.113995  0  1.018322  0  0  0.115925  0  1.018508  0  0  0.11042  0.112593  0  1.018239  0
H  H23  1  0.22441309  0.77558651  0.24999958  1  0  0.105271  0  0.957318  0  0  0.113974  0  1.018392  0  0  0.115904  0  1.018579  0  0  0.110413  0.112575  0  1.018308  0
Pt  Pt24  1  0.50000153  0.00000106  0.99999935  1  0  0.057621  0  4.08861  0  0  0.103409  0  4.642033  0  0  0.091045  0  4.616424  0  0  0.551938  0.113651  0  4.658508  0
Pt  Pt25  1  0.00000048  0.50000096  0.49999959  1  0  0.057558  0  4.088618  0  0  0.103364  0  4.642015  0  0  0.091002  0  4.616403  0  0  0.551892  0.113593  0  4.658503  0
C  C26  1  0.48295554  0.19900345  0.89671800  1  0  0.104463  0  3.60386  0  0  0.073499  0  3.946009  0  0  0.086859  0  3.953378  0  0  0.013937  0.063948  0  3.940812  0
C  C27  1  0.80099118  0.51704702  0.60328452  1  0  0.10437  0  3.604359  0  0  0.073407  0  3.946494  0  0  0.086762  0  3.953864  0  0  0.013922  0.063856  0  3.941301  0
C  C28  1  0.51704523  0.80098958  0.10328527  1  0  0.104328  0  3.604344  0  0  0.073363  0  3.946492  0  0  0.086718  0  3.953863  0  0  0.013896  0.063813  0  3.941301  0
C  C29  1  0.19900218  0.48295700  0.39671909  1  0  0.104461  0  3.603908  0  0  0.073494  0  3.946056  0  0  0.086853  0  3.953422  0  0  0.013917  0.063949  0  3.940863  0
C  C30  1  0.49395047  0.13367013  0.10825199  1  0  0.109851  0  3.605896  0  0  0.074378  0  3.953593  0  0  0.088105  0  3.960759  0  0  0.010615  0.064535  0  3.948557  0
C  C31  1  0.86633010  0.50604814  0.39174678  1  0  0.109866  0  3.605731  0  0  0.074394  0  3.953417  0  0  0.088119  0  3.960583  0  0  0.010649  0.064558  0  3.948376  0
C  C32  1  0.50604940  0.86633145  0.89174664  1  0  0.109878  0  3.605831  0  0  0.074405  0  3.953526  0  0  0.088131  0  3.960692  0  0  0.010623  0.064568  0  3.948479  0
C  C33  1  0.13366977  0.49394855  0.60825316  1  0  0.109916  0  3.605769  0  0  0.074441  0  3.953446  0  0  0.088167  0  3.960612  0  0  0.010637  0.064601  0  3.948406  0
C  C34  1  0.14466417  0.53536410  0.10375016  1  0  -0.107695  0  3.697735  0  0  -0.121277  0  3.949952  0  0  -0.127893  0  3.971291  0  0  -0.075681  -0.117018  0  3.935536  0
C  C35  1  0.46463521  0.85533425  0.39624996  1  0  -0.107658  0  3.697698  0  0  -0.121234  0  3.949923  0  0  -0.127851  0  3.971264  0  0  -0.075649  -0.116972  0  3.935518  0
C  C36  1  0.85533511  0.46463503  0.89625032  1  0  -0.107629  0  3.697676  0  0  -0.121218  0  3.949898  0  0  -0.127833  0  3.971238  0  0  -0.075649  -0.11696  0  3.935488  0
C  C37  1  0.53536288  0.14466488  0.60374990  1  0  -0.107644  0  3.697608  0  0  -0.121226  0  3.949842  0  0  -0.127843  0  3.971182  0  0  -0.07565  -0.116963  0  3.935425  0
C  C38  1  0.24812865  0.53272082  0.01034226  1  0  0.133738  0  3.726312  0  0  0.105549  0  3.98083  0  0  0.11164  0  4.000195  0  0  0.054065  0.101662  0  3.967478  0
C  C39  1  0.46727807  0.75187098  0.48965782  1  0  0.133725  0  3.726421  0  0  0.105529  0  3.980945  0  0  0.111619  0  4.00031  0  0  0.054051  0.101628  0  3.967609  0
C  C40  1  0.75186885  0.46728076  0.98965814  1  0  0.133792  0  3.726299  0  0  0.105587  0  3.980799  0  0  0.111677  0  4.000164  0  0  0.054076  0.101691  0  3.967454  0
C  C41  1  0.53272032  0.24812693  0.51034216  1  0  0.133761  0  3.726327  0  0  0.105556  0  3.980854  0  0  0.111646  0  4.000221  0  0  0.054041  0.101658  0  3.967518  0
C  C42  1  0.95987563  0.76229322  0.02069419  1  0  -0.145503  0  3.711319  0  0  -0.160735  0  3.95689  0  0  -0.168842  0  3.979543  0  0  -0.083508  -0.155358  0  3.941657  0
C  C43  1  0.23770671  0.04012568  0.47930575  1  0  -0.145476  0  3.711291  0  0  -0.160713  0  3.956869  0  0  -0.168815  0  3.979526  0  0  -0.083504  -0.155341  0  3.941634  0
C  C44  1  0.04012810  0.23770715  0.97930639  1  0  -0.145602  0  3.711284  0  0  -0.16083  0  3.956857  0  0  -0.168931  0  3.979516  0  0  -0.083521  -0.15546  0  3.941629  0
C  C45  1  0.76229346  0.95987468  0.52069374  1  0  -0.145507  0  3.71132  0  0  -0.160732  0  3.956908  0  0  -0.168837  0  3.97956  0  0  -0.083512  -0.155363  0  3.941677  0
C  C46  1  0.99589831  0.65140468  0.10815651  1  0  0.004798  0  3.712906  0  0  -0.012065  0  3.957548  0  0  -0.008967  0  3.977156  0  0  -0.063022  -0.01379  0  3.944015  0
C  C47  1  0.34859475  0.00410017  0.39184462  1  0  0.004849  0  3.712811  0  0  -0.01204  0  3.957473  0  0  -0.008941  0  3.97708  0  0  -0.063017  -0.013762  0  3.943943  0
C  C48  1  0.00410245  0.34859324  0.89184319  1  0  0.004818  0  3.712907  0  0  -0.012033  0  3.957541  0  0  -0.008935  0  3.977148  0  0  -0.06303  -0.013759  0  3.944011  0
C  C49  1  0.65140572  0.99589897  0.60815573  1  0  0.004866  0  3.712845  0  0  -0.012023  0  3.957505  0  0  -0.008923  0  3.977112  0  0  -0.063009  -0.013744  0  3.943962  0
C  C50  1  0.90345808  0.00674620  0.83794815  1  0  -0.140295  0  3.712217  0  0  -0.157641  0  3.960615  0  0  -0.165414  0  3.981871  0  0  -0.082025  -0.152504  0  3.946332  0
C  C51  1  0.99325350  0.09654178  0.66205206  1  0  -0.140287  0  3.712122  0  0  -0.157612  0  3.96053  0  0  -0.165385  0  3.981783  0  0  -0.081955  -0.152474  0  3.946243  0
C  C52  1  0.09654268  0.99325171  0.16205230  1  0  -0.140239  0  3.712049  0  0  -0.157548  0  3.960464  0  0  -0.165316  0  3.981719  0  0  -0.081935  -0.152409  0  3.94618  0
C  C53  1  0.00674667  0.90345858  0.33794817  1  0  -0.140285  0  3.712167  0  0  -0.157623  0  3.96056  0  0  -0.165392  0  3.98182  0  0  -0.082023  -0.152488  0  3.946281  0
C  C54  1  0.88040506  0.11959652  0.75000063  1  0  0.003235  0  3.737598  0  0  -0.011733  0  3.979082  0  0  -0.008974  0  4.000143  0  0  -0.067225  -0.013267  0  3.964566  0
C  C55  1  0.11959897  0.88040264  0.25000081  1  0  0.003185  0  3.737614  0  0  -0.011758  0  3.979068  0  0  -0.008997  0  4.000126  0  0  -0.067239  -0.013292  0  3.964551  0
C  C56  1  0.03990502  0.87328497  0.83599008  1  0  0.194396  0  3.74393  0  0  0.193913  0  3.981405  0  0  0.201007  0  4.000502  0  0  0.128871  0.189156  0  3.968358  0
C  C57  1  0.12671270  0.96009458  0.66400977  1  0  0.194462  0  3.743998  0  0  0.193929  0  3.98155  0  0  0.201026  0  4.000643  0  0  0.128865  0.189165  0  3.968501  0
C  C58  1  0.96009336  0.12671293  0.16400839  1  0  0.194417  0  3.743875  0  0  0.193802  0  3.981567  0  0  0.200888  0  4.000676  0  0  0.128802  0.189036  0  3.968523  0
C  C59  1  0.87328748  0.03990579  0.33599122  1  0  0.194549  0  3.743975  0  0  0.194027  0  3.981509  0  0  0.201111  0  4.000623  0  0  0.128945  0.189266  0  3.968462  0
C  C60  1  0.07132158  0.75347967  0.92986063  1  0  0.17506  0  3.758167  0  0  0.174895  0  3.99476  0  0  0.18083  0  4.015607  0  0  0.123532  0.170921  0  3.980556  0
C  C61  1  0.24652114  0.92867786  0.57013894  1  0  0.175036  0  3.758153  0  0  0.17488  0  3.994763  0  0  0.180815  0  4.015608  0  0  0.123529  0.170915  0  3.980545  0
C  C62  1  0.92868007  0.24651947  0.07014033  1  0  0.175186  0  3.758097  0  0  0.175015  0  3.994786  0  0  0.180951  0  4.015633  0  0  0.12357  0.171048  0  3.980575  0
C  C63  1  0.75348051  0.07132128  0.42985977  1  0  0.175021  0  3.758136  0  0  0.17485  0  3.994772  0  0  0.180786  0  4.015622  0  0  0.123535  0.170882  0  3.980564  0
N  N64  1  0.47101287  0.31994721  0.83840960  1  0  -0.477395  0  2.851741  0  0  -0.418759  0  3.126272  0  0  -0.436479  0  3.13716  0  0  -0.394821  -0.406248  0  3.118736  0
N  N65  1  0.68006293  0.52898591  0.66158702  1  0  -0.477246  0  2.852295  0  0  -0.418608  0  3.12681  0  0  -0.436322  0  3.137694  0  0  -0.394779  -0.406104  0  3.119288  0
N  N66  1  0.52898611  0.68006293  0.16158665  1  0  -0.477235  0  2.852318  0  0  -0.418599  0  3.126828  0  0  -0.436314  0  3.137713  0  0  -0.394791  -0.406097  0  3.11931  0
N  N67  1  0.31994317  0.47101447  0.33841029  1  0  -0.477423  0  2.851845  0  0  -0.418798  0  3.126384  0  0  -0.436519  0  3.13727  0  0  -0.394831  -0.40629  0  3.118852  0
N  N68  1  0.14912394  0.85087600  0.74999905  1  0  -0.406152  0  3.133874  0  0  -0.356046  0  3.382264  0  0  -0.371673  0  3.39899  0  0  -0.343861  -0.345027  0  3.370545  0
N  N69  1  0.85087534  0.14912313  0.25000068  1  0  -0.406184  0  3.133788  0  0  -0.356045  0  3.382228  0  0  -0.371665  0  3.39896  0  0  -0.343861  -0.345021  0  3.370504  0
N  N70  1  0.21280558  0.63622767  0.92465917  1  0  -0.395214  0  3.172435  0  0  -0.33811  0  3.426301  0  0  -0.354923  0  3.445902  0  0  -0.350545  -0.326345  0  3.412599  0
N  N71  1  0.36377151  0.78719496  0.57533980  1  0  -0.395213  0  3.172535  0  0  -0.338103  0  3.426398  0  0  -0.354916  0  3.446  0  0  -0.350531  -0.326333  0  3.412689  0
N  N72  1  0.78719370  0.36377147  0.07534131  1  0  -0.395338  0  3.172318  0  0  -0.338237  0  3.426214  0  0  -0.355048  0  3.445813  0  0  -0.350579  -0.326464  0  3.412503  0
N  N73  1  0.63622747  0.21280539  0.42465982  1  0  -0.395251  0  3.17238  0  0  -0.338149  0  3.426267  0  0  -0.35496  0  3.445866  0  0  -0.350562  -0.326384  0  3.41257  0
N  N74  1  0.49339528  0.21576249  0.17017306  1  0  -0.483723  0  2.875056  0  0  -0.425673  0  3.153384  0  0  -0.443599  0  3.164409  0  0  -0.406013  -0.413004  0  3.14574  0
N  N75  1  0.78423495  0.50660507  0.32982731  1  0  -0.483725  0  2.874928  0  0  -0.425681  0  3.153273  0  0  -0.443606  0  3.164298  0  0  -0.406025  -0.413017  0  3.145634  0
N  N76  1  0.50660192  0.78423542  0.82982855  1  0  -0.483736  0  2.875046  0  0  -0.425683  0  3.153386  0  0  -0.443609  0  3.164411  0  0  -0.406006  -0.41302  0  3.145745  0
N  N77  1  0.21576610  0.49339651  0.67017119  1  0  -0.483765  0  2.875015  0  0  -0.425711  0  3.153357  0  0  -0.443637  0  3.164381  0  0  -0.406018  -0.413041  0  3.14571  0
