# generated using pymatgen
data_SnH4(C2O)4
_symmetry_space_group_name_H-M   'P 1'
_cell_length_a   4.66919221
_cell_length_b   18.18085940
_cell_length_c   18.18085874
_cell_angle_alpha   90.00010025
_cell_angle_beta   90.00000931
_cell_angle_gamma   89.99993067
_symmetry_Int_Tables_number   1
_chemical_formula_structural   SnH4(C2O)4
_chemical_formula_sum   'Sn8 H32 C64 O32'
_cell_volume   1543.37177263
_cell_formula_units_Z   8
loop_
 _symmetry_equiv_pos_site_id
 _symmetry_equiv_pos_as_xyz
  1  'x, y, z'
loop_
 _atom_site_type_symbol
 _atom_site_label
 _atom_site_symmetry_multiplicity
 _atom_site_fract_x
 _atom_site_fract_y
 _atom_site_fract_z
 _atom_site_occupancy
 _atom_site_hle17_bader_spin_density
 _atom_site_hle17_ddec_charge
 _atom_site_hle17_ddec_spin_density
 _atom_site_hle17_ddec_sum_bond_order
 _atom_site_hle17_magmom
 _atom_site_hse06_10hf_bader_spin_density
 _atom_site_hse06_10hf_ddec_charge
 _atom_site_hse06_10hf_ddec_spin_density
 _atom_site_hse06_10hf_ddec_sum_bond_order
 _atom_site_hse06_10hf_magmom
 _atom_site_hse06_bader_spin_density
 _atom_site_hse06_ddec_charge
 _atom_site_hse06_ddec_spin_density
 _atom_site_hse06_ddec_sum_bond_order
 _atom_site_hse06_magmom
 _atom_site_pbe_bader_spin_density
 _atom_site_pbe_cm5_charge
 _atom_site_pbe_ddec_charge
 _atom_site_pbe_ddec_spin_density
 _atom_site_pbe_ddec_sum_bond_order
 _atom_site_pbe_magmom
Sn  Sn0  1  0.50000066  0.15842315  0.65842339  1  0  1.046554  0  2.035536  0  0  0.890157  0  2.454841  0  0  0.931185  0  2.430555  0  0  0.539407  0.860323  0  2.472593  0
Sn  Sn1  1  0.00000019  0.84158192  0.15841790  1  0  1.04664  0  2.035691  0  0  0.890171  0  2.455065  0  0  0.93118  0  2.430779  0  0  0.539407  0.860335  0  2.472813  0
Sn  Sn2  1  0.49999814  0.34157637  0.84157662  1  0  1.046633  0  2.03551  0  0  0.890256  0  2.454792  0  0  0.93128  0  2.430499  0  0  0.539414  0.860415  0  2.472542  0
Sn  Sn3  1  0.00000068  0.65842297  0.34157630  1  0  1.046663  0  2.035481  0  0  0.890169  0  2.454918  0  0  0.931172  0  2.430626  0  0  0.539428  0.860315  0  2.472668  0
Sn  Sn4  1  0.50000108  0.84157705  0.34157647  1  0  1.046611  0  2.035506  0  0  0.89025  0  2.454791  0  0  0.931283  0  2.430504  0  0  0.539423  0.860404  0  2.472545  0
Sn  Sn5  1  0.99998227  0.15841994  0.84157867  1  0  1.046723  0  2.035424  0  0  0.890255  0  2.454828  0  0  0.931285  0  2.430532  0  0  0.539392  0.860407  0  2.47258  0
Sn  Sn6  1  0.49999932  0.65842328  0.15842325  1  0  1.046595  0  2.035488  0  0  0.890146  0  2.454896  0  0  0.931167  0  2.430604  0  0  0.539406  0.860303  0  2.47265  0
Sn  Sn7  1  0.99999892  0.34157613  0.65842356  1  0  1.046627  0  2.035471  0  0  0.890248  0  2.454785  0  0  0.931273  0  2.430481  0  0  0.539412  0.860409  0  2.472544  0
H  H8  1  0.36666475  0.21889813  0.44895369  1  0  0.095734  0  0.960225  0  0  0.103226  0  1.028875  0  0  0.105646  0  1.027467  0  0  0.103507  0.101418  0  1.029968  0
H  H9  1  0.86666163  0.05104495  0.21889786  1  0  0.095678  0  0.960167  0  0  0.103152  0  1.028839  0  0  0.105567  0  1.027432  0  0  0.103487  0.101343  0  1.029933  0
H  H10  1  0.36666020  0.28110276  0.05104625  1  0  0.095753  0  0.960213  0  0  0.103258  0  1.028846  0  0  0.105677  0  1.027439  0  0  0.1035  0.101447  0  1.029944  0
H  H11  1  0.86666499  0.44895414  0.28110210  1  0  0.095743  0  0.960211  0  0  0.103239  0  1.02886  0  0  0.105657  0  1.027453  0  0  0.103516  0.101429  0  1.029958  0
H  H12  1  0.13334058  0.71889772  0.55104501  1  0  0.09575  0  0.960206  0  0  0.103249  0  1.028844  0  0  0.105668  0  1.027439  0  0  0.103518  0.101438  0  1.02994  0
H  H13  1  0.63333664  0.94895512  0.71889923  1  0  0.095716  0  0.960176  0  0  0.103207  0  1.028834  0  0  0.105627  0  1.027428  0  0  0.103497  0.101398  0  1.029928  0
H  H14  1  0.13334056  0.78110305  0.94895421  1  0  0.095753  0  0.96021  0  0  0.103261  0  1.028835  0  0  0.105681  0  1.027429  0  0  0.103508  0.101451  0  1.02993  0
H  H15  1  0.63333118  0.55104549  0.78110111  1  0  0.095738  0  0.960125  0  0  0.103216  0  1.0288  0  0  0.105632  0  1.027392  0  0  0.103524  0.101409  0  1.02989  0
H  H16  1  0.63334127  0.78110262  0.55104618  1  0  0.095745  0  0.960273  0  0  0.103255  0  1.028894  0  0  0.105675  0  1.027488  0  0  0.103514  0.101444  0  1.02999  0
H  H17  1  0.13333796  0.94895525  0.78110090  1  0  0.095762  0  0.960201  0  0  0.103236  0  1.028877  0  0  0.105655  0  1.027471  0  0  0.103518  0.101427  0  1.029971  0
H  H18  1  0.63333940  0.71889799  0.94895417  1  0  0.095765  0  0.960222  0  0  0.103247  0  1.028887  0  0  0.105664  0  1.027481  0  0  0.103518  0.101438  0  1.029978  0
H  H19  1  0.13333889  0.55104497  0.71889777  1  0  0.095729  0  0.960218  0  0  0.103206  0  1.028881  0  0  0.105622  0  1.027473  0  0  0.103516  0.101397  0  1.029973  0
H  H20  1  0.86666116  0.28110193  0.44895486  1  0  0.095748  0  0.960184  0  0  0.103246  0  1.028829  0  0  0.105666  0  1.027421  0  0  0.103514  0.101438  0  1.029921  0
H  H21  1  0.36666724  0.05104563  0.28110119  1  0  0.095698  0  0.960109  0  0  0.103152  0  1.028822  0  0  0.105567  0  1.027414  0  0  0.103493  0.101344  0  1.029912  0
H  H22  1  0.86665904  0.21889715  0.05104510  1  0  0.095729  0  0.960216  0  0  0.103224  0  1.028864  0  0  0.105643  0  1.027457  0  0  0.103503  0.101414  0  1.02996  0
H  H23  1  0.36666414  0.44895526  0.21889875  1  0  0.095724  0  0.960154  0  0  0.103199  0  1.028842  0  0  0.105614  0  1.027433  0  0  0.103511  0.10139  0  1.029936  0
H  H24  1  0.54465921  0.17167416  0.32832569  1  0  0.088464  0  0.946489  0  0  0.101175  0  1.000354  0  0  0.103968  0  1.000616  0  0  0.100225  0.099201  0  1.000284  0
H  H25  1  0.04465619  0.17167300  0.17167356  1  0  0.088475  0  0.946491  0  0  0.101184  0  1.000356  0  0  0.103979  0  1.000614  0  0  0.100251  0.099211  0  1.000287  0
H  H26  1  0.54465880  0.32832778  0.17167481  1  0  0.088469  0  0.946488  0  0  0.101169  0  1.00036  0  0  0.103961  0  1.000625  0  0  0.100241  0.099196  0  1.00029  0
H  H27  1  0.04466015  0.32832634  0.32832581  1  0  0.088452  0  0.946465  0  0  0.101153  0  1.00034  0  0  0.103947  0  1.000602  0  0  0.100223  0.09918  0  1.000271  0
H  H28  1  0.95534587  0.67167331  0.67167350  1  0  0.088494  0  0.946493  0  0  0.101191  0  1.000366  0  0  0.103986  0  1.000625  0  0  0.100249  0.099217  0  1.000297  0
H  H29  1  0.45534467  0.82832770  0.67167418  1  0  0.088451  0  0.946522  0  0  0.101161  0  1.000383  0  0  0.103953  0  1.000651  0  0  0.100237  0.099188  0  1.000313  0
H  H30  1  0.95534126  0.82832831  0.82832576  1  0  0.088486  0  0.94647  0  0  0.101194  0  1.000335  0  0  0.103983  0  1.000613  0  0  0.100255  0.099219  0  1.000266  0
H  H31  1  0.45534080  0.67167407  0.82832506  1  0  0.088474  0  0.946466  0  0  0.101142  0  1.000379  0  0  0.10393  0  1.00064  0  0  0.10023  0.09917  0  1.000307  0
H  H32  1  0.78200684  0.03688413  0.46311569  1  0  0.119098  0  0.9386  0  0  0.124644  0  1.004503  0  0  0.128549  0  1.001801  0  0  0.113304  0.121804  0  1.006543  0
H  H33  1  0.28200374  0.03688383  0.03688388  1  0  0.119119  0  0.938511  0  0  0.124653  0  1.004441  0  0  0.128556  0  1.001741  0  0  0.113297  0.121811  0  1.006481  0
H  H34  1  0.78200142  0.46311553  0.03688482  1  0  0.119089  0  0.938541  0  0  0.124631  0  1.004459  0  0  0.128538  0  1.00175  0  0  0.113291  0.12179  0  1.006499  0
H  H35  1  0.28200285  0.46311543  0.46311550  1  0  0.119038  0  0.93866  0  0  0.124601  0  1.004557  0  0  0.128504  0  1.001859  0  0  0.113277  0.12176  0  1.006597  0
H  H36  1  0.71799889  0.53688422  0.53688382  1  0  0.119154  0  0.938444  0  0  0.124683  0  1.004388  0  0  0.128587  0  1.001683  0  0  0.11331  0.121841  0  1.006428  0
H  H37  1  0.21799918  0.96311552  0.53688528  1  0  0.119087  0  0.938538  0  0  0.124634  0  1.004448  0  0  0.12854  0  1.001742  0  0  0.1133  0.121793  0  1.006489  0
H  H38  1  0.71800229  0.96311527  0.96311543  1  0  0.11914  0  0.93847  0  0  0.124673  0  1.0044  0  0  0.128575  0  1.001702  0  0  0.113316  0.121832  0  1.00644  0
H  H39  1  0.21799604  0.53688412  0.96311505  1  0  0.119124  0  0.938577  0  0  0.124653  0  1.004496  0  0  0.128557  0  1.001796  0  0  0.113292  0.121811  0  1.006537  0
C  C40  1  0.95558693  0.15628941  0.53646602  1  0  0.672045  0  3.818775  0  0  0.611674  0  4.114556  0  0  0.648611  0  4.104276  0  0  0.2326  0.586526  0  4.120901  0
C  C41  1  0.45558406  0.96353373  0.15628830  1  0  0.672185  0  3.818644  0  0  0.611794  0  4.114386  0  0  0.648739  0  4.104114  0  0  0.2327  0.586647  0  4.120753  0
C  C42  1  0.95558447  0.34371052  0.96353402  1  0  0.672096  0  3.818782  0  0  0.611682  0  4.114585  0  0  0.648638  0  4.104302  0  0  0.232673  0.58653  0  4.120947  0
C  C43  1  0.45558941  0.53646607  0.34370977  1  0  0.672253  0  3.818716  0  0  0.611919  0  4.114391  0  0  0.648848  0  4.104119  0  0  0.232739  0.586776  0  4.120751  0
C  C44  1  0.54441823  0.65628833  0.46353370  1  0  0.672147  0  3.818751  0  0  0.61175  0  4.114515  0  0  0.648695  0  4.104247  0  0  0.23266  0.586599  0  4.120877  0
C  C45  1  0.04441679  0.03646639  0.65629136  1  0  0.67198  0  3.818882  0  0  0.611607  0  4.114621  0  0  0.648562  0  4.104344  0  0  0.232634  0.586459  0  4.120971  0
C  C46  1  0.54441980  0.84371254  0.03646602  1  0  0.672221  0  3.818587  0  0  0.611763  0  4.114434  0  0  0.648703  0  4.104165  0  0  0.232694  0.586614  0  4.120796  0
C  C47  1  0.04441369  0.46353382  0.84371028  1  0  0.672184  0  3.818528  0  0  0.611802  0  4.114322  0  0  0.648735  0  4.104045  0  0  0.232659  0.586639  0  4.12069  0
C  C48  1  0.04441481  0.84371189  0.46353440  1  0  0.672192  0  3.818681  0  0  0.611825  0  4.11445  0  0  0.648772  0  4.104172  0  0  0.232663  0.586675  0  4.120806  0
C  C49  1  0.54441768  0.03646593  0.84371102  1  0  0.672151  0  3.818703  0  0  0.61177  0  4.114432  0  0  0.648721  0  4.104161  0  0  0.232727  0.586616  0  4.120799  0
C  C50  1  0.04440870  0.65629023  0.03646695  1  0  0.672179  0  3.818619  0  0  0.611838  0  4.114352  0  0  0.648773  0  4.104079  0  0  0.232661  0.586685  0  4.120701  0
C  C51  1  0.54441233  0.46353303  0.65628735  1  0  0.672134  0  3.818773  0  0  0.611774  0  4.114514  0  0  0.648719  0  4.104235  0  0  0.232662  0.586633  0  4.120859  0
C  C52  1  0.45558779  0.34371077  0.53646617  1  0  0.672134  0  3.818664  0  0  0.611775  0  4.114415  0  0  0.648707  0  4.104135  0  0  0.23261  0.586623  0  4.120762  0
C  C53  1  0.95558709  0.96353436  0.34371015  1  0  0.672149  0  3.818574  0  0  0.611787  0  4.114308  0  0  0.648743  0  4.104028  0  0  0.232681  0.58664  0  4.120661  0
C  C54  1  0.45557980  0.15628766  0.96353384  1  0  0.672247  0  3.818568  0  0  0.611838  0  4.114343  0  0  0.648784  0  4.104073  0  0  0.232725  0.586689  0  4.120709  0
C  C55  1  0.95558377  0.53646693  0.15629014  1  0  0.672113  0  3.818837  0  0  0.611728  0  4.114567  0  0  0.648683  0  4.104294  0  0  0.232663  0.58658  0  4.12093  0
C  C56  1  0.06470053  0.13056243  0.46373124  1  0  -0.079145  0  3.750358  0  0  -0.055617  0  3.991967  0  0  -0.066381  0  4.014571  0  0  -0.016669  -0.048771  0  3.976859  0
C  C57  1  0.56468864  0.03626784  0.13056318  1  0  -0.079152  0  3.750215  0  0  -0.055619  0  3.991846  0  0  -0.066381  0  4.014446  0  0  -0.016666  -0.048772  0  3.976741  0
C  C58  1  0.06469127  0.36943745  0.03627034  1  0  -0.07904  0  3.750156  0  0  -0.055518  0  3.991807  0  0  -0.066278  0  4.0144  0  0  -0.01664  -0.048671  0  3.976701  0
C  C59  1  0.56469198  0.46373079  0.36943566  1  0  -0.079177  0  3.750145  0  0  -0.05564  0  3.991771  0  0  -0.066413  0  4.014389  0  0  -0.016668  -0.048797  0  3.976666  0
C  C60  1  0.43531165  0.63056190  0.53626786  1  0  -0.07915  0  3.750151  0  0  -0.055614  0  3.99179  0  0  -0.066378  0  4.01439  0  0  -0.016713  -0.04877  0  3.976686  0
C  C61  1  0.93530958  0.96373263  0.63056514  1  0  -0.079104  0  3.750132  0  0  -0.055588  0  3.991782  0  0  -0.066347  0  4.014371  0  0  -0.016688  -0.048742  0  3.976674  0
C  C62  1  0.43531336  0.86943712  0.96373138  1  0  -0.079183  0  3.750106  0  0  -0.055624  0  3.991752  0  0  -0.066392  0  4.01436  0  0  -0.016694  -0.048777  0  3.976647  0
C  C63  1  0.93529782  0.53626845  0.86943687  1  0  -0.079178  0  3.750267  0  0  -0.055631  0  3.991857  0  0  -0.066396  0  4.014462  0  0  -0.016641  -0.048782  0  3.976753  0
C  C64  1  0.93530978  0.86943777  0.53627028  1  0  -0.079186  0  3.750277  0  0  -0.055643  0  3.991897  0  0  -0.066408  0  4.014498  0  0  -0.016667  -0.048797  0  3.97679  0
C  C65  1  0.43531310  0.96373236  0.86943613  1  0  -0.079188  0  3.750202  0  0  -0.055651  0  3.99183  0  0  -0.066418  0  4.014432  0  0  -0.016709  -0.048802  0  3.976723  0
C  C66  1  0.93530405  0.63056165  0.96373008  1  0  -0.079111  0  3.750321  0  0  -0.05558  0  3.991921  0  0  -0.06635  0  4.014534  0  0  -0.016653  -0.048734  0  3.976811  0
C  C67  1  0.43530120  0.53626721  0.63056255  1  0  -0.079167  0  3.750199  0  0  -0.055619  0  3.991793  0  0  -0.06638  0  4.014385  0  0  -0.01666  -0.048776  0  3.976688  0
C  C68  1  0.56469223  0.36943665  0.46373091  1  0  -0.079205  0  3.750203  0  0  -0.055635  0  3.991797  0  0  -0.066406  0  4.014409  0  0  -0.016674  -0.048788  0  3.976688  0
C  C69  1  0.06470287  0.03626868  0.36943693  1  0  -0.079157  0  3.750121  0  0  -0.055631  0  3.991734  0  0  -0.066392  0  4.014328  0  0  -0.016654  -0.048787  0  3.976628  0
C  C70  1  0.56468624  0.13056308  0.03626904  1  0  -0.079222  0  3.750161  0  0  -0.055663  0  3.991779  0  0  -0.066432  0  4.014387  0  0  -0.016688  -0.048816  0  3.976672  0
C  C71  1  0.06469107  0.46373121  0.13056410  1  0  -0.079159  0  3.750303  0  0  -0.05562  0  3.991927  0  0  -0.066388  0  4.014533  0  0  -0.016647  -0.048773  0  3.976824  0
C  C72  1  0.27941209  0.16856442  0.42553671  1  0  -0.032938  0  3.69873  0  0  -0.06215  0  3.950345  0  0  -0.058052  0  3.968818  0  0  -0.072568  -0.064492  0  3.937716  0
C  C73  1  0.77940878  0.07446625  0.16856143  1  0  -0.032853  0  3.698913  0  0  -0.062047  0  3.950536  0  0  -0.057945  0  3.969007  0  0  -0.072516  -0.064393  0  3.937915  0
C  C74  1  0.27940517  0.33143815  0.07446708  1  0  -0.033063  0  3.698959  0  0  -0.062294  0  3.950595  0  0  -0.058193  0  3.969061  0  0  -0.072558  -0.064635  0  3.937966  0
C  C75  1  0.77941014  0.42553341  0.33143688  1  0  -0.033014  0  3.698945  0  0  -0.062241  0  3.95059  0  0  -0.058139  0  3.969059  0  0  -0.07259  -0.064587  0  3.937969  0
C  C76  1  0.22058921  0.66856182  0.57446575  1  0  -0.033002  0  3.698847  0  0  -0.062225  0  3.950474  0  0  -0.05813  0  3.968948  0  0  -0.072571  -0.064569  0  3.937847  0
C  C77  1  0.72059374  0.92553318  0.66856220  1  0  -0.032951  0  3.699044  0  0  -0.062162  0  3.950666  0  0  -0.058067  0  3.969136  0  0  -0.072539  -0.064505  0  3.938036  0
C  C78  1  0.22059321  0.83143782  0.92553347  1  0  -0.032982  0  3.698853  0  0  -0.062211  0  3.950475  0  0  -0.058111  0  3.968944  0  0  -0.072533  -0.064557  0  3.937849  0
C  C79  1  0.72058392  0.57446631  0.83143814  1  0  -0.032939  0  3.698965  0  0  -0.062144  0  3.950596  0  0  -0.058042  0  3.969062  0  0  -0.072594  -0.064485  0  3.937966  0
C  C80  1  0.72059394  0.83143689  0.57446591  1  0  -0.03297  0  3.698882  0  0  -0.062201  0  3.950511  0  0  -0.058103  0  3.968984  0  0  -0.072565  -0.064544  0  3.937883  0
C  C81  1  0.22059082  0.92553505  0.83143734  1  0  -0.032971  0  3.698958  0  0  -0.062179  0  3.950585  0  0  -0.058081  0  3.969061  0  0  -0.072548  -0.064523  0  3.937958  0
C  C82  1  0.72058801  0.66856315  0.92553499  1  0  -0.033041  0  3.698867  0  0  -0.062249  0  3.950504  0  0  -0.058152  0  3.968979  0  0  -0.0726  -0.064589  0  3.937871  0
C  C83  1  0.22058517  0.57446514  0.66856134  1  0  -0.03294  0  3.698985  0  0  -0.062153  0  3.950617  0  0  -0.058052  0  3.969087  0  0  -0.072578  -0.064498  0  3.937992  0
C  C84  1  0.77941253  0.33143783  0.42553301  1  0  -0.033039  0  3.698926  0  0  -0.062274  0  3.950565  0  0  -0.058175  0  3.969035  0  0  -0.072588  -0.064616  0  3.937932  0
C  C85  1  0.27941442  0.07446702  0.33143876  1  0  -0.03286  0  3.698891  0  0  -0.06206  0  3.950548  0  0  -0.057956  0  3.969015  0  0  -0.072551  -0.064401  0  3.93792  0
C  C86  1  0.77940853  0.16856238  0.07446639  1  0  -0.03294  0  3.698818  0  0  -0.062169  0  3.950449  0  0  -0.058069  0  3.968922  0  0  -0.072557  -0.064514  0  3.937826  0
C  C87  1  0.27940711  0.42553499  0.16856227  1  0  -0.032956  0  3.699045  0  0  -0.062173  0  3.95069  0  0  -0.05807  0  3.96916  0  0  -0.072582  -0.064519  0  3.938068  0
C  C88  1  0.38016403  0.14153097  0.35846560  1  0  -0.090374  0  3.769256  0  0  -0.098082  0  4.019263  0  0  -0.104726  0  4.041772  0  0  -0.090599  -0.093829  0  4.003955  0
C  C89  1  0.88015838  0.14153235  0.14153361  1  0  -0.090288  0  3.769341  0  0  -0.097995  0  4.019334  0  0  -0.10464  0  4.041848  0  0  -0.090573  -0.093744  0  4.004029  0
C  C90  1  0.38015917  0.35846772  0.14153489  1  0  -0.09024  0  3.769321  0  0  -0.097932  0  4.019316  0  0  -0.104574  0  4.041826  0  0  -0.090568  -0.093679  0  4.004008  0
C  C91  1  0.88016221  0.35846673  0.35846580  1  0  -0.090178  0  3.769248  0  0  -0.097881  0  4.019261  0  0  -0.104521  0  4.041769  0  0  -0.090533  -0.093627  0  4.003952  0
C  C92  1  0.11983953  0.64153182  0.64153297  1  0  -0.090274  0  3.769372  0  0  -0.097966  0  4.019357  0  0  -0.104608  0  4.041867  0  0  -0.090552  -0.093711  0  4.004047  0
C  C93  1  0.61983985  0.85846869  0.64153647  1  0  -0.090277  0  3.769366  0  0  -0.097983  0  4.019379  0  0  -0.104625  0  4.041887  0  0  -0.090575  -0.093729  0  4.004068  0
C  C94  1  0.11984122  0.85846840  0.85846680  1  0  -0.090221  0  3.769353  0  0  -0.097923  0  4.019346  0  0  -0.104569  0  4.041853  0  0  -0.090546  -0.093669  0  4.004036  0
C  C95  1  0.61983400  0.64153084  0.85846498  1  0  -0.09028  0  3.76929  0  0  -0.097958  0  4.019315  0  0  -0.104591  0  4.041813  0  0  -0.090562  -0.093705  0  4.004006  0
C  C96  1  0.95197835  0.06580625  0.43419464  1  0  -0.048287  0  3.683803  0  0  -0.087143  0  3.935885  0  0  -0.083304  0  3.954721  0  0  -0.06814  -0.089346  0  3.923099  0
C  C97  1  0.45196669  0.06580601  0.06580609  1  0  -0.048366  0  3.68361  0  0  -0.087244  0  3.935725  0  0  -0.083409  0  3.954569  0  0  -0.068212  -0.089447  0  3.922936  0
C  C98  1  0.95196451  0.43419446  0.06580587  1  0  -0.048365  0  3.683579  0  0  -0.087242  0  3.935698  0  0  -0.083399  0  3.954529  0  0  -0.068234  -0.089444  0  3.922914  0
C  C99  1  0.45197021  0.43419431  0.43419385  1  0  -0.048201  0  3.683612  0  0  -0.087114  0  3.935733  0  0  -0.083271  0  3.954577  0  0  -0.06816  -0.089315  0  3.922945  0
C  C100  1  0.54802510  0.56580425  0.56580436  1  0  -0.048404  0  3.683568  0  0  -0.087279  0  3.935669  0  0  -0.083441  0  3.954503  0  0  -0.068203  -0.089481  0  3.922884  0
C  C101  1  0.04803410  0.93419505  0.56580633  1  0  -0.048289  0  3.683571  0  0  -0.087163  0  3.935671  0  0  -0.083319  0  3.954501  0  0  -0.068193  -0.089363  0  3.922883  0
C  C102  1  0.54803290  0.93419420  0.93419378  1  0  -0.048388  0  3.683539  0  0  -0.087267  0  3.935656  0  0  -0.083427  0  3.954495  0  0  -0.068232  -0.089468  0  3.922866  0
C  C103  1  0.04802438  0.56580575  0.93419399  1  0  -0.048369  0  3.683889  0  0  -0.087199  0  3.93594  0  0  -0.083363  0  3.954787  0  0  -0.068173  -0.089399  0  3.923153  0
O  O104  1  0.10746155  0.19707093  0.57764781  1  0  -0.649015  0  2.112329  0  0  -0.57836  0  2.367493  0  0  -0.60484  0  2.358641  0  0  -0.282965  -0.559483  0  2.372856  0
O  O105  1  0.60745626  0.92235417  0.19707017  1  0  -0.649144  0  2.112509  0  0  -0.578466  0  2.367665  0  0  -0.604943  0  2.35881  0  0  -0.283007  -0.559551  0  2.372911  0
O  O106  1  0.10746140  0.30292926  0.92235494  1  0  -0.649091  0  2.112508  0  0  -0.578449  0  2.367712  0  0  -0.604925  0  2.358845  0  0  -0.283009  -0.559556  0  2.373028  0
O  O107  1  0.60746140  0.57764503  0.30292955  1  0  -0.649055  0  2.112562  0  0  -0.578426  0  2.367739  0  0  -0.604909  0  2.358893  0  0  -0.282983  -0.559525  0  2.373018  0
O  O108  1  0.39254603  0.69707022  0.42235306  1  0  -0.649139  0  2.112446  0  0  -0.578452  0  2.367612  0  0  -0.604935  0  2.358756  0  0  -0.283027  -0.559539  0  2.372888  0
O  O109  1  0.89254414  0.07764642  0.69707167  1  0  -0.648966  0  2.112472  0  0  -0.578338  0  2.367655  0  0  -0.604814  0  2.358789  0  0  -0.282981  -0.559451  0  2.37298  0
O  O110  1  0.39254996  0.80293125  0.07764721  1  0  -0.649173  0  2.112441  0  0  -0.578458  0  2.367611  0  0  -0.604936  0  2.358761  0  0  -0.28302  -0.559531  0  2.372852  0
O  O111  1  0.89253264  0.42235134  0.80292781  1  0  -0.649061  0  2.112183  0  0  -0.578429  0  2.367385  0  0  -0.604912  0  2.358535  0  0  -0.282998  -0.559556  0  2.372772  0
O  O112  1  0.89253376  0.80292927  0.42235536  1  0  -0.649143  0  2.112437  0  0  -0.578481  0  2.367616  0  0  -0.604958  0  2.358751  0  0  -0.283015  -0.559607  0  2.372976  0
O  O113  1  0.39254762  0.07764659  0.80292915  1  0  -0.649087  0  2.112362  0  0  -0.578425  0  2.367529  0  0  -0.604893  0  2.358656  0  0  -0.283021  -0.559534  0  2.372838  0
O  O114  1  0.89252963  0.69707094  0.07764548  1  0  -0.64904  0  2.112349  0  0  -0.578393  0  2.367529  0  0  -0.60487  0  2.358672  0  0  -0.282972  -0.559568  0  2.373004  0
O  O115  1  0.39254248  0.42235297  0.69707141  1  0  -0.649096  0  2.112413  0  0  -0.578466  0  2.367583  0  0  -0.604944  0  2.358725  0  0  -0.283008  -0.55956  0  2.372875  0
O  O116  1  0.60746856  0.30292889  0.57764571  1  0  -0.649033  0  2.112215  0  0  -0.578413  0  2.367406  0  0  -0.604892  0  2.358551  0  0  -0.28296  -0.55955  0  2.372805  0
O  O117  1  0.10745974  0.92235269  0.30292819  1  0  -0.64901  0  2.112306  0  0  -0.57839  0  2.36749  0  0  -0.60487  0  2.358626  0  0  -0.282979  -0.559508  0  2.37283  0
O  O118  1  0.60745178  0.19706951  0.92235266  1  0  -0.64914  0  2.112385  0  0  -0.578447  0  2.367551  0  0  -0.604921  0  2.358684  0  0  -0.28301  -0.559529  0  2.372798  0
O  O119  1  0.10745625  0.57764667  0.19707096  1  0  -0.649013  0  2.112472  0  0  -0.578339  0  2.367626  0  0  -0.60481  0  2.358758  0  0  -0.282974  -0.55942  0  2.372878  0
O  O120  1  0.70365047  0.13301279  0.55324628  1  0  -0.564433  0  2.085576  0  0  -0.484176  0  2.327308  0  0  -0.512851  0  2.320594  0  0  -0.26101  -0.4643  0  2.33156  0
O  O121  1  0.20363901  0.94675511  0.13301105  1  0  -0.564495  0  2.08542  0  0  -0.484182  0  2.327165  0  0  -0.512853  0  2.320395  0  0  -0.261071  -0.464323  0  2.331436  0
O  O122  1  0.70363933  0.36698612  0.94675430  1  0  -0.564455  0  2.085474  0  0  -0.484085  0  2.327108  0  0  -0.512813  0  2.320431  0  0  -0.261013  -0.46422  0  2.331374  0
O  O123  1  0.20364216  0.55324531  0.36698645  1  0  -0.564627  0  2.085349  0  0  -0.484298  0  2.327005  0  0  -0.512947  0  2.320266  0  0  -0.261123  -0.464436  0  2.331273  0
O  O124  1  0.79635480  0.63301050  0.44675340  1  0  -0.564446  0  2.085459  0  0  -0.484166  0  2.327258  0  0  -0.512819  0  2.32046  0  0  -0.261022  -0.464299  0  2.331521  0
O  O125  1  0.29636182  0.05324607  0.63301416  1  0  -0.564472  0  2.085445  0  0  -0.484134  0  2.327104  0  0  -0.512843  0  2.320386  0  0  -0.261037  -0.464269  0  2.33137  0
O  O126  1  0.79636483  0.86699029  0.05324524  1  0  -0.564481  0  2.085479  0  0  -0.48414  0  2.327235  0  0  -0.512798  0  2.320466  0  0  -0.261035  -0.464279  0  2.331502  0
O  O127  1  0.29635025  0.44675297  0.86698695  1  0  -0.564518  0  2.085496  0  0  -0.484267  0  2.327259  0  0  -0.512907  0  2.320497  0  0  -0.261038  -0.464393  0  2.331528  0
O  O128  1  0.29634912  0.86698851  0.44675304  1  0  -0.564419  0  2.085404  0  0  -0.484202  0  2.327196  0  0  -0.51289  0  2.320463  0  0  -0.26101  -0.464331  0  2.331457  0
O  O129  1  0.79635844  0.05324619  0.86698991  1  0  -0.564505  0  2.085456  0  0  -0.484209  0  2.327212  0  0  -0.512901  0  2.32045  0  0  -0.261072  -0.464344  0  2.331483  0
O  O130  1  0.29634742  0.63301353  0.05324667  1  0  -0.564479  0  2.085372  0  0  -0.484261  0  2.327169  0  0  -0.512915  0  2.320405  0  0  -0.261042  -0.46438  0  2.33142  0
O  O131  1  0.79635315  0.44675324  0.63301066  1  0  -0.564465  0  2.08545  0  0  -0.484177  0  2.32714  0  0  -0.512873  0  2.320437  0  0  -0.261037  -0.464314  0  2.331403  0
O  O132  1  0.20365123  0.36698640  0.55324647  1  0  -0.564473  0  2.085564  0  0  -0.484206  0  2.327272  0  0  -0.512864  0  2.320539  0  0  -0.260997  -0.464325  0  2.331519  0
O  O133  1  0.70364206  0.94675469  0.36698681  1  0  -0.564552  0  2.085391  0  0  -0.484247  0  2.327101  0  0  -0.512944  0  2.320355  0  0  -0.26109  -0.464384  0  2.331373  0
O  O134  1  0.20363905  0.13300936  0.94675408  1  0  -0.564512  0  2.085338  0  0  -0.484222  0  2.32712  0  0  -0.512897  0  2.32035  0  0  -0.261059  -0.464361  0  2.331388  0
O  O135  1  0.70364078  0.55324613  0.13301347  1  0  -0.564515  0  2.085469  0  0  -0.484191  0  2.327186  0  0  -0.512889  0  2.320436  0  0  -0.261075  -0.464328  0  2.331459  0
