# generated using pymatgen
data_CuH7CN3O5
_symmetry_space_group_name_H-M   'P 1'
_cell_length_a   7.06836544
_cell_length_b   7.48233678
_cell_length_c   12.31679614
_cell_angle_alpha   90.00001742
_cell_angle_beta   90.00000556
_cell_angle_gamma   90.00001291
_symmetry_Int_Tables_number   1
_chemical_formula_structural   CuH7CN3O5
_chemical_formula_sum   'Cu4 H28 C4 N12 O20'
_cell_volume   651.40936832
_cell_formula_units_Z   4
loop_
 _symmetry_equiv_pos_site_id
 _symmetry_equiv_pos_as_xyz
  1  'x, y, z'
loop_
 _atom_site_type_symbol
 _atom_site_label
 _atom_site_symmetry_multiplicity
 _atom_site_fract_x
 _atom_site_fract_y
 _atom_site_fract_z
 _atom_site_occupancy
 _atom_site_hle17_ddec_charge
 _atom_site_hle17_ddec_spin_density
 _atom_site_hle17_ddec_sum_bond_order
 _atom_site_hle17_magmom
 _atom_site_hse06_10hf_ddec_charge
 _atom_site_hse06_10hf_ddec_spin_density
 _atom_site_hse06_10hf_ddec_sum_bond_order
 _atom_site_hse06_10hf_magmom
 _atom_site_hse06_ddec_charge
 _atom_site_hse06_ddec_spin_density
 _atom_site_hse06_ddec_sum_bond_order
 _atom_site_hse06_magmom
 _atom_site_pbe_cm5_charge
 _atom_site_pbe_ddec_charge
 _atom_site_pbe_ddec_spin_density
 _atom_site_pbe_ddec_sum_bond_order
 _atom_site_pbe_magmom
Cu  Cu0  1  0.74999949  0.31335924  0.37489470  1  0.921337  -0.711162  1.734025  -0.521  0.908954  -0.797689  2.121878  -0.639  1.00129  -0.868109  2.048571  -0.722  0.713808  0.848551  -0.740534  2.174257  -0.58
Cu  Cu1  1  0.25000131  0.18664189  0.87488830  1  0.921389  -0.711143  1.734028  -0.521  0.909057  -0.797695  2.121829  -0.64  1.001382  -0.868117  2.048552  -0.722  0.713794  0.848618  -0.740516  2.174203  -0.58
Cu  Cu2  1  0.24999994  0.68663820  0.62510436  1  0.921356  0.711159  1.734055  0.521  0.908971  0.797681  2.121879  0.639  1.001321  0.868106  2.048574  0.722  0.713832  0.848587  0.740534  2.174271  0.58
Cu  Cu3  1  0.74999954  0.81335822  0.12511238  1  0.921408  0.71114  1.733998  0.521  0.909058  0.797696  2.121823  0.64  1.001371  0.868118  2.048553  0.722  0.713766  0.848614  0.740515  2.174199  0.58
H  H4  1  0.75000097  0.82702097  0.36387821  1  0.045267  -0.005989  0.920954  -0.007  0.049988  -0.004575  0.992236  -0.006  0.048162  -0.003176  0.988177  -0.004  0.120855  0.05101  -0.005599  0.995402  -0.007
H  H5  1  0.25000562  0.67297926  0.86385800  1  0.045427  -0.005991  0.920596  -0.007  0.050121  -0.004576  0.99194  -0.006  0.048298  -0.003176  0.987875  -0.004  0.120796  0.051141  -0.005599  0.995107  -0.007
H  H6  1  0.24999988  0.17297914  0.63612410  1  0.045276  0.005993  0.920813  0.007  0.049992  0.004575  0.992113  0.006  0.048169  0.003176  0.988048  0.004  0.120818  0.051017  0.005599  0.99528  0.007
H  H7  1  0.75000089  0.32702352  0.13614106  1  0.045435  0.005992  0.9206  0.007  0.050129  0.004576  0.991942  0.006  0.048306  0.003176  0.987881  0.004  0.120772  0.051146  0.0056  0.995112  0.007
H  H8  1  0.42211322  0.39166632  0.30957578  1  0.339747  0.000642  0.89814  0.001  0.327348  -0.000224  0.960827  0.0  0.335261  -6.6e-05  0.955451  0.0  0.288745  0.321664  -0.000353  0.964947  0.0
H  H9  1  0.57789181  0.10833352  0.80957747  1  0.33976  0.000642  0.898148  0.001  0.327374  -0.000224  0.960824  0.0  0.335268  -6.6e-05  0.955474  0.0  0.28876  0.321691  -0.000352  0.964947  0.0
H  H10  1  0.92211290  0.60833382  0.69042491  1  0.339761  -0.000641  0.898121  -0.001  0.327345  0.000224  0.960839  0.0  0.335254  6.6e-05  0.955468  0.0  0.288733  0.321663  0.000353  0.964959  0.0
H  H11  1  0.07789226  0.89166923  0.19042401  1  0.339716  -0.000642  0.898185  -0.001  0.327326  0.000224  0.960871  0.0  0.335224  6.6e-05  0.955518  0.0  0.288739  0.321641  0.000352  0.964993  0.0
H  H12  1  0.57788763  0.60833245  0.69042409  1  0.339766  -0.000639  0.89811  -0.001  0.327352  0.000224  0.96082  0.0  0.335262  6.6e-05  0.955447  0.0  0.288742  0.32167  0.000353  0.964938  0.0
H  H13  1  0.42210904  0.89166792  0.19042321  1  0.339743  -0.00064  0.898146  -0.001  0.327358  0.000223  0.960825  0.0  0.335256  6.6e-05  0.955469  0.0  0.288761  0.321673  0.000352  0.964946  0.0
H  H14  1  0.07788654  0.39166763  0.30957496  1  0.339754  0.000639  0.898124  0.001  0.327353  -0.000224  0.960816  0.0  0.335267  -6.6e-05  0.955439  0.0  0.288741  0.321668  -0.000352  0.964936  0.0
H  H15  1  0.92210860  0.10833355  0.80957667  1  0.339747  0.000638  0.898162  0.001  0.32736  -0.000224  0.960842  0.0  0.335254  -6.6e-05  0.955491  0.0  0.288755  0.321672  -0.000352  0.964968  0.0
H  H16  1  0.41596895  0.36266864  0.44275245  1  0.343476  0.00029  0.907906  0.001  0.332194  -0.000464  0.967324  0.0  0.340339  -0.00026  0.962291  0.0  0.289056  0.326442  -0.000622  0.97109  0.0
H  H17  1  0.58402620  0.13733510  0.94275660  1  0.343488  0.00029  0.907863  0.001  0.332198  -0.000464  0.967292  0.0  0.340344  -0.000259  0.962256  0.0  0.289049  0.326439  -0.000622  0.971055  0.0
H  H18  1  0.91596861  0.63733016  0.55724743  1  0.343488  -0.000292  0.907889  -0.001  0.33221  0.000464  0.967293  0.0  0.340356  0.000259  0.962258  0.0  0.289048  0.326454  0.000622  0.971058  0.0
H  H19  1  0.08402520  0.86266765  0.05724408  1  0.343498  -0.000291  0.907842  -0.001  0.332205  0.000464  0.967272  0.0  0.340352  0.000259  0.962237  0.0  0.289053  0.326446  0.000622  0.971035  0.0
H  H20  1  0.58403190  0.63732746  0.55724742  1  0.343488  -0.000289  0.907902  -0.001  0.332212  0.000464  0.967301  0.0  0.340358  0.000259  0.962266  0.0  0.289042  0.326458  0.000622  0.971066  0.0
H  H21  1  0.41597465  0.86266768  0.05724328  1  0.343485  -0.00029  0.907853  -0.001  0.332198  0.000464  0.967277  0.0  0.340344  0.000259  0.962241  0.0  0.28905  0.326437  0.000622  0.971039  0.0
H  H22  1  0.08403082  0.36266861  0.44275244  1  0.343484  0.00029  0.907905  0.001  0.332204  -0.000464  0.967316  0.0  0.34035  -0.000259  0.962282  0.0  0.289055  0.326451  -0.000622  0.971081  0.0
H  H23  1  0.91597565  0.13733380  0.94275661  1  0.343476  0.000288  0.907872  0.001  0.332185  -0.000464  0.967306  0.0  0.340331  -0.000259  0.96227  0.0  0.28905  0.326425  -0.000622  0.97107  0.0
H  H24  1  0.41996702  0.18776342  0.36016923  1  0.340166  0.000346  0.909312  0.001  0.325512  -0.000478  0.97416  0.0  0.333589  -0.000262  0.968502  0.0  0.286282  0.319667  -0.000625  0.978473  0.0
H  H25  1  0.58003520  0.31223771  0.86016781  1  0.340179  0.000347  0.909304  0.001  0.325493  -0.000478  0.974186  0.0  0.333579  -0.000262  0.968524  0.0  0.286256  0.319641  -0.000625  0.978501  0.0
H  H26  1  0.91996674  0.81223672  0.63982984  1  0.340135  -0.000347  0.909363  -0.001  0.325476  0.000478  0.974219  0.0  0.333546  0.000262  0.968574  0.0  0.286249  0.319627  0.000625  0.978534  0.0
H  H27  1  0.08003558  0.68776236  0.13983287  1  0.340188  -0.000347  0.909292  -0.001  0.32549  0.000478  0.974171  0.0  0.333607  0.000262  0.968469  0.0  0.286262  0.319636  0.000625  0.978489  0.0
H  H28  1  0.58003383  0.81223401  0.63982902  1  0.340147  -0.000347  0.909356  -0.001  0.32549  0.000478  0.974201  0.0  0.333557  0.000262  0.968563  0.0  0.286257  0.319639  0.000625  0.978516  0.0
H  H29  1  0.41996424  0.68776239  0.13983125  1  0.340162  -0.000348  0.909322  -0.001  0.325484  0.000478  0.974199  0.0  0.333577  0.000262  0.968528  0.0  0.286247  0.319631  0.000625  0.978515  0.0
H  H30  1  0.08003270  0.18776339  0.36016922  1  0.340172  0.000348  0.90932  0.001  0.325518  -0.000478  0.974166  0.0  0.333594  -0.000262  0.968513  0.0  0.286279  0.319671  -0.000625  0.97848  0.0
H  H31  1  0.91996527  0.31223908  0.86016863  1  0.340166  0.000344  0.909331  0.001  0.32548  -0.000478  0.974218  0.0  0.333567  -0.000262  0.968553  0.0  0.286261  0.31963  -0.000625  0.978532  0.0
C  C32  1  0.74999954  0.68148489  0.34755492  1  0.560641  0.00153  3.857594  0.003  0.495032  0.00046  4.169362  0.002  0.532863  0.000669  4.166701  0.002  0.145364  0.469202  0.000202  4.170341  0.001
C  C33  1  0.24999998  0.81852204  0.84753887  1  0.559278  0.001537  3.858017  0.003  0.49363  0.000462  4.169871  0.002  0.531461  0.00067  4.167244  0.002  0.144743  0.467799  0.000203  4.170821  0.001
C  C34  1  0.25000273  0.31851656  0.65244657  1  0.560454  -0.001536  3.857617  -0.003  0.494834  -0.000459  4.169417  -0.002  0.532666  -0.000668  4.16676  -0.002  0.145314  0.469001  -0.000203  4.170396  -0.001
C  C35  1  0.74999946  0.18147807  0.15246100  1  0.559234  -0.001541  3.858183  -0.003  0.49359  -0.000459  4.170025  -0.002  0.531419  -0.000669  4.167404  -0.002  0.144749  0.467753  -0.000204  4.170975  -0.001
N  N36  1  0.74999948  0.13356772  0.59575727  1  0.681167  0.000708  4.161684  0.001  0.718847  0.000244  4.449181  0.001  0.746099  0.000263  4.458002  0.001  0.098024  0.700316  0.000229  4.442518  0.001
N  N37  1  0.25000269  0.36642695  0.09575068  1  0.680991  0.000697  4.161609  0.001  0.718946  0.000243  4.448834  0.001  0.746083  0.000261  4.457769  0.001  0.098003  0.700499  0.00023  4.44205  0.001
N  N38  1  0.24999571  0.86643239  0.40424341  1  0.68117  -0.000679  4.161608  -0.001  0.718869  -0.000245  4.449084  -0.001  0.746127  -0.00026  4.457888  -0.001  0.097988  0.700318  -0.000229  4.442465  -0.001
N  N39  1  0.74999957  0.63357182  0.90424838  1  0.68114  -0.000688  4.161711  -0.001  0.718921  -0.000245  4.449101  -0.001  0.746108  -0.000258  4.457979  -0.001  0.097882  0.700369  -0.00023  4.442472  -0.001
N  N40  1  0.47336552  0.31428139  0.37193938  1  -0.85745  -0.086682  2.981151  -0.103  -0.860008  -0.053683  3.237886  -0.065  -0.895369  -0.04308  3.221735  -0.055  -0.806557  -0.837526  -0.058993  3.250689  -0.069
N  N41  1  0.52663670  0.18572108  0.87194030  1  -0.857478  -0.086689  2.981157  -0.103  -0.860062  -0.053684  3.237937  -0.065  -0.895426  -0.043081  3.22179  -0.055  -0.806552  -0.837576  -0.058998  3.250727  -0.069
N  N42  1  0.97336520  0.68571743  0.62805970  1  -0.857452  0.086689  2.981173  0.103  -0.86002  0.053686  3.237932  0.065  -0.895387  0.043081  3.221794  0.055  -0.806527  -0.83754  0.058994  3.250742  0.069
N  N43  1  0.02663711  0.81428032  0.12806118  1  -0.85746  0.086688  2.981085  0.103  -0.859993  0.053683  3.237891  0.065  -0.895381  0.04308  3.221679  0.055  -0.806533  -0.837504  0.058994  3.250679  0.069
N  N44  1  0.52663533  0.68571739  0.62805968  1  -0.857476  0.086675  2.981148  0.103  -0.86004  0.053684  3.237906  0.065  -0.895407  0.043081  3.221766  0.055  -0.806542  -0.837561  0.058992  3.250715  0.069
N  N45  1  0.47336274  0.81428037  0.12805957  1  -0.857453  0.086685  2.981101  0.103  -0.860033  0.053685  3.237868  0.065  -0.895392  0.043081  3.221708  0.055  -0.806543  -0.837544  0.058997  3.250655  0.069
N  N46  1  0.02663423  0.31428134  0.37193936  1  -0.857504  -0.086678  2.981134  -0.103  -0.860065  -0.053683  3.237867  -0.065  -0.895427  -0.043081  3.221715  -0.055  -0.806572  -0.83758  -0.058992  3.250669  -0.069
N  N47  1  0.97336374  0.18572112  0.87194032  1  -0.857442  -0.086672  2.981159  -0.103  -0.860019  -0.053682  3.237913  -0.065  -0.895382  -0.04308  3.221769  -0.055  -0.806559  -0.837528  -0.058994  3.250703  -0.069
O  O48  1  0.75000372  0.02232036  0.67530714  1  -0.503461  -0.000634  1.797879  -0.001  -0.476836  -0.00067  1.996075  -0.001  -0.492127  -0.000384  1.988896  -0.001  -0.190768  -0.465145  -0.000956  2.000395  -0.001
O  O49  1  0.24999847  0.47767693  0.17529738  1  -0.50337  -0.000641  1.797623  -0.001  -0.476698  -0.000669  1.995596  -0.001  -0.492064  -0.000385  1.988547  -0.001  -0.190707  -0.465045  -0.000958  1.999889  -0.001
O  O50  1  0.24999713  0.97767842  0.32469354  1  -0.503385  0.000624  1.79783  0.001  -0.47679  0.000671  1.996035  0.001  -0.492111  0.000382  1.988875  0.001  -0.19073  -0.465099  0.000956  2.000358  0.001
O  O51  1  0.74999955  0.52232185  0.82470168  1  -0.503461  0.000622  1.797964  0.001  -0.476661  0.000673  1.995937  0.001  -0.492014  0.000382  1.988845  0.001  -0.190623  -0.464979  0.000957  2.000261  0.001
O  O52  1  0.74999953  0.57832992  0.43013399  1  -0.564176  -0.067849  2.11606  -0.092  -0.516608  -0.04781  2.374716  -0.071  -0.558224  -0.037767  2.368516  -0.059  -0.305844  -0.488516  -0.053315  2.378869  -0.076
O  O53  1  0.25000283  0.92165957  0.93012370  1  -0.563903  -0.067838  2.116452  -0.092  -0.516256  -0.047805  2.375067  -0.071  -0.557868  -0.037763  2.368878  -0.059  -0.305787  -0.488159  -0.053313  2.3792  -0.076
O  O54  1  0.25000132  0.42167019  0.56986669  1  -0.564189  0.067851  2.116106  0.092  -0.516621  0.047811  2.374775  0.071  -0.55824  0.037769  2.368579  0.059  -0.305894  -0.488532  0.053315  2.378935  0.076
O  O55  1  0.74999802  0.07834188  0.06987536  1  -0.563875  0.067843  2.116497  0.092  -0.516224  0.047804  2.375102  0.071  -0.557833  0.037762  2.368916  0.059  -0.305771  -0.488126  0.053313  2.379235  0.076
O  O56  1  0.74999664  0.07207093  0.49933039  1  -0.471503  -0.01215  1.76727  -0.017  -0.466451  -0.009474  1.989498  -0.014  -0.486926  -0.006466  1.98133  -0.01  -0.197554  -0.451613  -0.012298  1.994966  -0.017
O  O57  1  0.25000701  0.42792074  0.99932172  1  -0.47145  -0.012139  1.767105  -0.017  -0.466523  -0.009484  1.989271  -0.014  -0.486927  -0.006467  1.981122  -0.01  -0.197585  -0.451722  -0.012311  1.994716  -0.017
O  O58  1  0.24999572  0.92793051  0.50067030  1  -0.471549  0.012128  1.767239  0.017  -0.466496  0.009476  1.989446  0.014  -0.486965  0.006459  1.981268  0.01  -0.197576  -0.451657  0.012298  1.994918  0.017
O  O59  1  0.74999808  0.57207670  0.00067815  1  -0.471531  0.012141  1.767051  0.017  -0.466543  0.009484  1.989255  0.014  -0.486969  0.006464  1.981093  0.01  -0.197583  -0.45169  0.01231  1.994706  0.017
O  O60  1  0.74999811  0.62471924  0.25071397  1  -0.563155  0.059974  2.083252  0.08  -0.533316  0.041286  2.367807  0.059  -0.575614  0.032361  2.359459  0.049  -0.314298  -0.504193  0.047342  2.373361  0.065
O  O61  1  0.24999715  0.87529445  0.75068984  1  -0.562099  0.059975  2.082979  0.08  -0.532199  0.041291  2.367472  0.059  -0.574512  0.032367  2.359176  0.049  -0.313701  -0.503079  0.047351  2.373001  0.065
O  O62  1  0.25000274  0.37528220  0.74928671  1  -0.56295  -0.059973  2.083324  -0.08  -0.533081  -0.041285  2.367838  -0.059  -0.575383  -0.03236  2.359499  -0.049  -0.31418  -0.503957  -0.04734  2.373387  -0.065
O  O63  1  0.74999804  0.12470566  0.24930922  1  -0.562086  -0.05998  2.083058  -0.08  -0.532194  -0.041293  2.367572  -0.059  -0.574505  -0.032368  2.359276  -0.049  -0.313699  -0.503069  -0.047352  2.373092  -0.065
O  O64  1  0.74999668  0.29842530  0.61351438  1  -0.4381  0.001015  1.730442  0.001  -0.429854  0.000174  1.931818  0.0  -0.443265  0.000109  1.92699  0.0  -0.184592  -0.420231  0.000417  1.934981  0.0
O  O65  1  0.24999843  0.20156936  0.11351011  1  -0.438036  0.001009  1.730753  0.001  -0.429932  0.000174  1.93208  0.0  -0.443284  0.000107  1.927289  0.0  -0.184582  -0.420315  0.000418  1.93518  0.0
O  O66  1  0.24999710  0.70157481  0.38648712  1  -0.438109  -0.001007  1.730448  -0.001  -0.42986  -0.000176  1.931809  0.0  -0.443266  -0.000104  1.926968  0.0  -0.184573  -0.420224  -0.000417  1.934963  0.0
O  O67  1  0.75000242  0.79843075  0.88649057  1  -0.438058  -0.001001  1.730619  -0.001  -0.42992  -0.000176  1.932015  0.0  -0.443295  -0.000104  1.927209  0.0  -0.184547  -0.420269  -0.000418  1.935146  0.0
