# generated using pymatgen
data_CdH16C20(NO3)2
_symmetry_space_group_name_H-M   'P 1'
_cell_length_a   10.43358523
_cell_length_b   9.59368150
_cell_length_c   11.50883719
_cell_angle_alpha   105.15073152
_cell_angle_beta   108.55180465
_cell_angle_gamma   97.26333570
_symmetry_Int_Tables_number   1
_chemical_formula_structural   CdH16C20(NO3)2
_chemical_formula_sum   'Cd2 H32 C40 N4 O12'
_cell_volume   1026.15037672
_cell_formula_units_Z   2
loop_
 _symmetry_equiv_pos_site_id
 _symmetry_equiv_pos_as_xyz
  1  'x, y, z'
loop_
 _atom_site_type_symbol
 _atom_site_label
 _atom_site_symmetry_multiplicity
 _atom_site_fract_x
 _atom_site_fract_y
 _atom_site_fract_z
 _atom_site_occupancy
 _atom_site_hle17_bader_spin_density
 _atom_site_hle17_ddec_charge
 _atom_site_hle17_ddec_spin_density
 _atom_site_hle17_ddec_sum_bond_order
 _atom_site_hle17_magmom
 _atom_site_hse06_10hf_bader_spin_density
 _atom_site_hse06_10hf_ddec_charge
 _atom_site_hse06_10hf_ddec_spin_density
 _atom_site_hse06_10hf_ddec_sum_bond_order
 _atom_site_hse06_10hf_magmom
 _atom_site_hse06_bader_spin_density
 _atom_site_hse06_ddec_charge
 _atom_site_hse06_ddec_spin_density
 _atom_site_hse06_ddec_sum_bond_order
 _atom_site_hse06_magmom
 _atom_site_pbe_bader_spin_density
 _atom_site_pbe_cm5_charge
 _atom_site_pbe_ddec_charge
 _atom_site_pbe_ddec_spin_density
 _atom_site_pbe_ddec_sum_bond_order
 _atom_site_pbe_magmom
Cd  Cd0  1  0.36383639  0.52006360  0.23307754  1  0  1.070052  0  1.697686  0  0  0.873413  0  2.13897  0  0  0.932619  0  2.087731  0  0  0.770771  0.831359  0  2.173914  0
Cd  Cd1  1  0.63618237  0.47995249  0.76694068  1  0  1.070097  0  1.697627  0  0  0.873464  0  2.138886  0  0  0.932669  0  2.087648  0  0  0.770808  0.831415  0  2.173824  0
H  H2  1  0.90876157  0.79453094  0.77831288  1  0  0.383993  0  0.906669  0  0  0.35837  0  0.980605  0  0  0.369473  0  0.967516  0  0  0.292729  0.350498  0  0.98989  0
H  H3  1  0.09124481  0.20547508  0.22169463  1  0  0.383989  0  0.906617  0  0  0.358349  0  0.980588  0  0  0.369455  0  0.9675  0  0  0.292732  0.350478  0  0.989871  0
H  H4  1  0.02856414  0.00303019  0.28638262  1  0  0.378511  0  0.901391  0  0  0.354685  0  0.976579  0  0  0.364642  0  0.964269  0  0  0.295885  0.347603  0  0.985371  0
H  H5  1  0.97145907  0.99697157  0.71363572  1  0  0.378483  0  0.901314  0  0  0.354636  0  0.97656  0  0  0.364595  0  0.964249  0  0  0.295798  0.347547  0  0.985359  0
H  H6  1  0.59844559  0.12138737  0.23880310  1  0  0.101172  0  0.958577  0  0  0.109985  0  1.021695  0  0  0.11329  0  1.019938  0  0  0.103796  0.107503  0  1.023328  0
H  H7  1  0.40155369  0.87862834  0.76120686  1  0  0.101199  0  0.958875  0  0  0.110133  0  1.021838  0  0  0.11344  0  1.020075  0  0  0.103845  0.107655  0  1.023474  0
H  H8  1  0.34288564  0.11686609  0.86293521  1  0  0.092483  0  0.990085  0  0  0.098408  0  1.05946  0  0  0.100999  0  1.05947  0  0  0.097284  0.096466  0  1.059824  0
H  H9  1  0.65709580  0.88311126  0.13707224  1  0  0.09247  0  0.989841  0  0  0.098359  0  1.059286  0  0  0.100951  0  1.059295  0  0  0.097242  0.096414  0  1.059655  0
H  H10  1  0.92635987  0.34515424  0.26931731  1  0  0.091706  0  0.97059  0  0  0.098817  0  1.038713  0  0  0.102089  0  1.037372  0  0  0.098462  0.096423  0  1.039766  0
H  H11  1  0.07362609  0.65480073  0.73066650  1  0  0.091783  0  0.970538  0  0  0.098798  0  1.038764  0  0  0.102068  0  1.037426  0  0  0.098418  0.096406  0  1.03982  0
H  H12  1  0.24613475  0.64128953  0.61938547  1  0  0.111872  0  0.954539  0  0  0.118039  0  1.021681  0  0  0.121921  0  1.01887  0  0  0.105273  0.114895  0  1.024363  0
H  H13  1  0.75385914  0.35867131  0.38059735  1  0  0.11182  0  0.954624  0  0  0.117914  0  1.021847  0  0  0.121792  0  1.01904  0  0  0.105184  0.114787  0  1.024529  0
H  H14  1  0.65553444  0.53535478  0.21985672  1  0  0.079576  0  0.945575  0  0  0.089917  0  1.004928  0  0  0.092004  0  1.003397  0  0  0.11637  0.088457  0  1.005841  0
H  H15  1  0.34447959  0.46466406  0.78014190  1  0  0.079703  0  0.945543  0  0  0.089982  0  1.004917  0  0  0.092056  0  1.003397  0  0  0.116398  0.088526  0  1.005834  0
H  H16  1  0.88795584  0.70906868  0.29273298  1  0  0.114187  0  0.948858  0  0  0.123713  0  1.009674  0  0  0.126771  0  1.009269  0  0  0.111241  0.121662  0  1.00985  0
H  H17  1  0.11204474  0.29096231  0.70725498  1  0  0.11413  0  0.948882  0  0  0.123745  0  1.009627  0  0  0.126806  0  1.009217  0  0  0.111288  0.121693  0  1.009798  0
H  H18  1  0.71414649  0.06148760  0.45483839  1  0  0.121625  0  0.928347  0  0  0.132283  0  0.98585  0  0  0.136114  0  0.983853  0  0  0.115483  0.129427  0  0.987699  0
H  H19  1  0.28587197  0.93853730  0.54518195  1  0  0.121636  0  0.928191  0  0  0.132355  0  0.985631  0  0  0.13618  0  0.983644  0  0  0.115531  0.129496  0  0.987484  0
H  H20  1  0.48764351  0.87518245  0.37146706  1  0  0.081355  0  0.915898  0  0  0.095108  0  0.968252  0  0  0.097297  0  0.966992  0  0  0.122399  0.093277  0  0.969601  0
H  H21  1  0.51237000  0.12483608  0.62857140  1  0  0.08128  0  0.916096  0  0  0.095049  0  0.968421  0  0  0.097227  0  0.967173  0  0  0.122412  0.093198  0  0.969789  0
H  H22  1  0.94931993  0.11652787  0.43940822  1  0  0.046253  0  0.909096  0  0  0.058595  0  0.966632  0  0  0.058663  0  0.967325  0  0  0.107365  0.058254  0  0.96654  0
H  H23  1  0.05070305  0.88349316  0.56060005  1  0  0.046145  0  0.909086  0  0  0.058491  0  0.966792  0  0  0.058554  0  0.967493  0  0  0.107303  0.058146  0  0.9667  0
H  H24  1  0.35990566  0.71576264  0.05025529  1  0  0.074083  0  0.951874  0  0  0.081069  0  1.01892  0  0  0.082609  0  1.018576  0  0  0.112011  0.079916  0  1.01922  0
H  H25  1  0.64009397  0.28422571  0.94974186  1  0  0.074121  0  0.951844  0  0  0.081123  0  1.018878  0  0  0.082665  0  1.018529  0  0  0.111996  0.079963  0  1.019183  0
H  H26  1  0.22089120  0.87558251  0.94951423  1  0  0.10505  0  0.973821  0  0  0.112372  0  1.040646  0  0  0.114861  0  1.041236  0  0  0.104006  0.110412  0  1.04045  0
H  H27  1  0.77911788  0.12440281  0.05048356  1  0  0.105055  0  0.973789  0  0  0.112385  0  1.040604  0  0  0.114876  0  1.041192  0  0  0.104018  0.110422  0  1.040411  0
H  H28  1  0.90330476  0.72815241  0.08430276  1  0  0.12369  0  0.949678  0  0  0.130887  0  1.015199  0  0  0.134684  0  1.013276  0  0  0.111275  0.127885  0  1.017798  0
H  H29  1  0.09670454  0.27185684  0.91571061  1  0  0.12371  0  0.949789  0  0  0.130928  0  1.015287  0  0  0.134721  0  1.013372  0  0  0.111282  0.127924  0  1.017887  0
H  H30  1  0.05648123  0.57427472  0.18143488  1  0  0.073896  0  0.950115  0  0  0.08348  0  1.013077  0  0  0.085029  0  1.012335  0  0  0.114716  0.082434  0  1.013316  0
H  H31  1  0.94353499  0.42573668  0.81858766  1  0  0.07395  0  0.950021  0  0  0.083511  0  1.012991  0  0  0.085111  0  1.012178  0  0  0.11472  0.08244  0  1.013284  0
H  H32  1  0.86236070  0.88922970  0.96066575  1  0  0.05401  0  0.908268  0  0  0.063869  0  0.968631  0  0  0.064553  0  0.96836  0  0  0.108709  0.063392  0  0.968864  0
H  H33  1  0.13765573  0.11076861  0.03934923  1  0  0.053852  0  0.908319  0  0  0.063881  0  0.968551  0  0  0.064556  0  0.968258  0  0  0.108706  0.063397  0  0.968782  0
C  C34  1  0.43353544  0.27387391  0.11526468  1  0  0.612394  0  3.955571  0  0  0.567495  0  4.241145  0  0  0.601399  0  4.235663  0  0  0.185016  0.544754  0  4.243274  0
C  C35  1  0.56643961  0.72612938  0.88472678  1  0  0.612186  0  3.955604  0  0  0.567195  0  4.241198  0  0  0.601095  0  4.235722  0  0  0.184857  0.54446  0  4.243326  0
C  C36  1  0.46819339  0.13243192  0.05591607  1  0  -0.05395  0  3.760507  0  0  -0.03027  0  3.988873  0  0  -0.036604  0  4.010389  0  0  -0.01669  -0.02585  0  3.973789  0
C  C37  1  0.53177676  0.86755941  0.94406254  1  0  -0.053713  0  3.761131  0  0  -0.029786  0  3.989152  0  0  -0.036117  0  4.010672  0  0  -0.01651  -0.025376  0  3.974083  0
C  C38  1  0.55659145  0.06736778  0.13441110  1  0  -0.078715  0  3.735974  0  0  -0.100741  0  3.981649  0  0  -0.10198  0  4.002273  0  0  -0.084672  -0.099906  0  3.967596  0
C  C39  1  0.44339071  0.93263691  0.86557895  1  0  -0.078843  0  3.737081  0  0  -0.101055  0  3.982646  0  0  -0.102284  0  4.003244  0  0  -0.084736  -0.100222  0  3.968606  0
C  C40  1  0.41169401  0.06429260  0.92140796  1  0  -0.086829  0  3.760115  0  0  -0.108939  0  4.01103  0  0  -0.10954  0  4.030959  0  0  -0.09003  -0.108333  0  3.997512  0
C  C41  1  0.58828491  0.93568127  0.07856928  1  0  -0.087015  0  3.75974  0  0  -0.109163  0  4.010571  0  0  -0.109764  0  4.030496  0  0  -0.090038  -0.10856  0  3.997057  0
C  C42  1  0.19665840  0.49273674  0.37131690  1  0  0.628528  0  3.926282  0  0  0.580056  0  4.213583  0  0  0.614076  0  4.207619  0  0  0.194829  0.557178  0  4.216606  0
C  C43  1  0.80333330  0.50723277  0.62867017  1  0  0.628759  0  3.926296  0  0  0.580212  0  4.213632  0  0  0.614242  0  4.207657  0  0  0.194991  0.55734  0  4.216647  0
C  C44  1  0.09567911  0.49359146  0.43843719  1  0  -0.051344  0  3.765019  0  0  -0.029378  0  3.997166  0  0  -0.035633  0  4.019479  0  0  -0.015804  -0.025449  0  3.981713  0
C  C45  1  0.90428661  0.50637159  0.56151852  1  0  -0.051344  0  3.765302  0  0  -0.029185  0  3.997192  0  0  -0.03544  0  4.019503  0  0  -0.015832  -0.025258  0  3.981747  0
C  C46  1  0.95783947  0.41216237  0.37054979  1  0  -0.088134  0  3.749841  0  0  -0.109368  0  3.999114  0  0  -0.110499  0  4.019362  0  0  -0.088758  -0.108418  0  3.985135  0
C  C47  1  0.04213481  0.58780927  0.62942317  1  0  -0.08825  0  3.749917  0  0  -0.109467  0  3.999171  0  0  -0.110602  0  4.019425  0  0  -0.088668  -0.108518  0  3.985189  0
C  C48  1  0.13774982  0.58141676  0.56819224  1  0  -0.076602  0  3.733764  0  0  -0.099589  0  3.984174  0  0  -0.100742  0  4.004367  0  0  -0.083506  -0.098383  0  3.970236  0
C  C49  1  0.86222543  0.41855493  0.43178010  1  0  -0.076552  0  3.73417  0  0  -0.099532  0  3.984565  0  0  -0.100685  0  4.004758  0  0  -0.083377  -0.098357  0  3.970647  0
C  C50  1  0.67284419  0.65315124  0.27041300  1  0  0.140422  0  3.721857  0  0  0.108894  0  3.973018  0  0  0.116647  0  3.992007  0  0  0.048326  0.103821  0  3.959863  0
C  C51  1  0.32717040  0.34688085  0.72958904  1  0  0.14009  0  3.722229  0  0  0.108645  0  3.973419  0  0  0.11641  0  3.992395  0  0  0.048244  0.103564  0  3.960275  0
C  C52  1  0.80117656  0.74916427  0.31160831  1  0  -0.147999  0  3.703632  0  0  -0.167613  0  3.953969  0  0  -0.175139  0  3.974026  0  0  -0.080662  -0.162623  0  3.939824  0
C  C53  1  0.19883557  0.25087481  0.68838269  1  0  -0.147785  0  3.703556  0  0  -0.167609  0  3.953821  0  0  -0.175134  0  3.973877  0  0  -0.080699  -0.162618  0  3.939675  0
C  C54  1  0.81879522  0.89861455  0.37883393  1  0  0.093703  0  3.702908  0  0  0.103637  0  3.941099  0  0  0.108769  0  3.960818  0  0  0.01165  0.100786  0  3.927167  0
C  C55  1  0.18121040  0.10140610  0.62116834  1  0  0.093389  0  3.703003  0  0  0.103719  0  3.940972  0  0  0.10885  0  3.9607  0  0  0.011752  0.100866  0  3.927027  0
C  C56  1  0.70500492  0.94603371  0.40192488  1  0  -0.145231  0  3.699743  0  0  -0.166391  0  3.952974  0  0  -0.173364  0  3.972191  0  0  -0.075152  -0.161793  0  3.939898  0
C  C57  1  0.29501103  0.05399388  0.59807986  1  0  -0.145351  0  3.699608  0  0  -0.166641  0  3.95277  0  0  -0.173614  0  3.971983  0  0  -0.075316  -0.162042  0  3.939696  0
C  C58  1  0.57939862  0.84305893  0.35659826  1  0  0.130308  0  3.719289  0  0  0.098412  0  3.973091  0  0  0.105496  0  3.992829  0  0  0.049489  0.093928  0  3.959545  0
C  C59  1  0.42061903  0.15696273  0.64341847  1  0  0.130662  0  3.719234  0  0  0.098744  0  3.97308  0  0  0.105833  0  3.992815  0  0  0.049673  0.094276  0  3.959533  0
C  C60  1  0.96045929  0.00157862  0.43030348  1  0  0.160914  0  3.636148  0  0  0.134656  0  3.885756  0  0  0.139686  0  3.894375  0  0  0.006466  0.131053  0  3.879992  0
C  C61  1  0.03954965  0.99842961  0.56967561  1  0  0.161514  0  3.635515  0  0  0.134646  0  3.885649  0  0  0.139676  0  3.894271  0  0  0.006505  0.131072  0  3.879832  0
C  C62  1  0.25854126  0.72220233  0.05640869  1  0  0.115715  0  3.742854  0  0  0.088506  0  3.990259  0  0  0.094922  0  4.011191  0  0  0.039061  0.084033  0  3.975662  0
C  C63  1  0.74146274  0.27779582  0.94359891  1  0  0.11565  0  3.742964  0  0  0.088431  0  3.990363  0  0  0.094846  0  4.011294  0  0  0.039001  0.083961  0  3.975763  0
C  C64  1  0.18119888  0.81173243  0.00130781  1  0  -0.152669  0  3.712325  0  0  -0.171096  0  3.959729  0  0  -0.178781  0  3.981443  0  0  -0.083926  -0.16491  0  3.944112  0
C  C65  1  0.81881572  0.18827064  0.99869659  1  0  -0.15288  0  3.712463  0  0  -0.171273  0  3.959877  0  0  -0.17896  0  3.981592  0  0  -0.083969  -0.165085  0  3.94426  0
C  C66  1  0.05269710  0.81842231  0.01370675  1  0  0.100153  0  3.694423  0  0  0.109544  0  3.933561  0  0  0.114434  0  3.953775  0  0  0.011687  0.106378  0  3.919956  0
C  C67  1  0.94731353  0.18157506  0.98629789  1  0  0.100267  0  3.694458  0  0  0.109569  0  3.933782  0  0  0.114434  0  3.953966  0  0  0.011662  0.106396  0  3.920182  0
C  C68  1  0.00543801  0.73052264  0.07766975  1  0  -0.139095  0  3.67506  0  0  -0.160785  0  3.92974  0  0  -0.167753  0  3.948768  0  0  -0.076894  -0.158096  0  3.919421  0
C  C69  1  0.99457323  0.26947005  0.92234171  1  0  -0.13906  0  3.67542  0  0  -0.160712  0  3.930081  0  0  -0.167686  0  3.949132  0  0  -0.076932  -0.158015  0  3.919752  0
C  C70  1  0.08949804  0.64427918  0.13056496  1  0  0.139847  0  3.716108  0  0  0.108371  0  3.96924  0  0  0.116258  0  3.988194  0  0  0.046589  0.103087  0  3.957107  0
C  C71  1  0.91050615  0.35571763  0.86944931  1  0  0.139621  0  3.715949  0  0  0.108165  0  3.969158  0  0  0.116028  0  3.988107  0  0  0.046507  0.102883  0  3.957021  0
C  C72  1  0.96735049  0.91787495  0.95856333  1  0  0.161462  0  3.615614  0  0  0.133367  0  3.865615  0  0  0.138334  0  3.8737  0  0  0.006291  0.129766  0  3.860453  0
C  C73  1  0.03265772  0.08212321  0.04144789  1  0  0.161743  0  3.615497  0  0  0.133418  0  3.86573  0  0  0.138513  0  3.873661  0  0  0.006311  0.129813  0  3.860573  0
N  N74  1  0.56341863  0.69891909  0.29232739  1  0  -0.346825  0  3.280929  0  0  -0.266591  0  3.549645  0  0  -0.288097  0  3.568961  0  0  -0.335473  -0.251952  0  3.536312  0
N  N75  1  0.43658023  0.30109563  0.70767874  1  0  -0.346793  0  3.281114  0  0  -0.266564  0  3.549805  0  0  -0.288065  0  3.56911  0  0  -0.335562  -0.251924  0  3.536463  0
N  N76  1  0.21441210  0.64082087  0.12142511  1  0  -0.348184  0  3.291445  0  0  -0.268807  0  3.555951  0  0  -0.290064  0  3.575962  0  0  -0.335753  -0.253502  0  3.542312  0
N  N77  1  0.78558682  0.35918579  0.87858860  1  0  -0.347981  0  3.29123  0  0  -0.268607  0  3.555739  0  0  -0.289869  0  3.575764  0  0  -0.335605  -0.253307  0  3.542098  0
O  O78  1  0.34472173  0.32500787  0.04273331  1  0  -0.643222  0  1.92691  0  0  -0.586838  0  2.163692  0  0  -0.614097  0  2.154078  0  0  -0.341184  -0.567632  0  2.169363  0
O  O79  1  0.65525449  0.67499103  0.95725735  1  0  -0.643207  0  1.92685  0  0  -0.586771  0  2.163606  0  0  -0.614031  0  2.153997  0  0  -0.341118  -0.567564  0  2.169274  0
O  O80  1  0.49441843  0.33821609  0.23716951  1  0  -0.622481  0  1.936865  0  0  -0.561389  0  2.16593  0  0  -0.589237  0  2.15541  0  0  -0.332018  -0.541765  0  2.172353  0
O  O81  1  0.50557208  0.66177757  0.76282589  1  0  -0.622403  0  1.936745  0  0  -0.561314  0  2.165824  0  0  -0.589164  0  2.155316  0  0  -0.332052  -0.541689  0  2.172244  0
O  O82  1  0.29736533  0.60456475  0.41197974  1  0  -0.606743  0  1.909088  0  0  -0.546302  0  2.133083  0  0  -0.573842  0  2.122889  0  0  -0.327025  -0.527112  0  2.139264  0
O  O83  1  0.70262165  0.39540875  0.58801589  1  0  -0.606943  0  1.908808  0  0  -0.546515  0  2.132836  0  0  -0.574059  0  2.12264  0  0  -0.327262  -0.527319  0  2.138996  0
O  O84  1  0.17527615  0.38228007  0.27027881  1  0  -0.651961  0  2.004987  0  0  -0.584914  0  2.238365  0  0  -0.613551  0  2.22802  0  0  -0.32399  -0.564769  0  2.244542  0
O  O85  1  0.82472030  0.61770087  0.72970441  1  0  -0.652065  0  2.005267  0  0  -0.584999  0  2.238657  0  0  -0.613645  0  2.228309  0  0  -0.323952  -0.564859  0  2.244839  0
O  O86  1  0.95919823  0.90057667  0.82888952  1  0  -0.580762  0  2.049961  0  0  -0.530494  0  2.265415  0  0  -0.546574  0  2.252198  0  0  -0.394693  -0.518924  0  2.27491  0
O  O87  1  0.04079960  0.09942261  0.17111165  1  0  -0.580743  0  2.049956  0  0  -0.53045  0  2.265513  0  0  -0.546561  0  2.252255  0  0  -0.394624  -0.518879  0  2.275005  0
O  O88  1  0.04124022  0.95652592  0.35515137  1  0  -0.566196  0  2.066059  0  0  -0.526301  0  2.28499  0  0  -0.542027  0  2.275434  0  0  -0.400962  -0.515063  0  2.291832  0
O  O89  1  0.95876135  0.04349092  0.64486029  1  0  -0.566391  0  2.065246  0  0  -0.526347  0  2.284316  0  0  -0.542083  0  2.274768  0  0  -0.400924  -0.51511  0  2.291147  0
