# generated using pymatgen
data_CdH42C42(N2O3)2
_symmetry_space_group_name_H-M   'P 1'
_cell_length_a   6.75899941
_cell_length_b   7.74273632
_cell_length_c   16.86294036
_cell_angle_alpha   78.97378974
_cell_angle_beta   85.62319576
_cell_angle_gamma   87.49249057
_symmetry_Int_Tables_number   1
_chemical_formula_structural   CdH42C42(N2O3)2
_chemical_formula_sum   'Cd1 H42 C42 N4 O6'
_cell_volume   863.29045093
_cell_formula_units_Z   1
loop_
 _symmetry_equiv_pos_site_id
 _symmetry_equiv_pos_as_xyz
  1  'x, y, z'
loop_
 _atom_site_type_symbol
 _atom_site_label
 _atom_site_symmetry_multiplicity
 _atom_site_fract_x
 _atom_site_fract_y
 _atom_site_fract_z
 _atom_site_occupancy
 _atom_site_hle17_bader_spin_density
 _atom_site_hle17_ddec_charge
 _atom_site_hle17_ddec_spin_density
 _atom_site_hle17_ddec_sum_bond_order
 _atom_site_hle17_magmom
 _atom_site_hse06_10hf_bader_spin_density
 _atom_site_hse06_10hf_ddec_charge
 _atom_site_hse06_10hf_ddec_spin_density
 _atom_site_hse06_10hf_ddec_sum_bond_order
 _atom_site_hse06_10hf_magmom
 _atom_site_hse06_bader_spin_density
 _atom_site_hse06_ddec_charge
 _atom_site_hse06_ddec_spin_density
 _atom_site_hse06_ddec_sum_bond_order
 _atom_site_hse06_magmom
 _atom_site_pbe_bader_spin_density
 _atom_site_pbe_cm5_charge
 _atom_site_pbe_ddec_charge
 _atom_site_pbe_ddec_spin_density
 _atom_site_pbe_ddec_sum_bond_order
 _atom_site_pbe_magmom
Cd  Cd0  1  0.49999810  0.50000572  0.49999825  1  0  1.106731  0  1.732831  0  0  0.919741  0  2.177099  0  0  0.975103  0  2.126462  0  0  0.776172  0.88064  0  2.211451  0
H  H1  1  0.01377716  0.57847083  0.33158566  1  0  0.087943  0  0.980884  0  0  0.094492  0  1.051003  0  0  0.097006  0  1.050067  0  0  0.095976  0.09267  0  1.051756  0
H  H2  1  0.98622146  0.42151822  0.66841685  1  0  0.087978  0  0.980823  0  0  0.094483  0  1.051013  0  0  0.096997  0  1.050076  0  0  0.095991  0.092663  0  1.051764  0
H  H3  1  0.32313386  0.58957357  0.23974082  1  0  0.087597  0  0.959604  0  0  0.098617  0  1.020143  0  0  0.10142  0  1.019888  0  0  0.094274  0.096648  0  1.020437  0
H  H4  1  0.67686306  0.41042074  0.76026070  1  0  0.087583  0  0.959529  0  0  0.098605  0  1.02007  0  0  0.101409  0  1.019812  0  0  0.094261  0.096635  0  1.020362  0
H  H5  1  0.34692885  0.40964506  0.13071058  1  0  0.083035  0  0.953676  0  0  0.097047  0  1.011679  0  0  0.099594  0  1.009775  0  0  0.09844  0.095127  0  1.013165  0
H  H6  1  0.65306356  0.59035054  0.86928978  1  0  0.083051  0  0.953619  0  0  0.097038  0  1.011666  0  0  0.099591  0  1.009753  0  0  0.098465  0.09512  0  1.013153  0
H  H7  1  0.06798463  0.22780502  0.11388431  1  0  0.096639  0  1.002887  0  0  0.106984  0  1.067334  0  0  0.109874  0  1.067173  0  0  0.100007  0.104966  0  1.067524  0
H  H8  1  0.93201229  0.77218928  0.88611721  1  0  0.096669  0  1.002899  0  0  0.106993  0  1.067346  0  0  0.10986  0  1.06723  0  0  0.100026  0.104972  0  1.067541  0
H  H9  1  0.74352131  0.73420583  0.00699940  1  0  0.085452  0  0.962905  0  0  0.101829  0  1.019464  0  0  0.103985  0  1.019154  0  0  0.097137  0.100318  0  1.019736  0
H  H10  1  0.25648158  0.26578721  0.99299966  1  0  0.085471  0  0.962818  0  0  0.101893  0  1.01933  0  0  0.104031  0  1.019046  0  0  0.097145  0.100379  0  1.019606  0
H  H11  1  0.73562677  0.62992309  0.15618277  1  0  0.08069  0  0.982478  0  0  0.091036  0  1.045069  0  0  0.092562  0  1.045748  0  0  0.093593  0.089938  0  1.044634  0
H  H12  1  0.26438370  0.37006604  0.84381640  1  0  0.080788  0  0.982451  0  0  0.091147  0  1.04501  0  0  0.092674  0  1.045687  0  0  0.093626  0.090049  0  1.044569  0
H  H13  1  0.73513157  0.84596524  0.24734554  1  0  0.09908  0  0.963317  0  0  0.109431  0  1.028616  0  0  0.11227  0  1.027485  0  0  0.097732  0.107414  0  1.029491  0
H  H14  1  0.26487006  0.15402252  0.75265462  1  0  0.099031  0  0.963291  0  0  0.109389  0  1.028594  0  0  0.112229  0  1.027462  0  0  0.097711  0.10737  0  1.029468  0
H  H15  1  0.70458058  0.40569784  0.07766934  1  0  0.102319  0  0.982378  0  0  0.118907  0  1.051595  0  0  0.12034  0  1.051286  0  0  0.087831  0.117823  0  1.051849  0
H  H16  1  0.29542524  0.59429652  0.92233130  1  0  0.102286  0  0.982497  0  0  0.11891  0  1.051655  0  0  0.120342  0  1.051347  0  0  0.087855  0.117828  0  1.051909  0
H  H17  1  0.60928416  0.35810972  0.98894589  1  0  0.096038  0  0.970392  0  0  0.11756  0  1.036565  0  0  0.118152  0  1.037018  0  0  0.087914  0.117098  0  1.036244  0
H  H18  1  0.39072167  0.64188464  0.01105534  1  0  0.095967  0  0.970387  0  0  0.117493  0  1.036561  0  0  0.118088  0  1.037007  0  0  0.087883  0.117036  0  1.036238  0
H  H19  1  0.86746422  0.36959801  0.99412609  1  0  0.107842  0  0.948954  0  0  0.130933  0  1.011573  0  0  0.131416  0  1.01277  0  0  0.091382  0.130523  0  1.010778  0
H  H20  1  0.13253869  0.63039502  0.00587535  1  0  0.10777  0  0.948957  0  0  0.130873  0  1.011574  0  0  0.131339  0  1.012789  0  0  0.091387  0.130469  0  1.010775  0
H  H21  1  0.90108779  0.09974163  0.89808380  1  0  0.10476  0  0.989038  0  0  0.123963  0  1.056566  0  0  0.123617  0  1.060052  0  0  0.085823  0.124104  0  1.054298  0
H  H22  1  0.09891062  0.90025269  0.10191827  1  0  0.104726  0  0.988964  0  0  0.123931  0  1.056521  0  0  0.123584  0  1.06001  0  0  0.08583  0.124071  0  1.054257  0
H  H23  1  0.65795643  0.18930655  0.90602864  1  0  0.098425  0  0.990227  0  0  0.120279  0  1.052749  0  0  0.120659  0  1.054398  0  0  0.084822  0.119941  0  1.051663  0
H  H24  1  0.34204484  0.81069041  0.09397369  1  0  0.098408  0  0.990244  0  0  0.120277  0  1.052763  0  0  0.120654  0  1.054415  0  0  0.084845  0.119937  0  1.051676  0
H  H25  1  0.69335634  0.96837027  0.89406810  1  0  0.098349  0  0.96907  0  0  0.118086  0  1.034457  0  0  0.118985  0  1.034971  0  0  0.08458  0.11735  0  1.03424  0
H  H26  1  0.30664343  0.03162669  0.10593192  1  0  0.098327  0  0.969072  0  0  0.11806  0  1.034477  0  0  0.11896  0  1.034992  0  0  0.084573  0.117327  0  1.03425  0
H  H27  1  0.74826480  0.97440450  0.52195447  1  0  0.04585  0  0.976954  0  0  0.060599  0  1.044393  0  0  0.058711  0  1.047653  0  0  0.098352  0.061933  0  1.042185  0
H  H28  1  0.25173874  0.02560959  0.47804631  1  0  0.045965  0  0.976909  0  0  0.060675  0  1.044383  0  0  0.058792  0  1.047633  0  0  0.098383  0.06201  0  1.042172  0
H  H29  1  0.62789275  0.90868378  0.44354773  1  0  0.048869  0  0.937286  0  0  0.061007  0  1.008074  0  0  0.06127  0  1.007066  0  0  0.096117  0.060708  0  1.008944  0
H  H30  1  0.37211017  0.09134481  0.55644884  1  0  0.048872  0  0.937417  0  0  0.061027  0  1.008159  0  0  0.061291  0  1.007152  0  0  0.096156  0.060726  0  1.009029  0
H  H31  1  0.87747056  0.04861341  0.33930821  1  0  0.09882  0  0.985738  0  0  0.104234  0  1.056797  0  0  0.107001  0  1.055517  0  0  0.106423  0.102157  0  1.057776  0
H  H32  1  0.12253143  0.95140200  0.66069072  1  0  0.098859  0  0.985638  0  0  0.104266  0  1.056714  0  0  0.10702  0  1.055447  0  0  0.106428  0.102223  0  1.057658  0
H  H33  1  0.21248490  0.01414732  0.26843306  1  0  0.11075  0  0.943864  0  0  0.123886  0  0.995651  0  0  0.126405  0  0.996226  0  0  0.11117  0.122068  0  0.9954  0
H  H34  1  0.78751421  0.98586544  0.73156441  1  0  0.110812  0  0.9438  0  0  0.123935  0  0.995608  0  0  0.126455  0  0.996184  0  0  0.111206  0.122121  0  0.995355  0
H  H35  1  0.45615130  0.78840973  0.33713507  1  0  0.078549  0  0.956089  0  0  0.085787  0  1.024891  0  0  0.088435  0  1.022399  0  0  0.113807  0.083814  0  1.026783  0
H  H36  1  0.54384638  0.21160171  0.66286257  1  0  0.078552  0  0.956096  0  0  0.085783  0  1.024911  0  0  0.088429  0  1.02242  0  0  0.113793  0.083811  0  1.026793  0
H  H37  1  0.05538729  0.64273732  0.53491312  1  0  0.092425  0  0.95446  0  0  0.096926  0  1.025425  0  0  0.099442  0  1.023526  0  0  0.117189  0.095125  0  1.026803  0
H  H38  1  0.94461322  0.35727808  0.46508646  1  0  0.092622  0  0.954426  0  0  0.097103  0  1.025401  0  0  0.099621  0  1.023495  0  0  0.117274  0.095305  0  1.026773  0
H  H39  1  0.62761618  0.17342964  0.25378177  1  0  0.28583  0  0.944439  0  0  0.270563  0  1.005365  0  0  0.278542  0  0.998875  0  0  0.29908  0.264876  0  1.010051  0
H  H40  1  0.37237793  0.82656071  0.74621899  1  0  0.285695  0  0.944643  0  0  0.270507  0  1.005475  0  0  0.278484  0  0.998987  0  0  0.299063  0.264837  0  1.010142  0
H  H41  1  0.59374895  0.73052889  0.58841835  1  0  0.372542  0  0.933216  0  0  0.343353  0  1.008839  0  0  0.355807  0  0.995507  0  0  0.285226  0.334566  0  1.018184  0
H  H42  1  0.40623817  0.26948646  0.41157692  1  0  0.372564  0  0.933236  0  0  0.343425  0  1.008768  0  0  0.355895  0  0.995411  0  0  0.285263  0.334638  0  1.018111  0
C  C43  1  0.69535813  0.39330894  0.33638223  1  0  0.656694  0  3.898169  0  0  0.603187  0  4.196453  0  0  0.639205  0  4.187427  0  0  0.203166  0.578764  0  4.201789  0
C  C44  1  0.30463559  0.60669063  0.66361597  1  0  0.656659  0  3.898084  0  0  0.6032  0  4.196312  0  0  0.639217  0  4.187289  0  0  0.203212  0.578766  0  4.201652  0
C  C45  1  0.86884784  0.39792011  0.27596778  1  0  -0.213712  0  3.745799  0  0  -0.190381  0  3.984122  0  0  -0.204232  0  4.005624  0  0  -0.040789  -0.181398  0  3.969648  0
C  C46  1  0.13114931  0.60206893  0.72403597  1  0  -0.213919  0  3.745984  0  0  -0.1906  0  3.984327  0  0  -0.204454  0  4.005827  0  0  -0.04087  -0.18161  0  3.969849  0
C  C47  1  0.02865346  0.50280733  0.28316455  1  0  -0.040504  0  3.766116  0  0  -0.065957  0  4.018717  0  0  -0.06081  0  4.03688  0  0  -0.088844  -0.069024  0  4.006273  0
C  C48  1  0.97134226  0.49718039  0.71683817  1  0  -0.040506  0  3.766132  0  0  -0.065939  0  4.018736  0  0  -0.060797  0  4.036917  0  0  -0.088917  -0.069001  0  4.006283  0
C  C49  1  0.20022099  0.50928982  0.23201279  1  0  -0.107868  0  3.790193  0  0  -0.124484  0  4.049751  0  0  -0.130513  0  4.070605  0  0  -0.113575  -0.120683  0  4.035641  0
C  C50  1  0.79978351  0.49070059  0.76798823  1  0  -0.107921  0  3.790314  0  0  -0.124543  0  4.049872  0  0  -0.130573  0  4.070726  0  0  -0.113569  -0.120741  0  4.035754  0
C  C51  1  0.21257710  0.40904540  0.17089897  1  0  -0.026538  0  3.787684  0  0  -0.043763  0  4.041733  0  0  -0.038667  0  4.058372  0  0  -0.088119  -0.046779  0  4.030273  0
C  C52  1  0.78742300  0.59094367  0.82910171  1  0  -0.026465  0  3.787386  0  0  -0.043667  0  4.041383  0  0  -0.038571  0  4.058014  0  0  -0.08807  -0.046684  0  4.029925  0
C  C53  1  0.05630908  0.30616904  0.16112863  1  0  -0.212536  0  3.757769  0  0  -0.227962  0  4.010711  0  0  -0.236166  0  4.030306  0  0  -0.114746  -0.222562  0  3.997406  0
C  C54  1  0.94369405  0.69381871  0.83887444  1  0  -0.212603  0  3.757802  0  0  -0.227978  0  4.010716  0  0  -0.236176  0  4.030319  0  0  -0.114803  -0.222574  0  3.997412  0
C  C55  1  0.88165546  0.29662197  0.21317799  1  0  0.251625  0  3.807034  0  0  0.236506  0  4.055644  0  0  0.249801  0  4.074382  0  0  0.105512  0.227688  0  4.042651  0
C  C56  1  0.11834460  0.70336840  0.78682496  1  0  0.251797  0  3.807141  0  0  0.236641  0  4.055787  0  0  0.24994  0  4.074519  0  0  0.105606  0.227823  0  4.042794  0
C  C57  1  0.73403375  0.07256638  0.14990839  1  0  0.175807  0  3.791513  0  0  0.169832  0  4.037499  0  0  0.176066  0  4.059972  0  0  0.084886  0.165574  0  4.022175  0
C  C58  1  0.26596932  0.92742270  0.85009339  1  0  0.175679  0  3.791874  0  0  0.169692  0  4.037875  0  0  0.175928  0  4.06035  0  0  0.084904  0.165426  0  4.022564  0
C  C59  1  0.73721400  0.13351156  0.06531696  1  0  0.004481  0  3.667808  0  0  0.026345  0  3.895895  0  0  0.023563  0  3.919398  0  0  -0.010978  0.028106  0  3.880135  0
C  C60  1  0.26278902  0.86647883  0.93468411  1  0  0.004447  0  3.667876  0  0  0.026283  0  3.896004  0  0  0.023504  0  3.919491  0  0  -0.011069  0.028035  0  3.880266  0
C  C61  1  0.74241184  0.00951009  0.01354545  1  0  0.108864  0  3.718505  0  0  0.133927  0  3.946442  0  0  0.135058  0  3.970817  0  0  -0.005361  0.133117  0  3.930213  0
C  C62  1  0.25759106  0.99048294  0.98645480  1  0  0.108885  0  3.718349  0  0  0.133982  0  3.946252  0  0  0.135117  0  3.970621  0  0  -0.005331  0.133174  0  3.930022  0
C  C63  1  0.74082161  0.82948870  0.04716036  1  0  -0.140252  0  3.757706  0  0  -0.162143  0  4.005906  0  0  -0.165499  0  4.026364  0  0  -0.099751  -0.159968  0  3.992344  0
C  C64  1  0.25918431  0.17050304  0.95283932  1  0  -0.140242  0  3.757861  0  0  -0.16219  0  4.006072  0  0  -0.165537  0  4.026536  0  0  -0.099765  -0.160013  0  3.992501  0
C  C65  1  0.73428886  0.77032041  0.13068671  1  0  -0.059161  0  3.825943  0  0  -0.073655  0  4.08206  0  0  -0.073506  0  4.102695  0  0  -0.099264  -0.073597  0  4.068059  0
C  C66  1  0.26572014  0.22966871  0.86931428  1  0  -0.059412  0  3.82597  0  0  -0.073906  0  4.082095  0  0  -0.073759  0  4.102731  0  0  -0.099327  -0.073844  0  4.068082  0
C  C67  1  0.73201188  0.89146634  0.18210350  1  0  -0.17436  0  3.76372  0  0  -0.197357  0  4.02042  0  0  -0.201794  0  4.040851  0  0  -0.104347  -0.194321  0  4.006535  0
C  C68  1  0.26799282  0.10851881  0.81789679  1  0  -0.174152  0  3.763637  0  0  -0.197152  0  4.020315  0  0  -0.201588  0  4.040742  0  0  -0.104293  -0.194114  0  4.006422  0
C  C69  1  0.72956473  0.32697000  0.03019709  1  0  -0.322696  0  3.747616  0  0  -0.407912  0  3.990619  0  0  -0.40888  0  4.000522  0  0  -0.243782  -0.406878  0  3.983736  0
C  C70  1  0.27043966  0.67302304  0.96980371  1  0  -0.322569  0  3.747648  0  0  -0.407811  0  3.990654  0  0  -0.408761  0  4.000566  0  0  -0.243778  -0.406781  0  3.983769  0
C  C71  1  0.74904668  0.06953017  0.92334660  1  0  -0.340483  0  3.738495  0  0  -0.422823  0  3.971978  0  0  -0.425181  0  3.983234  0  0  -0.248763  -0.420854  0  3.964315  0
C  C72  1  0.25095772  0.93046287  0.07665479  1  0  -0.340391  0  3.738281  0  0  -0.422745  0  3.971748  0  0  -0.425101  0  3.983006  0  0  -0.248787  -0.420775  0  3.964082  0
C  C73  1  0.74171882  0.86770628  0.48749925  1  0  0.11406  0  3.680744  0  0  0.049931  0  3.941398  0  0  0.059168  0  3.947639  0  0  -0.071264  0.043753  0  3.936997  0
C  C74  1  0.25827856  0.13231305  0.51249949  1  0  0.113995  0  3.680805  0  0  0.049913  0  3.941541  0  0  0.059152  0  3.947775  0  0  -0.071288  0.043734  0  3.937138  0
C  C75  1  0.93985542  0.84783578  0.44259258  1  0  0.019016  0  3.72084  0  0  0.045419  0  3.956824  0  0  0.040727  0  3.979808  0  0  -0.003457  0.048219  0  3.941447  0
C  C76  1  0.06014497  0.15218226  0.55740499  1  0  0.018945  0  3.720913  0  0  0.045118  0  3.957131  0  0  0.040425  0  3.980112  0  0  -0.003574  0.047918  0  3.941767  0
C  C77  1  0.98694660  0.95293436  0.36696827  1  0  -0.05307  0  3.676658  0  0  -0.079608  0  3.922225  0  0  -0.077982  0  3.941178  0  0  -0.063242  -0.080282  0  3.909394  0
C  C78  1  0.01305397  0.04707972  0.63303142  1  0  -0.053132  0  3.676325  0  0  -0.079585  0  3.921927  0  0  -0.077948  0  3.940888  0  0  -0.063284  -0.080282  0  3.909079  0
C  C79  1  0.17351112  0.93436747  0.32769098  1  0  -0.094372  0  3.709814  0  0  -0.102246  0  3.953458  0  0  -0.10788  0  3.974158  0  0  -0.075538  -0.098724  0  3.939627  0
C  C80  1  0.82648641  0.06564792  0.67230751  1  0  -0.094447  0  3.709857  0  0  -0.102317  0  3.953479  0  0  -0.107952  0  3.974173  0  0  -0.075545  -0.098802  0  3.939664  0
C  C81  1  0.30929718  0.81104725  0.36548519  1  0  0.105587  0  3.724031  0  0  0.072736  0  3.981099  0  0  0.079123  0  3.998616  0  0  0.041378  0.068567  0  3.96932  0
C  C82  1  0.69070491  0.18896553  0.63451338  1  0  0.105578  0  3.724284  0  0  0.072748  0  3.981355  0  0  0.079135  0  3.998873  0  0  0.041371  0.068582  0  3.969563  0
C  C83  1  0.08514531  0.72776887  0.47615542  1  0  0.083197  0  3.661313  0  0  0.045329  0  3.912858  0  0  0.051392  0  3.9305  0  0  0.04471  0.041005  0  3.90166  0
C  C84  1  0.91485816  0.27224654  0.52384347  1  0  0.082985  0  3.661241  0  0  0.04521  0  3.912844  0  0  0.051276  0  3.930483  0  0  0.04463  0.040877  0  3.901646  0
N  N85  1  0.72796527  0.19193630  0.20431039  1  0  -0.448006  0  3.392724  0  0  -0.391851  0  3.632167  0  0  -0.41315  0  3.644998  0  0  -0.428958  -0.376856  0  3.622812  0
N  N86  1  0.27203489  0.80805144  0.79569218  1  0  -0.447828  0  3.39288  0  0  -0.391713  0  3.632276  0  0  -0.413007  0  3.645102  0  0  -0.428908  -0.37673  0  3.622903  0
N  N87  1  0.26606815  0.71053009  0.43871381  1  0  -0.336906  0  3.271849  0  0  -0.261076  0  3.54181  0  0  -0.279932  0  3.560329  0  0  -0.331001  -0.248115  0  3.528939  0
N  N88  1  0.73393080  0.28948662  0.56128393  1  0  -0.336776  0  3.271725  0  0  -0.260978  0  3.541698  0  0  -0.279834  0  3.560218  0  0  -0.330899  -0.248011  0  3.528817  0
O  O89  1  0.57743511  0.26381603  0.34608500  1  0  -0.630243  0  1.991784  0  0  -0.572448  0  2.213352  0  0  -0.596887  0  2.203066  0  0  -0.318916  -0.555435  0  2.220046  0
O  O90  1  0.42255713  0.73618353  0.65391503  1  0  -0.630155  0  1.991677  0  0  -0.572392  0  2.213258  0  0  -0.596822  0  2.202973  0  0  -0.318901  -0.555381  0  2.219964  0
O  O91  1  0.67603615  0.51795024  0.37672903  1  0  -0.656824  0  2.005439  0  0  -0.589413  0  2.261607  0  0  -0.61781  0  2.250113  0  0  -0.339297  -0.569478  0  2.268612  0
O  O92  1  0.32395293  0.48205327  0.62326542  1  0  -0.656816  0  2.005373  0  0  -0.589388  0  2.261443  0  0  -0.617781  0  2.24995  0  0  -0.339354  -0.56947  0  2.268499  0
O  O93  1  0.69358654  0.70832639  0.54191775  1  0  -0.576959  0  2.171102  0  0  -0.505507  0  2.417994  0  0  -0.52825  0  2.406201  0  0  -0.404613  -0.48931  0  2.42565  0
O  O94  1  0.30640048  0.29169159  0.45807848  1  0  -0.577006  0  2.170957  0  0  -0.505578  0  2.417753  0  0  -0.528335  0  2.40593  0  0  -0.40465  -0.489383  0  2.425415  0
