# generated using pymatgen
data_CdH9C19BrN2O5
_symmetry_space_group_name_H-M   'P 1'
_cell_length_a   7.93269441
_cell_length_b   14.23444549
_cell_length_c   16.51500000
_cell_angle_alpha   113.88413893
_cell_angle_beta   90.00000000
_cell_angle_gamma   90.00000000
_symmetry_Int_Tables_number   1
_chemical_formula_structural   CdH9C19BrN2O5
_chemical_formula_sum   'Cd4 H36 C76 Br4 N8 O20'
_cell_volume   1705.13967784
_cell_formula_units_Z   4
loop_
 _symmetry_equiv_pos_site_id
 _symmetry_equiv_pos_as_xyz
  1  'x, y, z'
loop_
 _atom_site_type_symbol
 _atom_site_label
 _atom_site_symmetry_multiplicity
 _atom_site_fract_x
 _atom_site_fract_y
 _atom_site_fract_z
 _atom_site_occupancy
 _atom_site_hle17_bader_spin_density
 _atom_site_hle17_ddec_charge
 _atom_site_hle17_ddec_spin_density
 _atom_site_hle17_ddec_sum_bond_order
 _atom_site_hle17_magmom
 _atom_site_hse06_10hf_bader_spin_density
 _atom_site_hse06_10hf_ddec_charge
 _atom_site_hse06_10hf_ddec_spin_density
 _atom_site_hse06_10hf_ddec_sum_bond_order
 _atom_site_hse06_10hf_magmom
 _atom_site_hse06_bader_spin_density
 _atom_site_hse06_ddec_charge
 _atom_site_hse06_ddec_spin_density
 _atom_site_hse06_ddec_sum_bond_order
 _atom_site_hse06_magmom
 _atom_site_pbe_bader_charge
 _atom_site_pbe_bader_spin_density
 _atom_site_pbe_cm5_charge
 _atom_site_pbe_ddec_charge
 _atom_site_pbe_ddec_spin_density
 _atom_site_pbe_ddec_sum_bond_order
 _atom_site_pbe_magmom
Cd  Cd0  1  0.49692069  0.34167278  0.39635993  1  0  1.117941  0  1.687693  0  0  0.915383  0  2.145376  0  0  0.977053  0  2.091044  0  1.268107  0  0.754919  0.871309  0  2.182584  0
Cd  Cd1  1  0.99691852  0.65832768  0.10364102  1  0  1.117928  0  1.687732  0  0  0.915366  0  2.145417  0  0  0.977036  0  2.091085  0  1.26811  0  0.754913  0.871292  0  2.182627  0
Cd  Cd2  1  0.50308127  0.65832845  0.60364128  1  0  1.117923  0  1.68772  0  0  0.915358  0  2.145404  0  0  0.977027  0  2.091072  0  1.268085  0  0.754902  0.871284  0  2.182615  0
Cd  Cd3  1  0.00308092  0.34167201  0.89635966  1  0  1.117936  0  1.687729  0  0  0.915381  0  2.145409  0  0  0.97705  0  2.091076  0  1.268053  0  0.75491  0.871308  0  2.182619  0
H  H4  1  0.05861312  0.64262255  0.59044124  1  0  0.123986  0  0.928694  0  0  0.134803  0  0.987571  0  0  0.138641  0  0.984794  0  0.105907  0  0.111256  0.132017  0  0.989572  0
H  H5  1  0.55861348  0.35737714  0.90955823  1  0  0.123951  0  0.928748  0  0  0.134797  0  0.987585  0  0  0.138638  0  0.984808  0  0.105906  0  0.111263  0.132011  0  0.989588  0
H  H6  1  0.94138506  0.35737791  0.40955850  1  0  0.123926  0  0.928742  0  0  0.134769  0  0.987588  0  0  0.138611  0  0.984808  0  0.106004  0  0.111238  0.131978  0  0.9896  0
H  H7  1  0.44138219  0.64262255  0.09044063  1  0  0.123945  0  0.928752  0  0  0.134789  0  0.987593  0  0  0.138628  0  0.984817  0  0.106  0  0.111254  0.132002  0  0.989595  0
H  H8  1  0.86263502  0.82025085  0.45180584  1  0  0.116519  0  0.945539  0  0  0.122709  0  1.014362  0  0  0.127177  0  1.010261  0  0.110066  0  0.10528  0.119482  0  1.017341  0
H  H9  1  0.36262963  0.17975115  0.04819504  1  0  0.116501  0  0.945504  0  0  0.122684  0  1.014345  0  0  0.127152  0  1.010242  0  0.11002  0  0.105274  0.119457  0  1.017321  0
H  H10  1  0.13737073  0.17975576  0.54819847  1  0  0.116521  0  0.945547  0  0  0.122715  0  1.014361  0  0  0.127181  0  1.010256  0  0.109255  0  0.105286  0.11949  0  1.017336  0
H  H11  1  0.63736856  0.82024700  0.95180328  1  0  0.116538  0  0.945486  0  0  0.12273  0  1.014311  0  0  0.127197  0  1.010209  0  0.110086  0  0.105293  0.119502  0  1.017289  0
H  H12  1  0.19246676  0.56434815  0.31785911  1  0  0.113191  0  0.946506  0  0  0.121766  0  1.011024  0  0  0.125851  0  1.007568  0  0.11729  0  0.109011  0.118841  0  1.013488  0
H  H13  1  0.69246333  0.43565154  0.18213975  1  0  0.113129  0  0.946582  0  0  0.121709  0  1.011106  0  0  0.125794  0  1.007649  0  0.11731  0  0.108987  0.11878  0  1.013579  0
H  H14  1  0.80753520  0.43565384  0.68214116  1  0  0.113185  0  0.946555  0  0  0.121761  0  1.011068  0  0  0.125846  0  1.007613  0  0.117265  0  0.109013  0.118832  0  1.013543  0
H  H15  1  0.30753359  0.56434738  0.81785824  1  0  0.113181  0  0.946526  0  0  0.121744  0  1.011061  0  0  0.125829  0  1.007606  0  0.117268  0  0.108999  0.118816  0  1.013534  0
H  H16  1  0.34821586  0.44565730  0.62995003  1  0  0.108334  0  0.928538  0  0  0.11577  0  0.989283  0  0  0.11904  0  0.986262  0  0.137646  0  0.1239  0.113312  0  0.99158  0
H  H17  1  0.84821621  0.55434315  0.87005031  1  0  0.108359  0  0.928493  0  0  0.115789  0  0.989235  0  0  0.119059  0  0.986215  0  0.13766  0  0.12389  0.113331  0  0.991533  0
H  H18  1  0.65178737  0.55434238  0.37005064  1  0  0.108337  0  0.928502  0  0  0.115775  0  0.989238  0  0  0.119036  0  0.986241  0  0.137629  0  0.123893  0.113318  0  0.991536  0
H  H19  1  0.15178323  0.44565730  0.12994882  1  0  0.108376  0  0.928477  0  0  0.115812  0  0.989211  0  0  0.119072  0  0.986217  0  0.137788  0  0.123912  0.113354  0  0.991509  0
H  H20  1  0.36234599  0.38227439  0.75155229  1  0  0.126464  0  0.961771  0  0  0.132165  0  1.023542  0  0  0.13638  0  1.021749  0  0.182054  0  0.111176  0.129083  0  1.025092  0
H  H21  1  0.86235012  0.61772530  0.74844778  1  0  0.126478  0  0.961836  0  0  0.132199  0  1.023573  0  0  0.136414  0  1.021778  0  0.182071  0  0.111203  0.129116  0  1.025122  0
H  H22  1  0.63765598  0.61772530  0.24844778  1  0  0.126484  0  0.961757  0  0  0.132176  0  1.023528  0  0  0.136392  0  1.021734  0  0.182049  0  0.111192  0.129094  0  1.025078  0
H  H23  1  0.13765310  0.38227362  0.25155081  1  0  0.12648  0  0.961807  0  0  0.132173  0  1.023583  0  0  0.136388  0  1.021789  0  0.18208  0  0.111182  0.129091  0  1.025133  0
H  H24  1  0.50207405  0.21471486  0.72405205  1  0  0.096183  0  0.950058  0  0  0.101407  0  1.021048  0  0  0.104852  0  1.017597  0  0.117996  0  0.10583  0.098872  0  1.023566  0
H  H25  1  0.00206991  0.78528560  0.77594889  1  0  0.0962  0  0.950118  0  0  0.101416  0  1.021111  0  0  0.104861  0  1.01766  0  0.118039  0  0.105852  0.098881  0  1.023628  0
H  H26  1  0.49793044  0.78528560  0.27594829  1  0  0.096189  0  0.95008  0  0  0.101408  0  1.021066  0  0  0.104851  0  1.017616  0  0.118009  0  0.105835  0.098873  0  1.023582  0
H  H27  1  0.99793079  0.21471256  0.22404943  1  0  0.09618  0  0.950079  0  0  0.101399  0  1.021076  0  0  0.104844  0  1.017622  0  0.117915  0  0.105817  0.098863  0  1.023594  0
H  H28  1  0.84848724  0.93926438  0.38275638  1  0  0.126939  0  0.948031  0  0  0.135128  0  1.00882  0  0  0.139579  0  1.004195  0  0.176578  0  0.114091  0.131787  0  1.012235  0
H  H29  1  0.34848941  0.06073454  0.11724524  1  0  0.126936  0  0.948077  0  0  0.13512  0  1.008861  0  0  0.139571  0  1.004237  0  0.176612  0  0.114085  0.131777  0  1.012275  0
H  H30  1  0.15151094  0.06073377  0.61724195  1  0  0.126947  0  0.948051  0  0  0.135147  0  1.008828  0  0  0.139563  0  1.004246  0  0.176588  0  0.1141  0.131806  0  1.012244  0
H  H31  1  0.65151129  0.93926515  0.88275483  1  0  0.127006  0  0.947984  0  0  0.135145  0  1.008824  0  0  0.139596  0  1.004198  0  0.176594  0  0.114101  0.131804  0  1.012239  0
H  H32  1  0.86958978  0.97646620  0.24800177  1  0  0.113034  0  0.95147  0  0  0.123079  0  1.009625  0  0  0.126201  0  1.008984  0  0.100164  0  0.103976  0.120833  0  1.010301  0
H  H33  1  0.36958817  0.02353119  0.25199932  1  0  0.113061  0  0.951479  0  0  0.123108  0  1.009614  0  0  0.126229  0  1.008973  0  0.100174  0  0.103984  0.120863  0  1.010287  0
H  H34  1  0.13040966  0.02353349  0.75199770  1  0  0.113033  0  0.951448  0  0  0.123073  0  1.009603  0  0  0.126196  0  1.008962  0  0.10019  0  0.103946  0.120827  0  1.010281  0
H  H35  1  0.63041001  0.97646774  0.74800049  1  0  0.113048  0  0.951516  0  0  0.123093  0  1.009658  0  0  0.126215  0  1.009017  0  0.100161  0  0.103967  0.120847  0  1.010332  0
H  H36  1  0.72191864  0.12668670  0.24040760  1  0  0.093414  0  0.938141  0  0  0.098804  0  1.004854  0  0  0.101833  0  1.002  0  0.137131  0  0.118926  0.096565  0  1.006955  0
H  H37  1  0.22191577  0.87330992  0.25959201  1  0  0.093399  0  0.938104  0  0  0.098818  0  1.004783  0  0  0.101852  0  1.00192  0  0.137249  0  0.1189  0.09658  0  1.006883  0
H  H38  1  0.27808584  0.87331452  0.75959301  1  0  0.093373  0  0.938146  0  0  0.098774  0  1.00485  0  0  0.101804  0  1.001995  0  0.137149  0  0.118911  0.096536  0  1.006949  0
H  H39  1  0.77808367  0.12668747  0.74040605  1  0  0.093432  0  0.938082  0  0  0.098851  0  1.004766  0  0  0.101883  0  1.001906  0  0.137249  0  0.118943  0.096613  0  1.006866  0
C  C40  1  0.13571555  0.59408886  0.45403450  1  0  -0.056867  0  3.763061  0  0  -0.028245  0  3.999094  0  0  -0.037432  0  4.02187  0  -0.053948  0  -0.019956  -0.022434  0  3.983821  0
C  C41  1  0.63571338  0.40591006  0.04596591  1  0  -0.056878  0  3.762962  0  0  -0.028264  0  3.999002  0  0  -0.037453  0  4.021781  0  -0.05392  0  -0.01995  -0.022452  0  3.983726  0
C  C42  1  0.86428515  0.40591390  0.54596786  1  0  -0.05684  0  3.762901  0  0  -0.028227  0  3.998955  0  0  -0.037418  0  4.021733  0  -0.053905  0  -0.019963  -0.022415  0  3.98368  0
C  C43  1  0.36428354  0.59408886  0.95403268  1  0  -0.056895  0  3.762978  0  0  -0.028281  0  3.999023  0  0  -0.037469  0  4.021799  0  -0.053958  0  -0.019986  -0.022469  0  3.983749  0
C  C44  1  0.04873376  0.65685405  0.53063266  1  0  -0.111082  0  3.716766  0  0  -0.147891  0  3.969713  0  0  -0.146757  0  3.988257  0  0.064129  0  -0.089532  -0.148199  0  3.957076  0
C  C45  1  0.54873159  0.34314564  0.96936681  1  0  -0.111034  0  3.716758  0  0  -0.147863  0  3.969704  0  0  -0.146729  0  3.988248  0  0.064114  0  -0.089538  -0.148174  0  3.95707  0
C  C46  1  0.95126947  0.34314871  0.46936970  1  0  -0.110968  0  3.716666  0  0  -0.147793  0  3.969576  0  0  -0.146668  0  3.988139  0  0.064084  0  -0.089463  -0.148104  0  3.956941  0
C  C47  1  0.45126533  0.65685405  0.03063266  1  0  -0.11098  0  3.716671  0  0  -0.147814  0  3.969607  0  0  -0.146682  0  3.988156  0  0.064066  0  -0.089511  -0.148126  0  3.956974  0
C  C48  1  0.94998617  0.73637389  0.52803754  1  0  0.085924  0  3.718329  0  0  0.102925  0  3.991527  0  0  0.103743  0  4.014198  0  -0.160174  0  -0.020524  0.101975  0  3.976183  0
C  C49  1  0.44998582  0.26362580  0.97196253  1  0  0.085906  0  3.718268  0  0  0.102899  0  3.991479  0  0  0.103717  0  4.014152  0  -0.16016  0  -0.020521  0.101948  0  3.976135  0
C  C50  1  0.05001705  0.26362810  0.47196515  1  0  0.085895  0  3.718355  0  0  0.102932  0  3.991502  0  0  0.103748  0  4.014176  0  -0.160541  0  -0.020503  0.101982  0  3.976158  0
C  C51  1  0.55001362  0.73637389  0.02803694  1  0  0.085842  0  3.718388  0  0  0.102869  0  3.991552  0  0  0.103687  0  4.014222  0  -0.160532  0  -0.020535  0.101919  0  3.976207  0
C  C52  1  0.93952441  0.75727513  0.45271883  1  0  -0.117029  0  3.725313  0  0  -0.153022  0  3.978947  0  0  -0.151933  0  3.997869  0  -0.041142  0  -0.08895  -0.153251  0  3.965962  0
C  C53  1  0.43952153  0.24272532  0.04728151  1  0  -0.116967  0  3.725224  0  0  -0.152946  0  3.978845  0  0  -0.151856  0  3.997767  0  -0.041101  0  -0.088908  -0.153175  0  3.965863  0
C  C54  1  0.06048008  0.24272840  0.54728440  1  0  -0.117021  0  3.725339  0  0  -0.153019  0  3.978944  0  0  -0.151926  0  3.997863  0  -0.021619  0  -0.088945  -0.153249  0  3.965963  0
C  C55  1  0.56047413  0.75727283  0.95271742  1  0  -0.117068  0  3.725295  0  0  -0.153032  0  3.978941  0  0  -0.151943  0  3.997865  0  -0.040774  0  -0.088953  -0.15326  0  3.965956  0
C  C56  1  0.02857163  0.69462135  0.37658522  1  0  -0.051308  0  3.746525  0  0  -0.022644  0  3.978578  0  0  -0.031437  0  4.001583  0  -0.011966  0  -0.017917  -0.017166  0  3.963157  0
C  C57  1  0.52856946  0.30537988  0.12341539  1  0  -0.051274  0  3.74655  0  0  -0.022609  0  3.9786  0  0  -0.031404  0  4.001606  0  -0.011954  0  -0.017926  -0.017131  0  3.963179  0
C  C58  1  0.97143160  0.30538218  0.62341680  1  0  -0.051263  0  3.74653  0  0  -0.0226  0  3.978559  0  0  -0.031393  0  4.001565  0  -0.030297  0  -0.017928  -0.017122  0  3.96314  0
C  C59  1  0.47142998  0.69461981  0.87658348  1  0  -0.051133  0  3.746406  0  0  -0.022574  0  3.978586  0  0  -0.031368  0  4.001592  0  -0.012156  0  -0.017877  -0.017096  0  3.963165  0
C  C60  1  0.12387972  0.61235248  0.37728245  1  0  -0.067547  0  3.684179  0  0  -0.108324  0  3.933288  0  0  -0.10445  0  3.950269  0  0.009847  0  -0.079148  -0.110621  0  3.921818  0
C  C61  1  0.62387882  0.38764721  0.12271763  1  0  -0.06749  0  3.684238  0  0  -0.108285  0  3.933364  0  0  -0.104412  0  3.95035  0  0.009802  0  -0.079137  -0.110584  0  3.921892  0
C  C62  1  0.87612224  0.38764952  0.62271964  1  0  -0.06766  0  3.684316  0  0  -0.10844  0  3.933432  0  0  -0.104566  0  3.950417  0  0.009776  0  -0.079209  -0.110738  0  3.921958  0
C  C63  1  0.37611811  0.61235094  0.87728130  1  0  -0.067616  0  3.684187  0  0  -0.108363  0  3.933349  0  0  -0.104488  0  3.950331  0  0.009969  0  -0.079163  -0.110661  0  3.921877  0
C  C64  1  0.24835193  0.51103631  0.45674040  1  0  0.649527  0  3.917372  0  0  0.594399  0  4.211389  0  0  0.629507  0  4.205791  0  1.569991  0  0.202586  0.570545  0  4.214357  0
C  C65  1  0.74835229  0.48896492  0.04326142  1  0  0.649497  0  3.917327  0  0  0.594393  0  4.211313  0  0  0.6295  0  4.205718  0  1.569584  0  0.202603  0.570539  0  4.214279  0
C  C66  1  0.75164751  0.48896646  0.54326256  1  0  0.649574  0  3.917123  0  0  0.594461  0  4.211122  0  0  0.629569  0  4.205525  0  1.569559  0  0.202679  0.570607  0  4.214089  0
C  C67  1  0.25164716  0.51103477  0.95673805  1  0  0.649583  0  3.917228  0  0  0.594476  0  4.211215  0  0  0.629584  0  4.205617  0  1.569575  0  0.202659  0.570622  0  4.214182  0
C  C68  1  0.01722366  0.71260683  0.29272915  1  0  0.625356  0  3.958259  0  0  0.579871  0  4.245627  0  0  0.613878  0  4.240584  0  1.575278  0  0.187297  0.556907  0  4.247865  0
C  C69  1  0.51722149  0.28739362  0.20727059  1  0  0.625379  0  3.958236  0  0  0.579891  0  4.2456  0  0  0.613899  0  4.240555  0  1.57529  0  0.187362  0.556927  0  4.247837  0
C  C70  1  0.98277957  0.28739593  0.70727260  1  0  0.625379  0  3.958129  0  0  0.579917  0  4.245461  0  0  0.613924  0  4.240415  0  1.575325  0  0.187322  0.556954  0  4.247698  0
C  C71  1  0.48277796  0.71260530  0.79272922  1  0  0.625387  0  3.958103  0  0  0.579941  0  4.245453  0  0  0.613948  0  4.240408  0  1.575287  0  0.187368  0.556978  0  4.24769  0
C  C72  1  0.40762695  0.37253061  0.61945257  1  0  0.16231  0  3.600904  0  0  0.12933  0  3.860213  0  0  0.137329  0  3.877303  0  0.48985  0  0.066027  0.12411  0  3.848703  0
C  C73  1  0.90762856  0.62746984  0.88054777  1  0  0.162202  0  3.600894  0  0  0.129238  0  3.860203  0  0  0.137237  0  3.877293  0  0.489852  0  0.066019  0.124018  0  3.848692  0
C  C74  1  0.59237376  0.62746907  0.38054751  1  0  0.162324  0  3.600875  0  0  0.129364  0  3.860163  0  0  0.137361  0  3.877249  0  0.489876  0  0.066059  0.124144  0  3.848654  0
C  C75  1  0.09237215  0.37253061  0.11945196  1  0  0.162235  0  3.600876  0  0  0.129269  0  3.860177  0  0  0.137265  0  3.877266  0  0.489698  0  0.066007  0.124048  0  3.848668  0
C  C76  1  0.41779751  0.33705828  0.68695121  1  0  -0.099583  0  3.625339  0  0  -0.110638  0  3.878117  0  0  -0.119166  0  3.898325  0  -0.020827  0  -0.067134  -0.105352  0  3.864868  0
C  C77  1  0.91779787  0.66294141  0.81304947  1  0  -0.099601  0  3.625399  0  0  -0.110688  0  3.878169  0  0  -0.119216  0  3.898374  0  -0.020832  0  -0.067161  -0.105402  0  3.864922  0
C  C78  1  0.58220319  0.66294064  0.31304799  1  0  -0.099631  0  3.625318  0  0  -0.110699  0  3.878084  0  0  -0.119222  0  3.898283  0  -0.020863  0  -0.067187  -0.105413  0  3.864838  0
C  C79  1  0.08220158  0.33705905  0.18695027  1  0  -0.099623  0  3.625442  0  0  -0.11068  0  3.878202  0  0  -0.119208  0  3.898412  0  -0.021076  0  -0.067153  -0.105394  0  3.864954  0
C  C80  1  0.49566891  0.24280600  0.67175532  1  0  0.038337  0  3.62859  0  0  0.010245  0  3.879129  0  0  0.01692  0  3.894155  0  -0.063021  0  -0.04206  0.006142  0  3.86889  0
C  C81  1  0.99566674  0.75719446  0.82824442  1  0  0.038418  0  3.628628  0  0  0.010307  0  3.879142  0  0  0.016983  0  3.894166  0  -0.063044  0  -0.042041  0.006204  0  3.8689  0
C  C82  1  0.50433179  0.75719292  0.32824388  1  0  0.038311  0  3.628658  0  0  0.010249  0  3.879165  0  0  0.016925  0  3.894191  0  -0.063046  0  -0.042051  0.006148  0  3.868923  0
C  C83  1  0.00433270  0.24280600  0.17175411  1  0  0.038334  0  3.628532  0  0  0.010264  0  3.879053  0  0  0.016939  0  3.894076  0  -0.062657  0  -0.042073  0.006159  0  3.868817  0
C  C84  1  0.56216964  0.18811656  0.58784281  1  0  -0.123512  0  3.721828  0  0  -0.110033  0  3.960393  0  0  -0.121246  0  3.984713  0  -0.016535  0  -0.013621  -0.102792  0  3.944121  0
C  C85  1  0.06216551  0.81188389  0.91215632  1  0  -0.123587  0  3.722147  0  0  -0.110017  0  3.960584  0  0  -0.121228  0  3.984901  0  -0.016555  0  -0.013628  -0.102778  0  3.944311  0
C  C86  1  0.43782980  0.81188159  0.41215551  1  0  -0.123591  0  3.721908  0  0  -0.110146  0  3.960483  0  0  -0.121362  0  3.984802  0  -0.016565  0  -0.01369  -0.102904  0  3.944212  0
C  C87  1  0.93783141  0.18811656  0.08784221  1  0  -0.123529  0  3.72181  0  0  -0.110129  0  3.960343  0  0  -0.121342  0  3.984663  0  -0.016663  0  -0.013645  -0.102886  0  3.944071  0
C  C88  1  0.65920603  0.08902159  0.54537171  1  0  0.417433  0  3.714086  0  0  0.394011  0  3.981877  0  0  0.415819  0  3.986556  0  0.989208  0  0.172793  0.379113  0  3.978905  0
C  C89  1  0.15920190  0.91097502  0.95463274  1  0  0.417402  0  3.714189  0  0  0.39394  0  3.981999  0  0  0.415747  0  3.986681  0  0.988177  0  0.172805  0.379046  0  3.97901  0
C  C90  1  0.34079341  0.91097656  0.45462601  1  0  0.417423  0  3.714121  0  0  0.394054  0  3.98184  0  0  0.415863  0  3.986521  0  0.989239  0  0.172809  0.379154  0  3.978869  0
C  C91  1  0.84079376  0.08902236  0.04537076  1  0  0.41734  0  3.71428  0  0  0.394086  0  3.981823  0  0  0.415893  0  3.986502  0  0.989029  0  0.172882  0.379185  0  3.978854  0
C  C92  1  0.69867560  0.07857481  0.45259795  1  0  -0.112461  0  3.712732  0  0  -0.097634  0  3.949329  0  0  -0.108643  0  3.973589  0  -0.019457  0  -0.012512  -0.090529  0  3.933039  0
C  C93  1  0.19867650  0.92142488  0.04740333  1  0  -0.112289  0  3.712768  0  0  -0.097523  0  3.949362  0  0  -0.10853  0  3.973619  0  -0.019477  0  -0.012463  -0.090417  0  3.933069  0
C  C94  1  0.30132259  0.92142257  0.54740071  1  0  -0.112404  0  3.712667  0  0  -0.09761  0  3.949236  0  0  -0.108619  0  3.973489  0  -0.019399  0  -0.012499  -0.090503  0  3.932945  0
C  C95  1  0.80132546  0.07857635  0.95259667  1  0  -0.112382  0  3.712632  0  0  -0.097627  0  3.949186  0  0  -0.108633  0  3.973444  0  -0.019414  0  -0.012514  -0.09052  0  3.932896  0
C  C96  1  0.78832231  0.00787907  0.38187526  1  0  0.023084  0  3.608732  0  0  -0.00521  0  3.85504  0  0  0.000931  0  3.869214  0  -0.055586  0  -0.045225  -0.008882  0  3.845346  0
C  C97  1  0.28832196  0.99211985  0.11812575  1  0  0.023126  0  3.608727  0  0  -0.00515  0  3.855032  0  0  0.000991  0  3.869204  0  -0.055574  0  -0.045198  -0.00882  0  3.845336  0
C  C98  1  0.21167587  0.99211985  0.61812333  1  0  0.023087  0  3.608688  0  0  -0.005216  0  3.855001  0  0  0.00095  0  3.869192  0  -0.055634  0  -0.045217  -0.008887  0  3.845306  0
C  C99  1  0.71167748  0.00787830  0.88187378  1  0  0.023061  0  3.608698  0  0  -0.005185  0  3.855008  0  0  0.000956  0  3.869178  0  -0.055627  0  -0.04524  -0.008858  0  3.845313  0
C  C100  1  0.79831639  0.02766933  0.30516309  1  0  -0.121071  0  3.695429  0  0  -0.135966  0  3.958377  0  0  -0.143387  0  3.97832  0  0.00228  0  -0.082286  -0.131359  0  3.945093  0
C  C101  1  0.29831730  0.97232882  0.19483705  1  0  -0.121179  0  3.695519  0  0  -0.136081  0  3.958479  0  0  -0.143511  0  3.978442  0  0.002263  0  -0.082305  -0.131472  0  3.945196  0
C  C102  1  0.20168305  0.97233036  0.69483396  1  0  -0.121121  0  3.695228  0  0  -0.136012  0  3.958185  0  0  -0.143433  0  3.978117  0  0.002276  0  -0.082255  -0.131402  0  3.944899  0
C  C103  1  0.70168340  0.02766856  0.80516403  1  0  -0.121171  0  3.695524  0  0  -0.13606  0  3.958452  0  0  -0.14349  0  3.978414  0  0.002275  0  -0.082274  -0.131448  0  3.945165  0
C  C104  1  0.71885159  0.11296997  0.30069979  1  0  0.151798  0  3.650587  0  0  0.11614  0  3.91564  0  0  0.124681  0  3.931149  0  0.453579  0  0.058897  0.11063  0  3.905108  0
C  C105  1  0.21885124  0.88702895  0.19930002  1  0  0.15187  0  3.650533  0  0  0.116202  0  3.915597  0  0  0.124742  0  3.931106  0  0.453439  0  0.058922  0.110691  0  3.905062  0
C  C106  1  0.28115037  0.88703049  0.69929934  1  0  0.151925  0  3.650422  0  0  0.116251  0  3.915492  0  0  0.124792  0  3.931003  0  0.453632  0  0.058925  0.110741  0  3.904958  0
C  C107  1  0.78114947  0.11296997  0.80069918  1  0  0.151851  0  3.650498  0  0  0.116166  0  3.91556  0  0  0.124706  0  3.93107  0  0.453493  0  0.058883  0.110655  0  3.905024  0
C  C108  1  0.62681477  0.16310637  0.44243544  1  0  0.162542  0  3.839431  0  0  0.14896  0  4.082053  0  0  0.15624  0  4.103701  0  0.577597  0  0.125156  0.144168  0  4.067278  0
C  C109  1  0.12681315  0.83689255  0.05756437  1  0  0.162478  0  3.839462  0  0  0.149043  0  4.081909  0  0  0.156322  0  4.103556  0  0.577601  0  0.125209  0.144247  0  4.067134  0
C  C110  1  0.37318594  0.83689255  0.55756437  1  0  0.162451  0  3.83958  0  0  0.148941  0  4.082121  0  0  0.156219  0  4.103771  0  0.577547  0  0.125177  0.144147  0  4.067344  0
C  C111  1  0.87318629  0.16310637  0.94243422  1  0  0.162513  0  3.83948  0  0  0.148966  0  4.082043  0  0  0.156242  0  4.103696  0  0.57758  0  0.125179  0.144174  0  4.067264  0
C  C112  1  0.54493086  0.23035468  0.52488754  1  0  0.152271  0  3.855328  0  0  0.140247  0  4.100161  0  0  0.14684  0  4.122593  0  0.542649  0  0.122662  0.135988  0  4.084815  0
C  C113  1  0.04492925  0.76964731  0.97511213  1  0  0.152232  0  3.855376  0  0  0.14015  0  4.100157  0  0  0.146741  0  4.122591  0  0.542685  0  0.122614  0.135892  0  4.08481  0
C  C114  1  0.45506732  0.76964424  0.47511106  1  0  0.152376  0  3.855265  0  0  0.140325  0  4.100112  0  0  0.146923  0  4.122535  0  0.542662  0  0.122676  0.136066  0  4.084767  0
C  C115  1  0.95506893  0.23035468  0.02488693  1  0  0.152331  0  3.855384  0  0  0.140353  0  4.100136  0  0  0.146946  0  4.122569  0  0.542785  0  0.122697  0.136094  0  4.084788  0
Br  Br116  1  0.82473113  0.81710229  0.63141551  1  0  -0.048638  0  1.41364  0  0  -0.03292  0  1.700269  0  0  -0.039711  0  1.69367  0  -0.058526  0  0.081469  -0.027825  0  1.70493  0
Br  Br117  1  0.32473077  0.18289433  0.86858410  1  0  -0.048681  0  1.413609  0  0  -0.032969  0  1.700255  0  0  -0.039762  0  1.693651  0  -0.058508  0  0.081425  -0.027873  0  1.704916  0
Br  Br118  1  0.17526706  0.18289433  0.36858652  1  0  -0.048638  0  1.413609  0  0  -0.032947  0  1.70024  0  0  -0.039733  0  1.693631  0  -0.058494  0  0.081445  -0.027855  0  1.704903  0
Br  Br119  1  0.67526867  0.81710383  0.13141241  1  0  -0.048618  0  1.41367  0  0  -0.032913  0  1.700298  0  0  -0.0397  0  1.69369  0  -0.058492  0  0.081463  -0.02782  0  1.70496  0
N  N120  1  0.47100012  0.31869401  0.53729938  1  0  -0.35698  0  3.211702  0  0  -0.293351  0  3.480977  0  0  -0.313555  0  3.499695  0  -1.241492  0  -0.311343  -0.279439  0  3.467621  0
N  N121  1  0.97100047  0.68130568  0.96270190  1  0  -0.356839  0  3.211567  0  0  -0.293213  0  3.480827  0  0  -0.313417  0  3.49955  0  -1.241523  0  -0.311296  -0.279301  0  3.46747  0
N  N122  1  0.52900059  0.68130568  0.46270130  1  0  -0.356989  0  3.211671  0  0  -0.293368  0  3.480953  0  0  -0.313574  0  3.499673  0  -1.241508  0  -0.311341  -0.279455  0  3.467596  0
N  N123  1  0.02899897  0.31869401  0.03729817  1  0  -0.356942  0  3.211647  0  0  -0.293348  0  3.480913  0  0  -0.313543  0  3.499611  0  -1.241549  0  -0.311351  -0.279436  0  3.467559  0
N  N124  1  0.63330563  0.18197158  0.37016702  1  0  -0.355674  0  3.246591  0  0  -0.284991  0  3.513472  0  0  -0.305438  0  3.530922  0  -1.24509  0  -0.316383  -0.271086  0  3.501304  0
N  N125  1  0.13330527  0.81802734  0.12983400  1  0  -0.355655  0  3.246668  0  0  -0.285035  0  3.513514  0  0  -0.305482  0  3.530962  0  -1.245128  0  -0.316387  -0.271135  0  3.501362  0
N  N126  1  0.36669508  0.81802965  0.62983359  1  0  -0.355668  0  3.246717  0  0  -0.285005  0  3.513562  0  0  -0.305447  0  3.531004  0  -1.245081  0  -0.316398  -0.271107  0  3.501416  0
N  N127  1  0.86669669  0.18196927  0.87016439  1  0  -0.355681  0  3.246684  0  0  -0.285017  0  3.513555  0  0  -0.305458  0  3.530994  0  -1.245118  0  -0.316392  -0.27112  0  3.501408  0
O  O128  1  0.27141219  0.43241693  0.38434549  1  0  -0.622222  0  2.020255  0  0  -0.550221  0  2.269438  0  0  -0.581166  0  2.26005  0  -1.146216  0  -0.315633  -0.528513  0  2.275137  0
O  O129  1  0.77141507  0.56758122  0.11565586  1  0  -0.622258  0  2.020383  0  0  -0.55024  0  2.269526  0  0  -0.581186  0  2.260142  0  -1.145848  0  -0.315633  -0.528533  0  2.275223  0
O  O130  1  0.72858725  0.56758353  0.61565667  1  0  -0.622251  0  2.020263  0  0  -0.550257  0  2.269443  0  0  -0.581202  0  2.260058  0  -1.145892  0  -0.315677  -0.52855  0  2.275142  0
O  O131  1  0.22858438  0.43241693  0.88434367  1  0  -0.622301  0  2.02037  0  0  -0.550284  0  2.269525  0  0  -0.581231  0  2.260141  0  -1.145873  0  -0.315671  -0.528577  0  2.275223  0
O  O132  1  0.31690872  0.52340618  0.52987344  1  0  -0.646605  0  2.040359  0  0  -0.57718  0  2.295189  0  0  -0.606  0  2.283779  0  -1.176915  0  -0.328297  -0.556872  0  2.302318  0
O  O133  1  0.81690781  0.47659505  0.97012657  1  0  -0.646572  0  2.040321  0  0  -0.577177  0  2.295159  0  0  -0.605998  0  2.283752  0  -1.176851  0  -0.328315  -0.556869  0  2.30229  0
O  O134  1  0.68309325  0.47659582  0.47012684  1  0  -0.646611  0  2.040158  0  0  -0.577213  0  2.295005  0  0  -0.60603  0  2.283595  0  -1.176839  0  -0.328349  -0.556905  0  2.302138  0
O  O135  1  0.18309164  0.52340464  0.02987290  1  0  -0.646602  0  2.040239  0  0  -0.57721  0  2.295086  0  0  -0.606028  0  2.283677  0  -1.176834  0  -0.328325  -0.556902  0  2.302218  0
O  O136  1  0.10504249  0.65082124  0.22723700  1  0  -0.646108  0  1.980568  0  0  -0.578578  0  2.224513  0  0  -0.609639  0  2.21501  0  -1.156117  0  -0.344708  -0.55647  0  2.229978  0
O  O137  1  0.60503906  0.34917768  0.27276280  1  0  -0.646136  0  1.980512  0  0  -0.578592  0  2.224452  0  0  -0.609653  0  2.214947  0  -1.156095  0  -0.344747  -0.556485  0  2.229918  0
O  O138  1  0.89495695  0.34917845  0.77276428  1  0  -0.646134  0  1.980518  0  0  -0.578615  0  2.22446  0  0  -0.609679  0  2.214957  0  -1.156179  0  -0.344724  -0.556507  0  2.229926  0
O  O139  1  0.39495786  0.65082355  0.72723659  1  0  -0.646185  0  1.980545  0  0  -0.578643  0  2.224478  0  0  -0.609707  0  2.214974  0  -1.156145  0  -0.344779  -0.556536  0  2.229946  0
O  O140  1  0.92352228  0.78286771  0.29039302  1  0  -0.63933  0  1.92483  0  0  -0.593309  0  2.153843  0  0  -0.618901  0  2.147301  0  -1.18211  0  -0.336118  -0.574937  0  2.157464  0
O  O141  1  0.42351940  0.21713198  0.20960705  1  0  -0.639352  0  1.924872  0  0  -0.593329  0  2.153885  0  0  -0.61892  0  2.147342  0  -1.182136  0  -0.33614  -0.574956  0  2.157505  0
O  O142  1  0.07648095  0.21713352  0.70960819  1  0  -0.639337  0  1.924807  0  0  -0.593333  0  2.15382  0  0  -0.618918  0  2.14727  0  -1.182107  0  -0.336128  -0.574962  0  2.157441  0
O  O143  1  0.57648004  0.78286694  0.79039276  1  0  -0.639356  0  1.92477  0  0  -0.593332  0  2.153764  0  0  -0.618922  0  2.147222  0  -1.182106  0  -0.336135  -0.57496  0  2.157384  0
O  O144  1  0.69796588  0.02927588  0.57883061  1  0  -0.42854  0  1.915157  0  0  -0.386964  0  2.112483  0  0  -0.403608  0  2.110208  0  -1.07824  0  -0.243887  -0.375921  0  2.114099  0
O  O145  1  0.19796552  0.97073226  0.92116878  1  0  -0.428689  0  1.914781  0  0  -0.387085  0  2.112092  0  0  -0.403727  0  2.109818  0  -1.077208  0  -0.244017  -0.376047  0  2.113715  0
O  O146  1  0.30203483  0.97072381  0.42116765  1  0  -0.42853  0  1.915133  0  0  -0.386971  0  2.112428  0  0  -0.403615  0  2.110154  0  -1.078228  0  -0.24389  -0.375929  0  2.114052  0
O  O147  1  0.80203896  0.02927280  0.07882954  1  0  -0.42852  0  1.915221  0  0  -0.387012  0  2.112465  0  0  -0.403655  0  2.110189  0  -1.078011  0  -0.243953  -0.375965  0  2.114081  0
