# generated using pymatgen
data_ZnH12C16NO4
_symmetry_space_group_name_H-M   'P 1'
_cell_length_a   5.85213519
_cell_length_b   14.68207178
_cell_length_c   16.31336195
_cell_angle_alpha   97.37257645
_cell_angle_beta   90.00118136
_cell_angle_gamma   90.00031372
_symmetry_Int_Tables_number   1
_chemical_formula_structural   ZnH12C16NO4
_chemical_formula_sum   'Zn4 H48 C64 N4 O16'
_cell_volume   1390.08000252
_cell_formula_units_Z   4
loop_
 _symmetry_equiv_pos_site_id
 _symmetry_equiv_pos_as_xyz
  1  'x, y, z'
loop_
 _atom_site_type_symbol
 _atom_site_label
 _atom_site_symmetry_multiplicity
 _atom_site_fract_x
 _atom_site_fract_y
 _atom_site_fract_z
 _atom_site_occupancy
 _atom_site_hle17_bader_spin_density
 _atom_site_hle17_ddec_charge
 _atom_site_hle17_ddec_spin_density
 _atom_site_hle17_ddec_sum_bond_order
 _atom_site_hle17_magmom
 _atom_site_hse06_10hf_bader_spin_density
 _atom_site_hse06_10hf_ddec_charge
 _atom_site_hse06_10hf_ddec_spin_density
 _atom_site_hse06_10hf_ddec_sum_bond_order
 _atom_site_hse06_10hf_magmom
 _atom_site_hse06_bader_spin_density
 _atom_site_hse06_ddec_charge
 _atom_site_hse06_ddec_spin_density
 _atom_site_hse06_ddec_sum_bond_order
 _atom_site_hse06_magmom
 _atom_site_pbe_bader_spin_density
 _atom_site_pbe_cm5_charge
 _atom_site_pbe_ddec_charge
 _atom_site_pbe_ddec_spin_density
 _atom_site_pbe_ddec_sum_bond_order
 _atom_site_pbe_magmom
Zn  Zn0  1  0.60543128  0.05727137  0.65501469  1  0  1.075848  0  1.783868  0  0  0.893668  0  2.255586  0  0  0.944449  0  2.195721  0  0  0.698595  0.858043  0  2.296797  0
Zn  Zn1  1  0.10542676  0.94272796  0.84498894  1  0  1.075787  0  1.784  0  0  0.893667  0  2.255785  0  0  0.944443  0  2.195916  0  0  0.698568  0.85804  0  2.297003  0
Zn  Zn2  1  0.39457012  0.94273405  0.34500597  1  0  1.075796  0  1.783736  0  0  0.893626  0  2.255508  0  0  0.944404  0  2.195641  0  0  0.698594  0.858007  0  2.296727  0
Zn  Zn3  1  0.89456952  0.05726263  0.15501125  1  0  1.075705  0  1.7841  0  0  0.893599  0  2.255852  0  0  0.944371  0  2.195981  0  0  0.698603  0.857975  0  2.297071  0
H  H4  1  0.04047388  0.13985827  0.59719937  1  0  0.118948  0  0.953085  0  0  0.124808  0  1.01482  0  0  0.12814  0  1.012303  0  0  0.129468  0.122245  0  1.016933  0
H  H5  1  0.54045381  0.86013686  0.90280832  1  0  0.118965  0  0.95324  0  0  0.124806  0  1.014937  0  0  0.128135  0  1.012423  0  0  0.129485  0.122235  0  1.017055  0
H  H6  1  0.95956854  0.86016313  0.40283144  1  0  0.118999  0  0.953012  0  0  0.124745  0  1.014869  0  0  0.12815  0  1.012264  0  0  0.129437  0.122171  0  1.017003  0
H  H7  1  0.45958177  0.13982611  0.09718241  1  0  0.119124  0  0.953011  0  0  0.124797  0  1.014974  0  0  0.128216  0  1.012351  0  0  0.129414  0.122222  0  1.017098  0
H  H8  1  0.68109310  0.89938615  0.52136241  1  0  0.108327  0  0.942943  0  0  0.112699  0  1.008788  0  0  0.115799  0  1.006654  0  0  0.128084  0.110386  0  1.010523  0
H  H9  1  0.18110800  0.10060795  0.97864304  1  0  0.108383  0  0.942885  0  0  0.112754  0  1.008708  0  0  0.115852  0  1.006575  0  0  0.128105  0.110445  0  1.010443  0
H  H10  1  0.31893736  0.10063041  0.47866670  1  0  0.108339  0  0.9431  0  0  0.112755  0  1.008816  0  0  0.115854  0  1.006678  0  0  0.128081  0.110445  0  1.010548  0
H  H11  1  0.81893783  0.89935835  0.02134250  1  0  0.108403  0  0.942841  0  0  0.11276  0  1.008657  0  0  0.115858  0  1.006527  0  0  0.128071  0.110447  0  1.010389  0
H  H12  1  0.13174913  0.61458787  0.29687815  1  0  0.096847  0  0.965521  0  0  0.104877  0  1.031887  0  0  0.108063  0  1.029971  0  0  0.101179  0.102448  0  1.033543  0
H  H13  1  0.63171912  0.38543615  0.20310570  1  0  0.096672  0  0.96558  0  0  0.104716  0  1.031922  0  0  0.107902  0  1.030004  0  0  0.101108  0.102278  0  1.03361  0
H  H14  1  0.86827107  0.38542102  0.70311281  1  0  0.096768  0  0.965563  0  0  0.104842  0  1.031883  0  0  0.108013  0  1.03001  0  0  0.10117  0.102416  0  1.033527  0
H  H15  1  0.36825152  0.61456895  0.79686833  1  0  0.096712  0  0.965467  0  0  0.104759  0  1.031836  0  0  0.107947  0  1.029917  0  0  0.101156  0.102328  0  1.033488  0
H  H16  1  0.22734232  0.45069680  0.30601982  1  0  0.090669  0  0.963091  0  0  0.101301  0  1.023748  0  0  0.10328  0  1.025013  0  0  0.099377  0.099931  0  1.022935  0
H  H17  1  0.72734674  0.54932045  0.19395601  1  0  0.090683  0  0.963178  0  0  0.101417  0  1.023719  0  0  0.103399  0  1.024976  0  0  0.09945  0.100045  0  1.02291  0
H  H18  1  0.77265566  0.54930646  0.69396445  1  0  0.090637  0  0.96316  0  0  0.101347  0  1.023736  0  0  0.103326  0  1.024999  0  0  0.099426  0.099972  0  1.022924  0
H  H19  1  0.27265467  0.45068129  0.80602136  1  0  0.090761  0  0.963003  0  0  0.101377  0  1.02365  0  0  0.10335  0  1.024912  0  0  0.099396  0.100005  0  1.022844  0
H  H20  1  0.59975854  0.41165710  0.36890577  1  0  0.082861  0  0.962912  0  0  0.093936  0  1.024449  0  0  0.096246  0  1.023859  0  0  0.098295  0.092344  0  1.024848  0
H  H21  1  0.09977408  0.58834068  0.13107283  1  0  0.082788  0  0.962835  0  0  0.09387  0  1.024394  0  0  0.096179  0  1.023804  0  0  0.098271  0.092278  0  1.024797  0
H  H22  1  0.40023261  0.58834769  0.63108600  1  0  0.08284  0  0.962882  0  0  0.093931  0  1.024427  0  0  0.09624  0  1.023837  0  0  0.098281  0.09233  0  1.024826  0
H  H23  1  0.90025296  0.41164763  0.86891671  1  0  0.08289  0  0.963025  0  0  0.093994  0  1.024539  0  0  0.096304  0  1.023947  0  0  0.098306  0.092391  0  1.024939  0
H  H24  1  0.87506397  0.53509050  0.41685417  1  0  0.083189  0  0.956556  0  0  0.096419  0  1.014208  0  0  0.098807  0  1.014048  0  0  0.097845  0.094549  0  1.014692  0
H  H25  1  0.37505230  0.46489475  0.08314402  1  0  0.083273  0  0.956767  0  0  0.096408  0  1.014499  0  0  0.098823  0  1.014292  0  0  0.097902  0.094544  0  1.014986  0
H  H26  1  0.12493401  0.46491112  0.58314895  1  0  0.083238  0  0.956747  0  0  0.09648  0  1.014364  0  0  0.098872  0  1.014196  0  0  0.097891  0.094613  0  1.014848  0
H  H27  1  0.62496961  0.53508903  0.91685795  1  0  0.083179  0  0.956749  0  0  0.096381  0  1.014419  0  0  0.098766  0  1.014265  0  0  0.097884  0.09453  0  1.014889  0
H  H28  1  0.78005507  0.69862014  0.40407558  1  0  0.100493  0  0.956183  0  0  0.108087  0  1.022522  0  0  0.111535  0  1.020333  0  0  0.102072  0.105654  0  1.024061  0
H  H29  1  0.28001092  0.30136981  0.09593042  1  0  0.100583  0  0.955983  0  0  0.108158  0  1.022336  0  0  0.11161  0  1.020152  0  0  0.10205  0.105725  0  1.023866  0
H  H30  1  0.21994976  0.30138434  0.59593333  1  0  0.10053  0  0.956207  0  0  0.108138  0  1.022525  0  0  0.111589  0  1.020333  0  0  0.102062  0.105702  0  1.024064  0
H  H31  1  0.71996998  0.69861600  0.90407053  1  0  0.100525  0  0.956185  0  0  0.108169  0  1.022445  0  0  0.111624  0  1.020256  0  0  0.102062  0.105735  0  1.023977  0
H  H32  1  0.37581305  0.78766077  0.54791793  1  0  0.098355  0  0.954015  0  0  0.106143  0  1.020807  0  0  0.109399  0  1.019012  0  0  0.101828  0.103562  0  1.022664  0
H  H33  1  0.87580830  0.21233522  0.95208715  1  0  0.098396  0  0.954089  0  0  0.106184  0  1.020866  0  0  0.109445  0  1.019064  0  0  0.101905  0.103602  0  1.022723  0
H  H34  1  0.62416272  0.21235235  0.45207835  1  0  0.098357  0  0.954072  0  0  0.106205  0  1.020808  0  0  0.109433  0  1.019044  0  0  0.101885  0.103625  0  1.022668  0
H  H35  1  0.12416234  0.78765976  0.04792635  1  0  0.098301  0  0.953955  0  0  0.106126  0  1.020728  0  0  0.109362  0  1.018959  0  0  0.10184  0.103542  0  1.022586  0
H  H36  1  0.15666469  0.64652742  0.49787239  1  0  0.089002  0  0.959664  0  0  0.100363  0  1.018231  0  0  0.102531  0  1.018989  0  0  0.099515  0.098905  0  1.017634  0
H  H37  1  0.65667254  0.35346779  0.00213883  1  0  0.088927  0  0.959621  0  0  0.100274  0  1.018233  0  0  0.10244  0  1.018996  0  0  0.099465  0.098818  0  1.017639  0
H  H38  1  0.84331279  0.35348497  0.50212197  1  0  0.088976  0  0.9597  0  0  0.10041  0  1.01818  0  0  0.102579  0  1.018938  0  0  0.09954  0.09895  0  1.017594  0
H  H39  1  0.34329811  0.64652517  0.99787631  1  0  0.088974  0  0.959677  0  0  0.10041  0  1.018157  0  0  0.102578  0  1.018917  0  0  0.099522  0.098954  0  1.017567  0
H  H40  1  0.77936743  0.61815796  0.56104435  1  0  0.077837  0  0.98272  0  0  0.086965  0  1.049814  0  0  0.089169  0  1.049465  0  0  0.096622  0.085426  0  1.050024  0
H  H41  1  0.27937390  0.38183845  0.93896075  1  0  0.077868  0  0.982745  0  0  0.086977  0  1.049848  0  0  0.089178  0  1.049503  0  0  0.096617  0.085436  0  1.050072  0
H  H42  1  0.22061176  0.38185030  0.43894900  1  0  0.077774  0  0.982724  0  0  0.086907  0  1.049829  0  0  0.089102  0  1.049483  0  0  0.096634  0.085368  0  1.050045  0
H  H43  1  0.72061384  0.61815558  0.06104039  1  0  0.077911  0  0.982675  0  0  0.087006  0  1.049785  0  0  0.089205  0  1.049441  0  0  0.096634  0.085469  0  1.050003  0
H  H44  1  0.62334686  0.73168593  0.67486888  1  0  0.102407  0  0.941178  0  0  0.114699  0  0.996855  0  0  0.117581  0  0.99597  0  0  0.104961  0.112349  0  0.998172  0
H  H45  1  0.12335622  0.26831738  0.82512606  1  0  0.102433  0  0.941184  0  0  0.114707  0  0.996878  0  0  0.117602  0  0.995978  0  0  0.104986  0.112332  0  0.998221  0
H  H46  1  0.37662208  0.26832569  0.32512111  1  0  0.10242  0  0.941339  0  0  0.114718  0  0.996975  0  0  0.117597  0  0.996095  0  0  0.105015  0.112355  0  0.998303  0
H  H47  1  0.87665886  0.73167651  0.17486833  1  0  0.10239  0  0.941183  0  0  0.11468  0  0.996866  0  0  0.117561  0  0.995982  0  0  0.104951  0.112317  0  0.99821  0
H  H48  1  0.83878195  0.87287887  0.72183203  1  0  0.097072  0  0.977504  0  0  0.105849  0  1.043555  0  0  0.109834  0  1.039708  0  0  0.101673  0.102968  0  1.046365  0
H  H49  1  0.33878780  0.12712561  0.77815831  1  0  0.097134  0  0.977491  0  0  0.105866  0  1.043604  0  0  0.109855  0  1.039747  0  0  0.101684  0.10298  0  1.046408  0
H  H50  1  0.16118870  0.12713010  0.27816261  1  0  0.097108  0  0.977371  0  0  0.10584  0  1.043466  0  0  0.109822  0  1.039624  0  0  0.101677  0.102967  0  1.046251  0
H  H51  1  0.66123240  0.87286840  0.22184161  1  0  0.097173  0  0.977505  0  0  0.10592  0  1.043579  0  0  0.109908  0  1.039723  0  0  0.101715  0.103042  0  1.046371  0
C  C52  1  0.02314497  0.07779360  0.55328711  1  0  0.098805  0  3.614353  0  0  0.066708  0  3.86443  0  0  0.069402  0  3.881372  0  0  0.066459  0.064714  0  3.853459  0
C  C53  1  0.52315262  0.92219866  0.94671650  1  0  0.098782  0  3.614139  0  0  0.066817  0  3.864105  0  0  0.069516  0  3.88104  0  0  0.066476  0.064825  0  3.853132  0
C  C54  1  0.97687352  0.92223262  0.44674478  1  0  0.099005  0  3.614193  0  0  0.067118  0  3.864367  0  0  0.069751  0  3.881276  0  0  0.066733  0.065135  0  3.853391  0
C  C55  1  0.47687783  0.07776210  0.05326665  1  0  0.098396  0  3.614018  0  0  0.066437  0  3.864383  0  0  0.06906  0  3.881284  0  0  0.066377  0.064453  0  3.853414  0
C  C56  1  0.17546319  0.05613599  0.48831336  1  0  0.103523  0  3.632306  0  0  0.072512  0  3.886467  0  0  0.075459  0  3.903771  0  0  0.066254  0.070336  0  3.875216  0
C  C57  1  0.67546887  0.94386064  0.01169751  1  0  0.103414  0  3.632191  0  0  0.072346  0  3.886476  0  0  0.07529  0  3.90378  0  0  0.066174  0.070166  0  3.875219  0
C  C58  1  0.82457068  0.94388615  0.51171997  1  0  0.103335  0  3.632518  0  0  0.072128  0  3.886841  0  0  0.075072  0  3.904177  0  0  0.065976  0.069956  0  3.875578  0
C  C59  1  0.32457697  0.05610289  0.98828715  1  0  0.103499  0  3.632598  0  0  0.072393  0  3.886867  0  0  0.07534  0  3.904204  0  0  0.066053  0.0702  0  3.875617  0
C  C60  1  0.38399307  0.76351238  0.34395678  1  0  0.626231  0  3.930859  0  0  0.580226  0  4.217474  0  0  0.613753  0  4.212634  0  0  0.196212  0.55756  0  4.219729  0
C  C61  1  0.88390133  0.23649777  0.15605128  1  0  0.626317  0  3.930817  0  0  0.580334  0  4.217387  0  0  0.613857  0  4.212544  0  0  0.19647  0.557655  0  4.219661  0
C  C62  1  0.61602371  0.23649767  0.65605636  1  0  0.626164  0  3.930902  0  0  0.580142  0  4.217529  0  0  0.613663  0  4.212689  0  0  0.196237  0.55747  0  4.219807  0
C  C63  1  0.11604197  0.76349940  0.84393669  1  0  0.626181  0  3.930697  0  0  0.580184  0  4.217299  0  0  0.613705  0  4.212457  0  0  0.19627  0.557513  0  4.219579  0
C  C64  1  0.44830582  0.66629536  0.35085497  1  0  -0.072938  0  3.770592  0  0  -0.046349  0  3.995908  0  0  -0.055432  0  4.020175  0  0  -0.021452  -0.040493  0  3.979442  0
C  C65  1  0.94826812  0.33370853  0.14914062  1  0  -0.073063  0  3.770729  0  0  -0.046469  0  3.996005  0  0  -0.05555  0  4.02027  0  0  -0.021614  -0.040603  0  3.979537  0
C  C66  1  0.55169388  0.33371106  0.64914861  1  0  -0.073142  0  3.770635  0  0  -0.046502  0  3.995918  0  0  -0.055574  0  4.020182  0  0  -0.021505  -0.040653  0  3.979465  0
C  C67  1  0.05170937  0.66628739  0.85085273  1  0  -0.073214  0  3.770869  0  0  -0.046588  0  3.996144  0  0  -0.05567  0  4.020413  0  0  -0.021531  -0.040737  0  3.979683  0
C  C68  1  0.29362921  0.59608652  0.32318947  1  0  -0.075011  0  3.74588  0  0  -0.098333  0  3.990214  0  0  -0.097709  0  4.010721  0  0  -0.086138  -0.098493  0  3.976484  0
C  C69  1  0.79359780  0.40393053  0.17680027  1  0  -0.074655  0  3.745751  0  0  -0.097964  0  3.990109  0  0  -0.097342  0  4.010618  0  0  -0.086015  -0.098133  0  3.976374  0
C  C70  1  0.70638415  0.40392249  0.67680701  1  0  -0.07468  0  3.745754  0  0  -0.09804  0  3.99007  0  0  -0.097424  0  4.01057  0  0  -0.086028  -0.098206  0  3.976351  0
C  C71  1  0.20638310  0.59607280  0.82318707  1  0  -0.074439  0  3.745508  0  0  -0.097768  0  3.989768  0  0  -0.097143  0  4.010272  0  0  -0.085974  -0.09793  0  3.976044  0
C  C72  1  0.34745520  0.50474446  0.32910702  1  0  -0.090745  0  3.784469  0  0  -0.100961  0  4.032134  0  0  -0.105088  0  4.054601  0  0  -0.095487  -0.098171  0  4.016797  0
C  C73  1  0.84745729  0.49527051  0.17087490  1  0  -0.091082  0  3.784649  0  0  -0.101393  0  4.032337  0  0  -0.105523  0  4.054804  0  0  -0.095635  -0.098599  0  4.017006  0
C  C74  1  0.65255646  0.49526368  0.67088079  1  0  -0.090969  0  3.784451  0  0  -0.101276  0  4.032187  0  0  -0.105402  0  4.054647  0  0  -0.095697  -0.098484  0  4.016848  0
C  C75  1  0.15255949  0.50473012  0.82911463  1  0  -0.091144  0  3.784456  0  0  -0.101365  0  4.032175  0  0  -0.105482  0  4.054625  0  0  -0.095633  -0.09858  0  4.016846  0
C  C76  1  0.55565025  0.48294524  0.36396121  1  0  -0.059467  0  3.767848  0  0  -0.073864  0  4.014023  0  0  -0.073712  0  4.034636  0  0  -0.087111  -0.073697  0  3.999632  0
C  C77  1  0.05565132  0.51705529  0.13602351  1  0  -0.059235  0  3.767171  0  0  -0.073625  0  4.013348  0  0  -0.073474  0  4.033966  0  0  -0.086953  -0.073464  0  3.998969  0
C  C78  1  0.44435799  0.51705963  0.63603426  1  0  -0.059383  0  3.767718  0  0  -0.073801  0  4.01392  0  0  -0.073649  0  4.034532  0  0  -0.087084  -0.073626  0  3.999521  0
C  C79  1  0.94436204  0.48293705  0.86396275  1  0  -0.059474  0  3.767757  0  0  -0.073889  0  4.013926  0  0  -0.073735  0  4.03453  0  0  -0.087057  -0.073712  0  3.99954  0
C  C80  1  0.71102401  0.55254932  0.39116202  1  0  -0.087359  0  3.785894  0  0  -0.098013  0  4.034647  0  0  -0.102204  0  4.057323  0  0  -0.095313  -0.095153  0  4.019365  0
C  C81  1  0.21102055  0.44744065  0.10882145  1  0  -0.087473  0  3.785843  0  0  -0.098063  0  4.034578  0  0  -0.102266  0  4.057253  0  0  -0.09547  -0.095205  0  4.019304  0
C  C82  1  0.28897227  0.44745626  0.60883412  1  0  -0.087291  0  3.785924  0  0  -0.097945  0  4.034678  0  0  -0.102133  0  4.057348  0  0  -0.095187  -0.09509  0  4.019397  0
C  C83  1  0.78899794  0.55254499  0.89117151  1  0  -0.087193  0  3.785945  0  0  -0.097847  0  4.034735  0  0  -0.102038  0  4.05741  0  0  -0.095303  -0.095006  0  4.019455  0
C  C84  1  0.65881962  0.64397845  0.38423037  1  0  -0.068313  0  3.724002  0  0  -0.09229  0  3.969387  0  0  -0.091327  0  3.989126  0  0  -0.08508  -0.092643  0  3.955929  0
C  C85  1  0.15877418  0.35601781  0.11576564  1  0  -0.06835  0  3.724183  0  0  -0.092271  0  3.969465  0  0  -0.091319  0  3.989222  0  0  -0.084955  -0.092619  0  3.955994  0
C  C86  1  0.34118349  0.35602997  0.61577035  1  0  -0.068347  0  3.724041  0  0  -0.092355  0  3.969435  0  0  -0.091398  0  3.989178  0  0  -0.085138  -0.092703  0  3.955979  0
C  C87  1  0.84121185  0.64396923  0.88422868  1  0  -0.068388  0  3.724388  0  0  -0.092391  0  3.969716  0  0  -0.091436  0  3.989468  0  0  -0.08511  -0.092742  0  3.956259  0
C  C88  1  0.75659221  0.07689071  0.83209346  1  0  0.684566  0  3.839335  0  0  0.631647  0  4.124741  0  0  0.668086  0  4.1162  0  0  0.225672  0.606859  0  4.129759  0
C  C89  1  0.25659481  0.92310954  0.66790205  1  0  0.684582  0  3.83951  0  0  0.631679  0  4.124896  0  0  0.668117  0  4.116357  0  0  0.225699  0.606884  0  4.129925  0
C  C90  1  0.24342800  0.92310758  0.16791423  1  0  0.684471  0  3.839543  0  0  0.631645  0  4.124854  0  0  0.668084  0  4.116314  0  0  0.225638  0.606857  0  4.12986  0
C  C91  1  0.74339122  0.07689544  0.33209833  1  0  0.68468  0  3.839753  0  0  0.631736  0  4.125195  0  0  0.668173  0  4.116657  0  0  0.225753  0.606951  0  4.1302  0
C  C92  1  0.12499512  0.83794263  0.63978086  1  0  -0.094624  0  3.79346  0  0  -0.069787  0  4.024596  0  0  -0.079507  0  4.049569  0  0  -0.025109  -0.063304  0  4.007657  0
C  C93  1  0.62499736  0.16205751  0.86022604  1  0  -0.094588  0  3.793307  0  0  -0.069742  0  4.024429  0  0  -0.079466  0  4.049408  0  0  -0.025017  -0.063253  0  4.007466  0
C  C94  1  0.87498065  0.16206714  0.36021938  1  0  -0.094739  0  3.79394  0  0  -0.069926  0  4.02513  0  0  -0.079644  0  4.050098  0  0  -0.025104  -0.063438  0  4.008174  0
C  C95  1  0.37500405  0.83793469  0.13978535  1  0  -0.094675  0  3.793534  0  0  -0.069812  0  4.024604  0  0  -0.07953  0  4.049574  0  0  -0.025077  -0.063323  0  4.00764  0
C  C96  1  0.21174552  0.77443025  0.57562960  1  0  -0.067915  0  3.737405  0  0  -0.093983  0  3.986866  0  0  -0.093212  0  4.007329  0  0  -0.085138  -0.094394  0  3.973543  0
C  C97  1  0.71175628  0.22556585  0.92436950  1  0  -0.067972  0  3.737505  0  0  -0.094039  0  3.986979  0  0  -0.093266  0  4.007432  0  0  -0.085243  -0.094452  0  3.973655  0
C  C98  1  0.78822171  0.22558362  0.42436981  1  0  -0.068002  0  3.737526  0  0  -0.094136  0  3.987043  0  0  -0.093346  0  4.007515  0  0  -0.085296  -0.094545  0  3.973722  0
C  C99  1  0.28824854  0.77442343  0.07563363  1  0  -0.067851  0  3.737416  0  0  -0.093981  0  3.986919  0  0  -0.093196  0  4.007392  0  0  -0.085202  -0.094388  0  3.97359  0
C  C100  1  0.08812076  0.69545680  0.54779208  1  0  -0.085228  0  3.774066  0  0  -0.092408  0  4.018077  0  0  -0.09669  0  4.040535  0  0  -0.093056  -0.089588  0  4.002686  0
C  C101  1  0.58811915  0.30453505  0.95221621  1  0  -0.085174  0  3.773897  0  0  -0.092336  0  4.017914  0  0  -0.09662  0  4.040373  0  0  -0.093026  -0.089519  0  4.002533  0
C  C102  1  0.91186527  0.30455217  0.45220255  1  0  -0.085146  0  3.773981  0  0  -0.092398  0  4.018059  0  0  -0.096679  0  4.040507  0  0  -0.092987  -0.089584  0  4.002683  0
C  C103  1  0.41186516  0.69545580  0.04779627  1  0  -0.085157  0  3.773971  0  0  -0.092401  0  4.017985  0  0  -0.096682  0  4.040436  0  0  -0.093002  -0.089594  0  4.002613  0
C  C104  1  0.87661005  0.67959385  0.58339091  1  0  -0.058634  0  3.761663  0  0  -0.07358  0  4.006413  0  0  -0.073655  0  4.027673  0  0  -0.085624  -0.073274  0  3.991844  0
C  C105  1  0.37662610  0.32040699  0.91661648  1  0  -0.058597  0  3.761657  0  0  -0.073522  0  4.006414  0  0  -0.073597  0  4.027678  0  0  -0.085599  -0.07322  0  3.991857  0
C  C106  1  0.12337597  0.32041572  0.41660011  1  0  -0.058508  0  3.761561  0  0  -0.073475  0  4.006345  0  0  -0.073537  0  4.027594  0  0  -0.085679  -0.07317  0  3.991784  0
C  C107  1  0.62339581  0.67959132  0.08339182  1  0  -0.058723  0  3.761741  0  0  -0.073628  0  4.006516  0  0  -0.0737  0  4.027772  0  0  -0.085649  -0.073324  0  3.991958  0
C  C108  1  0.78837128  0.74297186  0.64668103  1  0  -0.071808  0  3.73354  0  0  -0.08174  0  3.979788  0  0  -0.085591  0  4.001673  0  0  -0.087925  -0.079255  0  3.965387  0
C  C109  1  0.28839424  0.25703329  0.85331517  1  0  -0.071991  0  3.733819  0  0  -0.081914  0  3.980059  0  0  -0.085776  0  4.001943  0  0  -0.088014  -0.07941  0  3.965666  0
C  C110  1  0.21160107  0.25703773  0.35331060  1  0  -0.071909  0  3.733988  0  0  -0.081849  0  3.980198  0  0  -0.085696  0  4.002074  0  0  -0.088012  -0.079352  0  3.965798  0
C  C111  1  0.71162426  0.74296753  0.14668296  1  0  -0.071871  0  3.733841  0  0  -0.081827  0  3.980078  0  0  -0.085676  0  4.001961  0  0  -0.087973  -0.079341  0  3.965697  0
C  C112  1  0.91172093  0.82219925  0.67444234  1  0  -0.064131  0  3.728771  0  0  -0.089541  0  3.975254  0  0  -0.089133  0  3.995707  0  0  -0.084898  -0.089458  0  3.961152  0
C  C113  1  0.41171353  0.17780556  0.82555403  1  0  -0.06406  0  3.728809  0  0  -0.089424  0  3.975277  0  0  -0.089019  0  3.995742  0  0  -0.084851  -0.089336  0  3.961148  0
C  C114  1  0.08824459  0.17781046  0.32555483  1  0  -0.06414  0  3.729047  0  0  -0.089492  0  3.975526  0  0  -0.089087  0  3.995984  0  0  -0.08486  -0.089405  0  3.961401  0
C  C115  1  0.58827762  0.82219405  0.17445134  1  0  -0.064131  0  3.728874  0  0  -0.08953  0  3.975368  0  0  -0.089123  0  3.995824  0  0  -0.084886  -0.089438  0  3.96124  0
N  N116  1  0.84830697  0.02139134  0.56456630  1  0  -0.278674  0  3.263656  0  0  -0.200653  0  3.538533  0  0  -0.215863  0  3.552443  0  0  -0.303671  -0.190345  0  3.529384  0
N  N117  1  0.34829857  0.97860516  0.93543435  1  0  -0.278773  0  3.263599  0  0  -0.200792  0  3.538403  0  0  -0.216003  0  3.552306  0  0  -0.303662  -0.190486  0  3.529259  0
N  N118  1  0.15172348  0.97862656  0.43546110  1  0  -0.278618  0  3.263348  0  0  -0.200773  0  3.538182  0  0  -0.215967  0  3.552095  0  0  -0.303693  -0.190479  0  3.529041  0
N  N119  1  0.65174385  0.02136250  0.06455132  1  0  -0.278225  0  3.263091  0  0  -0.200243  0  3.537818  0  0  -0.215437  0  3.551742  0  0  -0.303425  -0.189952  0  3.528675  0
O  O120  1  0.53473765  0.82655997  0.36929138  1  0  -0.666591  0  2.023717  0  0  -0.593261  0  2.293369  0  0  -0.623932  0  2.280011  0  0  -0.333038  -0.571606  0  2.301644  0
O  O121  1  0.03465786  0.17344047  0.13072322  1  0  -0.666601  0  2.023033  0  0  -0.593423  0  2.292901  0  0  -0.624097  0  2.279537  0  0  -0.333222  -0.571758  0  2.301186  0
O  O122  1  0.46528256  0.17344544  0.63072866  1  0  -0.666514  0  2.023515  0  0  -0.593273  0  2.293326  0  0  -0.623939  0  2.279958  0  0  -0.333155  -0.571611  0  2.301589  0
O  O123  1  0.96529912  0.82655476  0.86926945  1  0  -0.666567  0  2.023161  0  0  -0.593396  0  2.293039  0  0  -0.624067  0  2.279671  0  0  -0.333231  -0.571729  0  2.301299  0
O  O124  1  0.19344816  0.78251656  0.31506883  1  0  -0.614488  0  1.915789  0  0  -0.566013  0  2.136486  0  0  -0.589692  0  2.12857  0  0  -0.319493  -0.549346  0  2.141278  0
O  O125  1  0.69339387  0.21750669  0.18493497  1  0  -0.614392  0  1.916337  0  0  -0.565915  0  2.137019  0  0  -0.589584  0  2.129105  0  0  -0.319531  -0.549252  0  2.141824  0
O  O126  1  0.80654470  0.21749849  0.68495339  1  0  -0.614398  0  1.916103  0  0  -0.565936  0  2.136816  0  0  -0.589595  0  2.128896  0  0  -0.319408  -0.549251  0  2.141559  0
O  O127  1  0.30654602  0.78249373  0.81504412  1  0  -0.614336  0  1.916365  0  0  -0.565865  0  2.13705  0  0  -0.589518  0  2.129122  0  0  -0.319368  -0.549182  0  2.141796  0
O  O128  1  0.90567425  0.05175788  0.88213153  1  0  -0.638872  0  2.069057  0  0  -0.564263  0  2.337977  0  0  -0.594  0  2.325602  0  0  -0.312381  -0.543445  0  2.345873  0
O  O129  1  0.40566036  0.94824293  0.61787115  1  0  -0.638925  0  2.069518  0  0  -0.564259  0  2.338402  0  0  -0.593995  0  2.326028  0  0  -0.312383  -0.543438  0  2.346298  0
O  O130  1  0.09435279  0.94824380  0.11787465  1  0  -0.63888  0  2.069117  0  0  -0.564318  0  2.338043  0  0  -0.594056  0  2.325664  0  0  -0.312435  -0.543496  0  2.345935  0
O  O131  1  0.59434105  0.05176703  0.38213769  1  0  -0.63895  0  2.069521  0  0  -0.564273  0  2.33838  0  0  -0.594006  0  2.325997  0  0  -0.312442  -0.543461  0  2.34628  0
O  O132  1  0.71783623  0.02889316  0.76270376  1  0  -0.640308  0  2.123414  0  0  -0.565842  0  2.405502  0  0  -0.594777  0  2.387688  0  0  -0.313174  -0.545565  0  2.416844  0
O  O133  1  0.21783891  0.97110581  0.73730057  1  0  -0.640191  0  2.123043  0  0  -0.565804  0  2.40517  0  0  -0.594741  0  2.387362  0  0  -0.313153  -0.54553  0  2.416538  0
O  O134  1  0.28215322  0.97109499  0.23731029  1  0  -0.640034  0  2.123192  0  0  -0.565692  0  2.405285  0  0  -0.594626  0  2.387479  0  0  -0.313084  -0.545423  0  2.416646  0
O  O135  1  0.78213687  0.02889986  0.26269987  1  0  -0.640268  0  2.123237  0  0  -0.565769  0  2.405258  0  0  -0.594703  0  2.387442  0  0  -0.313164  -0.545518  0  2.416674  0
