# generated using pymatgen
data_KH7C8(NO2)4
_symmetry_space_group_name_H-M   'P 1'
_cell_length_a   6.84014794
_cell_length_b   11.91538478
_cell_length_c   14.54351712
_cell_angle_alpha   90.00017113
_cell_angle_beta   103.97324801
_cell_angle_gamma   90.00031889
_symmetry_Int_Tables_number   1
_chemical_formula_structural   KH7C8(NO2)4
_chemical_formula_sum   'K4 H28 C32 N16 O32'
_cell_volume   1150.26429473
_cell_formula_units_Z   4
loop_
 _symmetry_equiv_pos_site_id
 _symmetry_equiv_pos_as_xyz
  1  'x, y, z'
loop_
 _atom_site_type_symbol
 _atom_site_label
 _atom_site_symmetry_multiplicity
 _atom_site_fract_x
 _atom_site_fract_y
 _atom_site_fract_z
 _atom_site_occupancy
 _atom_site_hle17_bader_spin_density
 _atom_site_hle17_ddec_charge
 _atom_site_hle17_ddec_spin_density
 _atom_site_hle17_ddec_sum_bond_order
 _atom_site_hle17_magmom
 _atom_site_hse06_10hf_bader_spin_density
 _atom_site_hse06_10hf_ddec_charge
 _atom_site_hse06_10hf_ddec_spin_density
 _atom_site_hse06_10hf_ddec_sum_bond_order
 _atom_site_hse06_10hf_magmom
 _atom_site_hse06_bader_spin_density
 _atom_site_hse06_ddec_charge
 _atom_site_hse06_ddec_spin_density
 _atom_site_hse06_ddec_sum_bond_order
 _atom_site_hse06_magmom
 _atom_site_pbe_bader_spin_density
 _atom_site_pbe_cm5_charge
 _atom_site_pbe_ddec_charge
 _atom_site_pbe_ddec_spin_density
 _atom_site_pbe_ddec_sum_bond_order
 _atom_site_pbe_magmom
K  K0  1  0.18913071  0.13198653  0.76619667  1  0  0.939332  0  0.417769  0  0  0.901663  0  0.586551  0  0  0.914311  0  0.564584  0  0  0.74378  0.891545  0  0.602933  0
K  K1  1  0.31087168  0.63198310  0.73380784  1  0  0.93933  0  0.417773  0  0  0.901644  0  0.586569  0  0  0.914304  0  0.564595  0  0  0.743772  0.891539  0  0.602934  0
K  K2  1  0.81086921  0.86801482  0.23380603  1  0  0.939329  0  0.417764  0  0  0.901662  0  0.586548  0  0  0.914311  0  0.564579  0  0  0.743775  0.891551  0  0.602922  0
K  K3  1  0.68912374  0.36802243  0.26619711  1  0  0.939331  0  0.417789  0  0  0.901657  0  0.586575  0  0  0.914307  0  0.56461  0  0  0.743786  0.891548  0  0.60294  0
H  H4  1  0.61827005  0.54839900  0.61406028  1  0  0.340489  0  0.913847  0  0  0.315296  0  0.983627  0  0  0.325446  0  0.974951  0  0  0.316243  0.308171  0  0.989669  0
H  H5  1  0.88172906  0.04839844  0.88593880  1  0  0.340421  0  0.913942  0  0  0.315205  0  0.983748  0  0  0.325353  0  0.975076  0  0  0.316216  0.308079  0  0.98979  0
H  H6  1  0.38173134  0.45160066  0.38593915  1  0  0.340468  0  0.913855  0  0  0.315288  0  0.983633  0  0  0.325437  0  0.974957  0  0  0.316233  0.308163  0  0.989674  0
H  H7  1  0.11827233  0.95160038  0.11406063  1  0  0.340489  0  0.913859  0  0  0.31529  0  0.983637  0  0  0.325438  0  0.974962  0  0  0.316238  0.308164  0  0.989681  0
H  H8  1  0.09168196  0.36110661  0.57478260  1  0  0.353899  0  0.867765  0  0  0.329499  0  0.93555  0  0  0.339094  0  0.927127  0  0  0.331115  0.32269  0  0.941666  0
H  H9  1  0.40831552  0.86110420  0.92521780  1  0  0.353866  0  0.867794  0  0  0.32945  0  0.935587  0  0  0.339042  0  0.927166  0  0  0.331097  0.32264  0  0.941708  0
H  H10  1  0.90831793  0.63889389  0.42521735  1  0  0.353913  0  0.86778  0  0  0.329498  0  0.935574  0  0  0.339092  0  0.927148  0  0  0.331098  0.322687  0  0.941695  0
H  H11  1  0.59168588  0.13889546  0.07478300  1  0  0.353871  0  0.867758  0  0  0.329456  0  0.935552  0  0  0.339048  0  0.927133  0  0  0.331091  0.322646  0  0.941675  0
H  H12  1  0.19180351  0.96494946  0.48313188  1  0  0.337912  0  0.885911  0  0  0.31423  0  0.952922  0  0  0.324108  0  0.944489  0  0  0.320028  0.307299  0  0.958902  0
H  H13  1  0.30819275  0.46494732  0.01686436  1  0  0.337872  0  0.885899  0  0  0.314135  0  0.952991  0  0  0.324017  0  0.944549  0  0  0.319987  0.307202  0  0.958973  0
H  H14  1  0.80819637  0.03505188  0.51686807  1  0  0.337827  0  0.885924  0  0  0.314144  0  0.952943  0  0  0.324024  0  0.944507  0  0  0.319985  0.307213  0  0.958924  0
H  H15  1  0.69180562  0.53505150  0.98313473  1  0  0.33788  0  0.885891  0  0  0.314148  0  0.95297  0  0  0.324029  0  0.94453  0  0  0.319989  0.307215  0  0.958951  0
H  H16  1  0.23160171  0.21374558  0.29455557  1  0  0.333092  0  0.903734  0  0  0.308799  0  0.970764  0  0  0.318516  0  0.962129  0  0  0.318934  0.301949  0  0.976905  0
H  H17  1  0.26839919  0.71374192  0.20544195  1  0  0.333101  0  0.903735  0  0  0.30883  0  0.970752  0  0  0.318551  0  0.96211  0  0  0.318964  0.301989  0  0.976892  0
H  H18  1  0.76839517  0.78625409  0.70544405  1  0  0.333077  0  0.903738  0  0  0.308798  0  0.970758  0  0  0.318516  0  0.962122  0  0  0.318937  0.301951  0  0.976897  0
H  H19  1  0.73160371  0.28625691  0.79455765  1  0  0.333066  0  0.903786  0  0  0.308796  0  0.9708  0  0  0.318513  0  0.962166  0  0  0.31896  0.301948  0  0.976941  0
H  H20  1  0.58990139  0.14178610  0.67749543  1  0  0.383961  0  0.902433  0  0  0.356346  0  0.977741  0  0  0.368748  0  0.963715  0  0  0.301839  0.347642  0  0.987454  0
H  H21  1  0.91009579  0.64178668  0.82250434  1  0  0.383951  0  0.902461  0  0  0.356321  0  0.977797  0  0  0.368725  0  0.963763  0  0  0.301832  0.347614  0  0.987514  0
H  H22  1  0.41009999  0.85821440  0.32250400  1  0  0.383958  0  0.902437  0  0  0.356329  0  0.977767  0  0  0.368734  0  0.963737  0  0  0.301832  0.347623  0  0.987484  0
H  H23  1  0.08990108  0.35821299  0.17749458  1  0  0.383983  0  0.902434  0  0  0.356347  0  0.977772  0  0  0.368752  0  0.963738  0  0  0.301829  0.347639  0  0.987492  0
H  H24  1  0.32688760  0.38804902  0.78758374  1  0  0.40164  0  0.909982  0  0  0.376213  0  0.967421  0  0  0.385591  0  0.953514  0  0  0.282877  0.369635  0  0.977157  0
H  H25  1  0.17311169  0.88805011  0.71241624  1  0  0.401626  0  0.909991  0  0  0.376196  0  0.967432  0  0  0.385573  0  0.953526  0  0  0.282883  0.369618  0  0.977166  0
H  H26  1  0.67311378  0.61194981  0.21241500  1  0  0.401604  0  0.910044  0  0  0.376177  0  0.967483  0  0  0.385555  0  0.953576  0  0  0.282854  0.369599  0  0.977217  0
H  H27  1  0.82688518  0.11194955  0.28758268  1  0  0.401625  0  0.909999  0  0  0.3762  0  0.967429  0  0  0.385577  0  0.953524  0  0  0.282884  0.369623  0  0.977162  0
H  H28  1  0.14010974  0.41378694  0.82493290  1  0  0.41364  0  0.887147  0  0  0.385274  0  0.948624  0  0  0.394894  0  0.934431  0  0  0.284466  0.378419  0  0.958727  0
H  H29  1  0.35988984  0.91378598  0.67506649  1  0  0.41364  0  0.887147  0  0  0.385277  0  0.948619  0  0  0.394897  0  0.934425  0  0  0.284469  0.378422  0  0.95872  0
H  H30  1  0.85989164  0.58621272  0.17506653  1  0  0.413613  0  0.887182  0  0  0.385246  0  0.948662  0  0  0.394866  0  0.934468  0  0  0.284447  0.378391  0  0.958763  0
H  H31  1  0.64010703  0.08621369  0.32493243  1  0  0.413622  0  0.887171  0  0  0.38526  0  0.94864  0  0  0.394879  0  0.934448  0  0  0.284475  0.378406  0  0.958741  0
C  C32  1  0.54374814  0.37980589  0.59843922  1  0  0.564402  0  3.733566  0  0  0.513326  0  4.028778  0  0  0.542559  0  4.025615  0  0  0.26243  0.493257  0  4.031001  0
C  C33  1  0.95625481  0.87980607  0.90156042  1  0  0.564417  0  3.733944  0  0  0.513353  0  4.029133  0  0  0.542584  0  4.025971  0  0  0.262436  0.493284  0  4.031357  0
C  C34  1  0.45626078  0.62019377  0.40156105  1  0  0.56427  0  3.734078  0  0  0.513285  0  4.029127  0  0  0.542491  0  4.025978  0  0  0.262386  0.493216  0  4.031353  0
C  C35  1  0.04374808  0.12019276  0.09843918  1  0  0.564505  0  3.733659  0  0  0.513391  0  4.028833  0  0  0.542634  0  4.025663  0  0  0.262441  0.493323  0  4.031061  0
C  C36  1  0.87292176  0.46404374  0.60243221  1  0  0.787224  0  3.808608  0  0  0.719506  0  4.10886  0  0  0.755277  0  4.10332  0  0  0.361403  0.695168  0  4.11223  0
C  C37  1  0.62706711  0.96404872  0.89756674  1  0  0.787402  0  3.808819  0  0  0.719625  0  4.109093  0  0  0.755393  0  4.103552  0  0  0.361423  0.695284  0  4.112468  0
C  C38  1  0.12707361  0.53595257  0.39756723  1  0  0.787351  0  3.808718  0  0  0.719642  0  4.108923  0  0  0.755409  0  4.10338  0  0  0.361427  0.695302  0  4.112297  0
C  C39  1  0.37292674  0.03595346  0.10243116  1  0  0.787289  0  3.808598  0  0  0.719519  0  4.108862  0  0  0.755283  0  4.103332  0  0  0.361416  0.695182  0  4.112233  0
C  C40  1  0.83551076  0.26413147  0.56230350  1  0  0.55997  0  3.713505  0  0  0.508537  0  4.009538  0  0  0.538546  0  4.005449  0  0  0.26441  0.488028  0  4.012175  0
C  C41  1  0.66448335  0.76412665  0.93769898  1  0  0.560013  0  3.713766  0  0  0.508569  0  4.009777  0  0  0.53858  0  4.005687  0  0  0.264357  0.488062  0  4.012411  0
C  C42  1  0.16448611  0.73587071  0.43769611  1  0  0.559954  0  3.713695  0  0  0.50845  0  4.009737  0  0  0.538445  0  4.005658  0  0  0.264296  0.487941  0  4.012378  0
C  C43  1  0.33551655  0.23587218  0.06230234  1  0  0.559999  0  3.713684  0  0  0.508537  0  4.009699  0  0  0.538547  0  4.00561  0  0  0.264336  0.48803  0  4.012337  0
C  C44  1  0.38510998  0.09659606  0.54449213  1  0  0.578917  0  3.868638  0  0  0.521411  0  4.171455  0  0  0.552886  0  4.173404  0  0  0.213647  0.500399  0  4.169352  0
C  C45  1  0.11488591  0.59659617  0.95550538  1  0  0.578828  0  3.868368  0  0  0.521249  0  4.171271  0  0  0.552719  0  4.173219  0  0  0.213577  0.500234  0  4.169168  0
C  C46  1  0.61488690  0.90340529  0.45550748  1  0  0.578816  0  3.868701  0  0  0.521307  0  4.171514  0  0  0.552782  0  4.173467  0  0  0.213648  0.50028  0  4.169408  0
C  C47  1  0.88511397  0.40340349  0.04449389  1  0  0.578802  0  3.868433  0  0  0.5212  0  4.171346  0  0  0.55267  0  4.173295  0  0  0.213562  0.500177  0  4.169241  0
C  C48  1  0.18738336  0.08275031  0.38076103  1  0  0.777406  0  3.819222  0  0  0.705307  0  4.121827  0  0  0.741562  0  4.114217  0  0  0.351139  0.680901  0  4.126278  0
C  C49  1  0.31260388  0.58275655  0.11922708  1  0  0.776881  0  3.819561  0  0  0.704983  0  4.121928  0  0  0.741238  0  4.114316  0  0  0.350828  0.680593  0  4.126372  0
C  C50  1  0.81261501  0.91724935  0.61923738  1  0  0.777192  0  3.819504  0  0  0.705174  0  4.122017  0  0  0.74143  0  4.114405  0  0  0.351006  0.680772  0  4.126465  0
C  C51  1  0.68739900  0.41724227  0.88077183  1  0  0.77694  0  3.819677  0  0  0.705016  0  4.122063  0  0  0.741273  0  4.114448  0  0  0.350815  0.680612  0  4.126515  0
C  C52  1  0.42086970  0.23819015  0.42833113  1  0  0.59693  0  3.878526  0  0  0.543858  0  4.169188  0  0  0.57566  0  4.169524  0  0  0.219091  0.522585  0  4.168142  0
C  C53  1  0.07913147  0.73819043  0.07166579  1  0  0.596782  0  3.878477  0  0  0.543742  0  4.169138  0  0  0.575544  0  4.169468  0  0  0.219038  0.522483  0  4.168091  0
C  C54  1  0.57912717  0.76181119  0.57166849  1  0  0.596985  0  3.878512  0  0  0.543896  0  4.169199  0  0  0.575702  0  4.169529  0  0  0.21907  0.522615  0  4.168149  0
C  C55  1  0.92087292  0.26180923  0.92833260  1  0  0.596683  0  3.878619  0  0  0.543627  0  4.169257  0  0  0.575431  0  4.169587  0  0  0.219005  0.522347  0  4.168211  0
C  C56  1  0.63024042  0.26123242  0.59023349  1  0  0.126482  0  3.660972  0  0  0.11625  0  3.902158  0  0  0.119635  0  3.910498  0  0  0.086289  0.113744  0  3.896793  0
C  C57  1  0.86975665  0.76123151  0.90976657  1  0  0.12647  0  3.661014  0  0  0.116187  0  3.902241  0  0  0.119574  0  3.910575  0  0  0.086233  0.113677  0  3.896877  0
C  C58  1  0.36975946  0.73876892  0.40976577  1  0  0.126369  0  3.661058  0  0  0.116266  0  3.901899  0  0  0.119689  0  3.910228  0  0  0.086257  0.113744  0  3.896537  0
C  C59  1  0.13024324  0.23876732  0.09023338  1  0  0.126358  0  3.661198  0  0  0.116164  0  3.902252  0  0  0.119547  0  3.910588  0  0  0.086249  0.113647  0  3.896884  0
C  C60  1  0.47718329  0.19389474  0.52053351  1  0  -0.41221  0  3.796349  0  0  -0.409316  0  4.070103  0  0  -0.43299  0  4.092876  0  0  -0.075589  -0.39377  0  4.054728  0
C  C61  1  0.02281673  0.69389465  0.97946332  1  0  -0.41214  0  3.796263  0  0  -0.409226  0  4.070085  0  0  -0.432889  0  4.092847  0  0  -0.075516  -0.393669  0  4.054693  0
C  C62  1  0.52281360  0.80610577  0.47946748  1  0  -0.412099  0  3.796294  0  0  -0.409173  0  4.069904  0  0  -0.432856  0  4.092671  0  0  -0.075505  -0.393584  0  4.05448  0
C  C63  1  0.97718766  0.30610669  0.02053576  1  0  -0.412076  0  3.796341  0  0  -0.409131  0  4.070051  0  0  -0.432798  0  4.092816  0  0  -0.075524  -0.393553  0  4.054635  0
N  N64  1  0.67529152  0.46761193  0.60927543  1  0  -0.527252  0  3.269795  0  0  -0.468033  0  3.512293  0  0  -0.495147  0  3.514655  0  0  -0.383692  -0.449571  0  3.510515  0
N  N65  1  0.82470493  0.96760997  0.89072507  1  0  -0.527316  0  3.269827  0  0  -0.468069  0  3.512355  0  0  -0.495184  0  3.51472  0  0  -0.383685  -0.4496  0  3.510569  0
N  N66  1  0.32470836  0.53238857  0.39072384  1  0  -0.527202  0  3.269709  0  0  -0.468092  0  3.512243  0  0  -0.495198  0  3.514614  0  0  -0.383687  -0.449625  0  3.510457  0
N  N67  1  0.17529646  0.03238802  0.10927504  1  0  -0.52733  0  3.26976  0  0  -0.468054  0  3.512221  0  0  -0.495171  0  3.514586  0  0  -0.383722  -0.449596  0  3.510448  0
N  N68  1  0.94285320  0.36192457  0.57858422  1  0  -0.5218  0  3.277554  0  0  -0.46291  0  3.52157  0  0  -0.4891  0  3.522387  0  0  -0.376665  -0.445019  0  3.520663  0
N  N69  1  0.55714504  0.86192102  0.92141622  1  0  -0.521982  0  3.277529  0  0  -0.463017  0  3.521487  0  0  -0.489202  0  3.522301  0  0  -0.3767  -0.445128  0  3.520581  0
N  N70  1  0.05714820  0.63807677  0.42141590  1  0  -0.521968  0  3.277626  0  0  -0.463021  0  3.521588  0  0  -0.489209  0  3.52242  0  0  -0.376668  -0.445129  0  3.52068  0
N  N71  1  0.44285635  0.13807780  0.07858390  1  0  -0.521907  0  3.277497  0  0  -0.462976  0  3.521486  0  0  -0.489157  0  3.522302  0  0  -0.376691  -0.445087  0  3.520581  0
N  N72  1  0.24661648  0.04343250  0.47186101  1  0  -0.52047  0  3.261384  0  0  -0.456456  0  3.505701  0  0  -0.481547  0  3.507162  0  0  -0.385944  -0.439581  0  3.504354  0
N  N73  1  0.25338092  0.54343066  0.02813432  1  0  -0.520137  0  3.261576  0  0  -0.456111  0  3.505868  0  0  -0.481201  0  3.507331  0  0  -0.385786  -0.439237  0  3.504514  0
N  N74  1  0.75338191  0.95656716  0.52813946  1  0  -0.520185  0  3.261331  0  0  -0.456209  0  3.505619  0  0  -0.481302  0  3.507087  0  0  -0.38585  -0.439334  0  3.504271  0
N  N75  1  0.74661896  0.45656900  0.97186426  1  0  -0.520147  0  3.261639  0  0  -0.45611  0  3.505923  0  0  -0.481201  0  3.507387  0  0  -0.385762  -0.439236  0  3.504576  0
N  N76  1  0.27461692  0.18103848  0.36246113  1  0  -0.520782  0  3.249415  0  0  -0.453  0  3.485554  0  0  -0.477457  0  3.485663  0  0  -0.385464  -0.436512  0  3.485108  0
N  N77  1  0.22538810  0.68103863  0.13753538  1  0  -0.520348  0  3.249525  0  0  -0.452724  0  3.485677  0  0  -0.477177  0  3.485781  0  0  -0.385287  -0.43629  0  3.485271  0
N  N78  1  0.72538147  0.81896119  0.63753934  1  0  -0.520646  0  3.249414  0  0  -0.452934  0  3.485569  0  0  -0.477391  0  3.485674  0  0  -0.385402  -0.436461  0  3.485136  0
N  N79  1  0.77461629  0.31896272  0.86246369  1  0  -0.520369  0  3.249704  0  0  -0.452731  0  3.485846  0  0  -0.477186  0  3.485954  0  0  -0.385295  -0.436257  0  3.485412  0
O  O80  1  0.36644179  0.39432718  0.60056949  1  0  -0.510566  0  1.960498  0  0  -0.474059  0  2.191161  0  0  -0.492337  0  2.183315  0  0  -0.264581  -0.461712  0  2.196627  0
O  O81  1  0.13355155  0.89432715  0.89943053  1  0  -0.510491  0  1.960867  0  0  -0.474004  0  2.191564  0  0  -0.492281  0  2.18372  0  0  -0.264542  -0.461646  0  2.197009  0
O  O82  1  0.63355512  0.60567333  0.39943357  1  0  -0.510419  0  1.960946  0  0  -0.473975  0  2.191618  0  0  -0.492243  0  2.183781  0  0  -0.264482  -0.461623  0  2.197074  0
O  O83  1  0.86644533  0.10567000  0.10056977  1  0  -0.510552  0  1.96059  0  0  -0.474054  0  2.191316  0  0  -0.492329  0  2.18345  0  0  -0.264539  -0.461682  0  2.196733  0
O  O84  1  0.97888786  0.54893502  0.61533452  1  0  -0.593083  0  1.867421  0  0  -0.560798  0  2.093556  0  0  -0.580996  0  2.08385  0  0  -0.357504  -0.546968  0  2.100069  0
O  O85  1  0.52111429  0.04892911  0.88466833  1  0  -0.592977  0  1.867806  0  0  -0.560678  0  2.09396  0  0  -0.580873  0  2.084251  0  0  -0.357418  -0.546851  0  2.100481  0
O  O86  1  0.02111656  0.45106884  0.38466800  1  0  -0.593079  0  1.867713  0  0  -0.560793  0  2.09384  0  0  -0.580987  0  2.084128  0  0  -0.357495  -0.546966  0  2.100361  0
O  O87  1  0.47889013  0.95106720  0.11533350  1  0  -0.593019  0  1.86748  0  0  -0.560722  0  2.093629  0  0  -0.580918  0  2.083925  0  0  -0.357463  -0.546897  0  2.100151  0
O  O88  1  0.90941698  0.17934452  0.53533586  1  0  -0.503726  0  1.954094  0  0  -0.46685  0  2.177499  0  0  -0.485865  0  2.170072  0  0  -0.26369  -0.454051  0  2.18252  0
O  O89  1  0.59058067  0.67934543  0.96466750  1  0  -0.503719  0  1.95431  0  0  -0.466825  0  2.177709  0  0  -0.485839  0  2.17028  0  0  -0.263625  -0.454028  0  2.18273  0
O  O90  1  0.09057989  0.82065515  0.46466375  1  0  -0.503662  0  1.954239  0  0  -0.466787  0  2.177663  0  0  -0.4858  0  2.170244  0  0  -0.263605  -0.453988  0  2.182683  0
O  O91  1  0.40942226  0.32065423  0.03533554  1  0  -0.503678  0  1.954291  0  0  -0.466791  0  2.1777  0  0  -0.485806  0  2.170272  0  0  -0.263591  -0.453994  0  2.182722  0
O  O92  1  0.42255250  0.05347890  0.62795444  1  0  -0.640631  0  1.975354  0  0  -0.586539  0  2.202905  0  0  -0.609981  0  2.193566  0  0  -0.341514  -0.569908  0  2.208549  0
O  O93  1  0.07743683  0.55347776  0.87203880  1  0  -0.640613  0  1.975047  0  0  -0.586464  0  2.202569  0  0  -0.609921  0  2.193272  0  0  -0.341447  -0.569834  0  2.208218  0
O  O94  1  0.57744588  0.94652076  0.37204604  1  0  -0.640582  0  1.975395  0  0  -0.586499  0  2.202953  0  0  -0.609935  0  2.193606  0  0  -0.341501  -0.569873  0  2.208612  0
O  O95  1  0.92256004  0.44652107  0.12796013  1  0  -0.640596  0  1.975089  0  0  -0.586451  0  2.202628  0  0  -0.609901  0  2.193316  0  0  -0.341429  -0.569819  0  2.208278  0
O  O96  1  0.06058963  0.03270377  0.31792710  1  0  -0.668165  0  1.945318  0  0  -0.629186  0  2.187507  0  0  -0.64908  0  2.175027  0  0  -0.384752  -0.615175  0  2.195639  0
O  O97  1  0.43941969  0.53269974  0.18206954  1  0  -0.668191  0  1.944918  0  0  -0.62923  0  2.18694  0  0  -0.64914  0  2.174493  0  0  -0.384747  -0.615211  0  2.195062  0
O  O98  1  0.93941025  0.96729673  0.68207216  1  0  -0.668231  0  1.945473  0  0  -0.629258  0  2.187598  0  0  -0.649158  0  2.175134  0  0  -0.38476  -0.615243  0  2.195728  0
O  O99  1  0.56058168  0.46729909  0.81792852  1  0  -0.668212  0  1.944958  0  0  -0.629245  0  2.186986  0  0  -0.649158  0  2.17454  0  0  -0.384732  -0.615227  0  2.195117  0
O  O100  1  0.49791433  0.32709546  0.40399805  1  0  -0.643631  0  1.982501  0  0  -0.597181  0  2.223048  0  0  -0.619298  0  2.212969  0  0  -0.387233  -0.581102  0  2.229041  0
O  O101  1  0.00208789  0.82709642  0.09600127  1  0  -0.643629  0  1.982463  0  0  -0.597174  0  2.22298  0  0  -0.619301  0  2.212923  0  0  -0.38722  -0.581094  0  2.228968  0
O  O102  1  0.50208255  0.67290420  0.59600225  1  0  -0.643686  0  1.982413  0  0  -0.597229  0  2.222962  0  0  -0.61935  0  2.212882  0  0  -0.387245  -0.581151  0  2.228957  0
O  O103  1  0.99791650  0.17290492  0.90399781  1  0  -0.643569  0  1.982578  0  0  -0.597098  0  2.223093  0  0  -0.619221  0  2.213026  0  0  -0.387213  -0.581019  0  2.229089  0
O  O104  1  0.67478351  0.21311420  0.68363443  1  0  -0.554733  0  2.015321  0  0  -0.509844  0  2.22911  0  0  -0.524425  0  2.214426  0  0  -0.366263  -0.499208  0  2.238998  0
O  O105  1  0.82521300  0.71311364  0.81636545  1  0  -0.55479  0  2.015362  0  0  -0.509868  0  2.229158  0  0  -0.524457  0  2.214479  0  0  -0.3663  -0.499232  0  2.239048  0
O  O106  1  0.32521337  0.78688630  0.31636518  1  0  -0.554745  0  2.015386  0  0  -0.509866  0  2.229105  0  0  -0.524473  0  2.214428  0  0  -0.366274  -0.499228  0  2.238998  0
O  O107  1  0.17478840  0.28688686  0.18363467  1  0  -0.554769  0  2.015364  0  0  -0.50986  0  2.229121  0  0  -0.524451  0  2.214445  0  0  -0.366259  -0.499224  0  2.239014  0
O  O108  1  0.19222359  0.35819412  0.78682342  1  0  -0.878275  0  1.776064  0  0  -0.841407  0  1.931101  0  0  -0.858662  0  1.904325  0  0  -0.684846  -0.828927  0  1.949818  0
O  O109  1  0.30777686  0.85819397  0.71317662  1  0  -0.878245  0  1.776065  0  0  -0.84135  0  1.931084  0  0  -0.858608  0  1.904307  0  0  -0.684818  -0.828874  0  1.949797  0
O  O110  1  0.80777629  0.64180470  0.21317653  1  0  -0.878219  0  1.776156  0  0  -0.841344  0  1.931182  0  0  -0.858598  0  1.904402  0  0  -0.684795  -0.828866  0  1.949897  0
O  O111  1  0.69222153  0.14180653  0.28682385  1  0  -0.878215  0  1.776079  0  0  -0.841326  0  1.931101  0  0  -0.858583  0  1.904321  0  0  -0.68481  -0.82885  0  1.949814  0
