# generated using pymatgen
data_Al3FeP4H8C6(NO4)4
_symmetry_space_group_name_H-M   'P 1'
_cell_length_a   8.65151440
_cell_length_b   8.97559689
_cell_length_c   13.97890135
_cell_angle_alpha   93.01296243
_cell_angle_beta   91.92903562
_cell_angle_gamma   116.42422171
_symmetry_Int_Tables_number   1
_chemical_formula_structural   Al3FeP4H8C6(NO4)4
_chemical_formula_sum   'Al6 Fe2 P8 H16 C12 N8 O32'
_cell_volume   968.76681742
_cell_formula_units_Z   2
loop_
 _symmetry_equiv_pos_site_id
 _symmetry_equiv_pos_as_xyz
  1  'x, y, z'
loop_
 _atom_site_type_symbol
 _atom_site_label
 _atom_site_symmetry_multiplicity
 _atom_site_fract_x
 _atom_site_fract_y
 _atom_site_fract_z
 _atom_site_occupancy
 _atom_site_hle17_ddec_charge
 _atom_site_hle17_ddec_spin_density
 _atom_site_hle17_ddec_sum_bond_order
 _atom_site_hle17_magmom
 _atom_site_hse06_10hf_ddec_charge
 _atom_site_hse06_10hf_ddec_spin_density
 _atom_site_hse06_10hf_ddec_sum_bond_order
 _atom_site_hse06_10hf_magmom
 _atom_site_hse06_ddec_charge
 _atom_site_hse06_ddec_spin_density
 _atom_site_hse06_ddec_sum_bond_order
 _atom_site_hse06_magmom
 _atom_site_pbe_cm5_charge
 _atom_site_pbe_ddec_charge
 _atom_site_pbe_ddec_spin_density
 _atom_site_pbe_ddec_sum_bond_order
 _atom_site_pbe_magmom
Al  Al0  1  0.13894335  0.42483888  0.40876957  1  1.920701  1.3e-05  2.140488  0.0  1.749715  -0.000121  2.522303  0.0  1.784779  -8.5e-05  2.471333  0.0  0.531617  1.724755  -0.000183  2.557414  0.0
Al  Al1  1  0.86105815  0.57516179  0.59122853  1  1.92072  1.3e-05  2.140514  0.0  1.749756  -0.000121  2.522272  0.0  1.784813  -8.5e-05  2.4713  0.0  0.531626  1.724795  -0.000183  2.557393  0.0
Al  Al2  1  0.80986456  0.79033830  0.24819671  1  1.925966  4.4e-05  2.114122  0.0  1.752804  5.8e-05  2.496877  0.0  1.787901  6.2e-05  2.446629  0.0  0.539483  1.727488  4e-05  2.532301  0.0
Al  Al3  1  0.19013405  0.20966113  0.75180201  1  1.925945  4.4e-05  2.114149  0.0  1.752786  5.9e-05  2.496906  0.0  1.787885  6.3e-05  2.446655  0.0  0.539478  1.727466  4e-05  2.532331  0.0
Al  Al4  1  0.86890726  0.52166377  0.86833056  1  1.942434  3.7e-05  2.131666  0.0  1.768959  6.1e-05  2.518821  0.0  1.803806  6.8e-05  2.467766  0.0  0.529838  1.743949  3e-05  2.554554  0.0
Al  Al5  1  0.13109250  0.47833565  0.13166819  1  1.942502  3.7e-05  2.131591  0.0  1.769068  6.1e-05  2.518684  0.0  1.803908  6.8e-05  2.467637  0.0  0.529861  1.744066  3e-05  2.55439  0.0
Fe  Fe6  1  0.58843808  0.27436055  0.22980532  1  1.116542  -1.158196  2.681948  -1.074  1.13052  -1.045775  3.109318  -0.977  1.241279  -1.069352  3.022743  -1.011  0.855582  1.05747  -1.022457  3.168366  -0.941
Fe  Fe7  1  0.41156169  0.72563889  0.77019486  1  1.116594  -1.158199  2.681887  -1.074  1.130553  -1.045777  3.109246  -0.977  1.241283  -1.069351  3.022689  -1.011  0.855576  1.057476  -1.022458  3.168297  -0.941
P  P8  1  0.90723193  0.59693318  0.37388165  1  1.876294  0.001219  4.868454  0.001  1.681969  0.000741  5.394503  0.001  1.744806  0.000757  5.328939  0.001  0.506967  1.63816  0.000759  5.439443  0.001
P  P9  1  0.09277247  0.40306874  0.62611726  1  1.876337  0.001219  4.868486  0.001  1.682013  0.000741  5.394522  0.001  1.744848  0.000757  5.328957  0.001  0.506951  1.638203  0.000759  5.439473  0.001
P  P10  1  0.89320933  0.17001844  0.25040365  1  1.94816  0.000578  4.73306  0.0  1.749472  -7.7e-05  5.266108  0.0  1.812103  0.000251  5.205319  0.0  0.523442  1.705479  -0.000387  5.307389  0.0
P  P11  1  0.10679044  0.82998100  0.74959653  1  1.948165  0.00058  4.732978  0.0  1.74948  -7.9e-05  5.266017  0.0  1.812112  0.000253  5.205228  0.0  0.523441  1.705487  -0.000387  5.30729  0.0
P  P12  1  0.82271269  0.54696139  0.09001183  1  1.922524  0.000108  4.751396  -0.001  1.723202  0.000376  5.28269  0.0  1.78473  0.000817  5.222288  0.001  0.518137  1.680207  7.4e-05  5.323899  0.0
P  P13  1  0.17728418  0.45303430  0.90998746  1  1.922333  0.000108  4.751635  -0.001  1.722979  0.000375  5.28296  0.0  1.784506  0.000818  5.222556  0.001  0.518028  1.679971  7.4e-05  5.324182  0.0
P  P14  1  0.43539824  0.54649790  0.27122811  1  1.888672  -1.5e-05  4.782144  -0.002  1.693945  0.000988  5.312075  0.0  1.757045  0.001646  5.250524  0.001  0.51737  1.649485  0.00051  5.354373  0.0
P  P15  1  0.56460268  0.45350152  0.72877065  1  1.888694  -1.6e-05  4.782076  -0.002  1.69398  0.00099  5.311991  0.0  1.757077  0.001645  5.250441  0.001  0.517403  1.649522  0.000509  5.35428  0.0
H  H16  1  0.29901359  0.78568217  0.98979169  1  0.311943  0.000347  0.899139  0.0  0.293893  0.000233  0.956566  0.0  0.302516  0.000214  0.949911  0.0  0.325832  0.287653  0.000234  0.961536  0.0
H  H17  1  0.70098907  0.21431355  0.01021058  1  0.311931  0.000347  0.899176  0.0  0.293902  0.000233  0.956559  0.0  0.302525  0.000214  0.949907  0.0  0.325874  0.287668  0.000234  0.961523  0.0
H  H18  1  0.39548210  0.19691143  0.56281370  1  0.317172  0.000375  0.881439  0.0  0.299704  0.000147  0.935878  0.0  0.306719  0.000141  0.931091  0.0  0.331765  0.294593  0.000145  0.939571  0.0
H  H19  1  0.60451594  0.80309175  0.43718583  1  0.317201  0.000375  0.881406  0.0  0.299731  0.000147  0.935847  0.0  0.306746  0.000141  0.93106  0.0  0.331779  0.294615  0.000145  0.939543  0.0
H  H20  1  0.27147635  0.22421617  0.09203944  1  0.126131  0.000102  0.962627  0.0  0.132643  0.000165  1.023048  0.0  0.135731  0.000163  1.020831  0.0  0.129029  0.130104  0.000162  1.025076  0.0
H  H21  1  0.72852226  0.77578077  0.90795992  1  0.126098  0.000102  0.962642  0.0  0.132606  0.000165  1.023075  0.0  0.135695  0.000163  1.020857  0.0  0.129006  0.130069  0.000162  1.025105  0.0
H  H22  1  0.13323586  0.95437946  0.95558202  1  0.121006  0.000447  0.964014  0.0  0.129895  0.00012  1.023501  0.0  0.13271  0.000116  1.022465  0.0  0.130078  0.127644  0.000114  1.024664  0.0
H  H23  1  0.86676332  0.04561374  0.04441796  1  0.120925  0.000447  0.964149  0.0  0.129836  0.00012  1.023602  0.0  0.132649  0.000116  1.022571  0.0  0.130065  0.127585  0.000114  1.024764  0.0
H  H24  1  0.50181781  0.90556919  0.14199858  1  0.109183  0.000147  0.937455  0.0  0.117417  0.00014  0.998824  0.0  0.120674  0.000138  0.994548  0.0  0.146599  0.114684  0.000142  1.00234  0.0
H  H25  1  0.49818487  0.09443404  0.85800463  1  0.109153  0.000146  0.937515  0.0  0.11738  0.00014  0.998895  0.0  0.120638  0.000138  0.994618  0.0  0.146593  0.114654  0.000142  1.002409  0.0
H  H26  1  0.57502988  0.39509906  0.44293048  1  0.104304  0.000631  0.97735  0.001  0.110255  0.000211  1.042745  0.0  0.112486  0.000228  1.039683  0.0  0.147771  0.108291  0.000207  1.045376  0.0
H  H27  1  0.42497048  0.60490413  0.55706981  1  0.104288  0.000632  0.977437  0.001  0.11025  0.000211  1.042815  0.0  0.11248  0.000228  1.039756  0.0  0.147776  0.10829  0.000207  1.04544  0.0
H  H28  1  0.22416877  0.89713423  0.48669925  1  0.123105  0.000536  0.947221  0.001  0.133282  0.000223  1.004399  0.0  0.13577  0.000251  1.003157  0.0  0.130745  0.131281  0.000203  1.00558  0.0
H  H29  1  0.77582870  0.10287020  0.51330030  1  0.123108  0.000536  0.947179  0.001  0.13328  0.000223  1.004365  0.0  0.135768  0.000251  1.003124  0.0  0.130736  0.13128  0.000203  1.005547  0.0
H  H30  1  0.31060089  0.91573406  0.29687923  1  0.123782  0.000142  0.939355  0.0  0.131707  0.000185  0.997887  0.0  0.133734  0.000147  0.996941  0.0  0.12998  0.130103  0.000212  0.998882  0.0
H  H31  1  0.68939716  0.08426914  0.70312173  1  0.123766  0.000142  0.939314  0.0  0.131709  0.000185  0.997826  0.0  0.133737  0.000147  0.99688  0.0  0.129965  0.130105  0.000212  0.998822  0.0
C  C32  1  0.29601892  0.11664461  0.08308494  1  0.015436  0.003245  3.655183  0.002  -0.016551  0.000705  3.924222  0.0  -0.011651  0.000391  3.941516  0.0  0.010083  -0.020216  0.001059  3.913821  0.0
C  C33  1  0.70397738  0.88334986  0.91691573  1  0.015548  0.003243  3.655152  0.002  -0.016461  0.000705  3.924164  0.0  -0.011562  0.000391  3.941459  0.0  0.010162  -0.020128  0.00106  3.913764  0.0
C  C34  1  0.22833843  0.98455323  0.01493822  1  -0.008493  0.00326  3.663315  0.002  -0.048529  0.001014  3.928596  0.001  -0.047069  0.001209  3.945378  0.001  0.008826  -0.049826  0.000854  3.918317  0.001
C  C35  1  0.77166193  0.01544498  0.98506336  1  -0.008426  0.003261  3.663386  0.002  -0.048482  0.001014  3.928671  0.001  -0.047022  0.001209  3.94545  0.001  0.008839  -0.049776  0.000855  3.918391  0.001
C  C36  1  0.41995551  0.95549806  0.11150151  1  0.221048  -0.000437  3.600957  -0.001  0.159364  0.001835  3.88397  0.001  0.178115  0.001046  3.892166  0.0  0.152163  0.146584  0.002914  3.879271  0.002
C  C37  1  0.58004602  0.04450268  0.88850232  1  0.221105  -0.000433  3.60076  -0.001  0.15939  0.001834  3.883763  0.001  0.178139  0.001046  3.891954  0.0  0.152195  0.146604  0.002914  3.879073  0.002
C  C38  1  0.49312378  0.26328586  0.42764379  1  0.227744  -0.007551  3.60814  -0.011  0.165872  -0.005154  3.887503  -0.007  0.182209  -0.004962  3.900269  -0.007  0.156981  0.155052  -0.005808  3.879516  -0.008
C  C39  1  0.50687599  0.73671608  0.57235574  1  0.227759  -0.007552  3.608266  -0.011  0.165872  -0.005155  3.887626  -0.007  0.18221  -0.004962  3.90039  -0.007  0.156975  0.155036  -0.005809  3.879634  -0.008
C  C40  1  0.30965857  0.00143403  0.44857579  1  0.010167  -0.002592  3.646952  -0.004  -0.032515  -0.000919  3.912379  -0.002  -0.031082  5.2e-05  3.930012  -0.001  0.012645  -0.033284  -0.001896  3.900779  -0.003
C  C41  1  0.69033774  0.99856792  0.55142438  1  0.010195  -0.002591  3.647052  -0.004  -0.032485  -0.000919  3.91248  -0.002  -0.031054  5.1e-05  3.930115  -0.001  0.012631  -0.033266  -0.001897  3.900879  -0.003
C  C42  1  0.35414676  0.01236388  0.35496021  1  0.016889  0.006307  3.652199  0.004  -0.015056  0.002553  3.924792  0.001  -0.009983  0.002478  3.943791  0.001  0.011948  -0.018699  0.002806  3.91275  0.002
C  C43  1  0.64585127  0.98763929  0.64503861  1  0.016843  0.006302  3.652237  0.004  -0.015116  0.002553  3.924814  0.001  -0.010042  0.002477  3.943813  0.001  0.011951  -0.01876  0.002806  3.91277  0.002
N  N44  1  0.41565065  0.09726022  0.14282841  1  -0.292839  0.047376  3.284835  0.04  -0.260998  0.022352  3.588436  0.018  -0.29193  0.024225  3.605578  0.021  -0.354826  -0.241702  0.020199  3.578599  0.016
N  N45  1  0.58434739  0.90273801  0.85717384  1  -0.292995  0.047373  3.284884  0.04  -0.261058  0.022352  3.588406  0.018  -0.291982  0.024226  3.605542  0.021  -0.354868  -0.241759  0.020199  3.578569  0.016
N  N46  1  0.30765854  0.88498375  0.03420376  1  -0.27443  0.00109  3.469281  0.001  -0.209293  0.000883  3.710388  0.001  -0.224371  0.000746  3.722454  0.0  -0.371212  -0.199597  0.001135  3.702995  0.001
N  N47  1  0.69234413  0.11501447  0.96579858  1  -0.274414  0.001087  3.469281  0.001  -0.209298  0.000883  3.710416  0.001  -0.224373  0.000745  3.722482  0.0  -0.371292  -0.19961  0.001136  3.703032  0.001
N  N48  1  0.46872834  0.17656901  0.34292345  1  -0.303885  0.04238  3.301617  0.037  -0.269149  0.021801  3.601696  0.02  -0.30283  0.027322  3.624488  0.025  -0.351412  -0.248008  0.017045  3.587932  0.016
N  N49  1  0.53126913  0.82343293  0.65707675  1  -0.303873  0.042378  3.301587  0.037  -0.269125  0.0218  3.601665  0.02  -0.302802  0.027322  3.624452  0.025  -0.351408  -0.247974  0.017043  3.58789  0.016
N  N50  1  0.39840735  0.16035296  0.49256645  1  -0.271031  0.001478  3.452706  0.001  -0.203418  -0.000899  3.693291  -0.001  -0.218566  -0.00059  3.707488  -0.001  -0.366455  -0.193634  -0.001132  3.68412  -0.002
N  N51  1  0.60158896  0.83964899  0.50743372  1  -0.271039  0.001477  3.452704  0.001  -0.203431  -0.0009  3.693303  -0.001  -0.218578  -0.00059  3.7075  -0.001  -0.366445  -0.193626  -0.001132  3.684117  -0.002
O  O52  1  0.70411856  0.13744851  0.23811529  1  -0.820495  0.011164  2.045677  0.005  -0.774008  -0.001406  2.341557  -0.006  -0.818677  0.00497  2.324108  0.002  -0.341436  -0.74205  -0.007323  2.352349  -0.014
O  O53  1  0.29588182  0.86255223  0.76188851  1  -0.820505  0.011165  2.045588  0.005  -0.774027  -0.001404  2.341481  -0.006  -0.818694  0.004971  2.32403  0.002  -0.341416  -0.74207  -0.007321  2.352274  -0.014
O  O54  1  0.46198607  0.40619886  0.22107273  1  -0.840263  0.015835  2.079545  0.013  -0.788785  -0.00233  2.371713  -0.005  -0.830594  0.000935  2.350894  -0.001  -0.335054  -0.759162  -0.005727  2.385312  -0.009
O  O55  1  0.53801659  0.59380183  0.77892754  1  -0.840265  0.015839  2.079508  0.013  -0.788787  -0.00233  2.371673  -0.005  -0.830592  0.000937  2.350853  -0.001  -0.335051  -0.759158  -0.005727  2.385266  -0.009
O  O56  1  0.70108530  0.36674648  0.11095393  1  -0.844395  0.010837  2.023277  0.007  -0.786814  -0.002162  2.299002  -0.005  -0.827105  0.000977  2.280106  0.0  -0.339256  -0.758603  -0.005292  2.311594  -0.009
O  O57  1  0.29891620  0.63325171  0.88904625  1  -0.844338  0.010839  2.023166  0.007  -0.786754  -0.002162  2.298935  -0.005  -0.827054  0.000978  2.280073  0.0  -0.339239  -0.758537  -0.005293  2.311528  -0.009
O  O58  1  0.97550572  0.23881276  0.35333554  1  -0.990801  -0.000573  1.94561  -0.001  -0.894566  -0.00075  2.201593  -0.002  -0.917707  -0.000523  2.170858  -0.001  -0.295159  -0.878037  -0.001112  2.222567  -0.002
O  O59  1  0.02449578  0.76118542  0.64666320  1  -0.990842  -0.000573  1.945604  -0.001  -0.894612  -0.00075  2.201591  -0.002  -0.917749  -0.000523  2.170852  -0.001  -0.295179  -0.878087  -0.001112  2.222567  -0.002
O  O60  1  0.07904479  0.58616783  0.39569414  1  -0.989445  0.001703  1.980634  0.001  -0.895604  0.000432  2.245383  0.0  -0.918559  0.000427  2.214926  0.0  -0.293478  -0.879401  0.000409  2.266286  0.0
O  O61  1  0.92095902  0.41383282  0.60430329  1  -0.989472  0.001703  1.980684  0.001  -0.895643  0.000432  2.245458  0.0  -0.918592  0.000427  2.214999  0.0  -0.293442  -0.879438  0.000409  2.266364  0.0
O  O62  1  0.82984379  0.60643561  0.47156557  1  -0.979721  0.000591  1.990193  0.0  -0.885461  -0.000172  2.253618  0.0  -0.908957  -0.000188  2.223797  0.0  -0.302035  -0.868689  -0.000169  2.273894  0.0
O  O63  1  0.17016409  0.39357131  0.52843428  1  -0.979695  0.000591  1.990206  0.0  -0.885437  -0.000172  2.253627  0.0  -0.908933  -0.000188  2.223807  0.0  -0.302  -0.868665  -0.000169  2.273906  0.0
O  O64  1  0.95449570  0.76504159  0.32915641  1  -0.961491  -0.000317  1.961358  -0.001  -0.869975  2.9e-05  2.217859  0.0  -0.893974  0.000108  2.190882  0.0  -0.295593  -0.852829  -3.9e-05  2.236118  0.0
O  O65  1  0.04550637  0.23496030  0.67084031  1  -0.9615  -0.000317  1.961331  -0.001  -0.869996  3e-05  2.217837  0.0  -0.893993  0.000108  2.190859  0.0  -0.295631  -0.852854  -3.9e-05  2.236111  0.0
O  O66  1  0.77785273  0.68024065  0.13691800  1  -0.965875  -9.2e-05  1.975777  0.0  -0.8689  -0.000314  2.233009  -0.001  -0.893396  -0.000199  2.205576  0.0  -0.289854  -0.85134  -0.000499  2.251575  -0.001
O  O67  1  0.22214529  0.31975751  0.86307924  1  -0.965803  -9.2e-05  1.975808  0.0  -0.868812  -0.000314  2.233022  -0.001  -0.893313  -0.000199  2.205601  0.0  -0.289795  -0.851245  -0.000499  2.251587  -0.001
O  O68  1  0.80947076  0.56102450  0.98088991  1  -0.98005  0.003723  1.972831  0.003  -0.883741  0.001217  2.238529  0.001  -0.908053  0.0012  2.208118  0.001  -0.295938  -0.866208  0.001138  2.259003  0.001
O  O69  1  0.19052843  0.43897368  0.01910878  1  -0.980052  0.003723  1.972891  0.003  -0.883752  0.001217  2.238593  0.001  -0.90806  0.0012  2.208182  0.001  -0.29595  -0.866207  0.001138  2.259062  0.001
O  O70  1  0.01305342  0.59261688  0.12260039  1  -1.010328  -0.000456  1.997168  -0.001  -0.918271  -0.000509  2.26713  -0.001  -0.941915  -0.000295  2.238255  -0.001  -0.297204  -0.901545  -0.000752  2.286978  -0.002
O  O71  1  0.98694808  0.40738380  0.87739914  1  -1.010259  -0.000456  1.997313  -0.001  -0.918173  -0.000509  2.267275  -0.001  -0.941819  -0.000295  2.238402  -0.001  -0.297171  -0.901444  -0.000752  2.287128  -0.002
O  O72  1  0.60512614  0.70969252  0.29909689  1  -0.972872  4.2e-05  1.943168  0.0  -0.877431  9.1e-05  2.198284  0.0  -0.900461  0.000147  2.168213  0.0  -0.295313  -0.861101  3.2e-05  2.219164  0.0
O  O73  1  0.39487478  0.29030940  0.70090195  1  -0.972889  4.1e-05  1.943138  0.0  -0.877478  9.1e-05  2.198278  0.0  -0.900511  0.000147  2.168208  0.0  -0.295338  -0.861148  3.2e-05  2.219156  0.0
O  O74  1  0.34619032  0.49407004  0.36650894  1  -0.981046  -0.001192  1.984545  -0.002  -0.886544  -0.001152  2.253207  -0.002  -0.911486  -0.000742  2.224881  -0.002  -0.297814  -0.868345  -0.001694  2.272214  -0.003
O  O75  1  0.65381176  0.50592939  0.63349056  1  -0.981015  -0.001192  1.984446  -0.002  -0.886524  -0.001153  2.253122  -0.002  -0.91145  -0.000741  2.224779  -0.002  -0.297834  -0.868327  -0.001694  2.272131  -0.003
O  O76  1  0.32049073  0.59516314  0.20479005  1  -0.975113  0.005547  1.953704  0.005  -0.884379  0.001355  2.219703  0.001  -0.909245  0.001266  2.189954  0.001  -0.291771  -0.866304  0.001244  2.239834  0.001
O  O77  1  0.67950788  0.40483630  0.79520938  1  -0.975104  0.005548  1.953711  0.005  -0.884361  0.001355  2.219722  0.001  -0.909228  0.001267  2.189975  0.001  -0.291767  -0.866289  0.001244  2.239856  0.001
O  O78  1  0.78166711  0.45269444  0.30780151  1  -0.920488  0.00633  2.191262  0.004  -0.85992  0.001907  2.49027  0.001  -0.895142  0.002243  2.462595  0.002  -0.348351  -0.835616  0.001428  2.509155  0.0
O  O79  1  0.21833555  0.54730625  0.69219875  1  -0.920535  0.00633  2.191337  0.004  -0.859955  0.001906  2.490357  0.001  -0.89517  0.002242  2.462676  0.002  -0.348353  -0.835639  0.00143  2.509228  0.0
O  O80  1  0.89481777  0.00060859  0.22991674  1  -0.97043  0.006116  1.962261  0.005  -0.875778  0.002396  2.229003  0.002  -0.901983  0.002451  2.200057  0.002  -0.292308  -0.856694  0.002178  2.248374  0.001
O  O81  1  0.10518084  0.99939084  0.77008198  1  -0.970446  0.006115  1.962323  0.005  -0.875764  0.002397  2.22903  0.002  -0.901969  0.00245  2.200084  0.002  -0.292302  -0.856683  0.002178  2.248402  0.001
O  O82  1  0.00901780  0.28656879  0.17771373  1  -1.015768  -0.000326  2.017798  -0.001  -0.919022  -0.000479  2.294566  -0.001  -0.942458  -0.000258  2.263213  -0.001  -0.292433  -0.902184  -0.000802  2.315939  -0.002
O  O83  1  0.99097850  0.71342816  0.82228558  1  -1.015685  -0.000326  2.017729  -0.001  -0.918953  -0.000479  2.294548  -0.001  -0.942394  -0.000258  2.263197  -0.001  -0.292405  -0.902107  -0.000802  2.315912  -0.002
