# generated using pymatgen
data_H16PbC22(BrN2)2
_symmetry_space_group_name_H-M   'P 1'
_cell_length_a   4.15769464
_cell_length_b   16.09064611
_cell_length_c   17.41684853
_cell_angle_alpha   113.79429032
_cell_angle_beta   89.99899138
_cell_angle_gamma   89.99982062
_symmetry_Int_Tables_number   1
_chemical_formula_structural   H16PbC22(BrN2)2
_chemical_formula_sum   'H32 Pb2 C44 Br4 N8'
_cell_volume   1066.14600483
_cell_formula_units_Z   2
loop_
 _symmetry_equiv_pos_site_id
 _symmetry_equiv_pos_as_xyz
  1  'x, y, z'
loop_
 _atom_site_type_symbol
 _atom_site_label
 _atom_site_symmetry_multiplicity
 _atom_site_fract_x
 _atom_site_fract_y
 _atom_site_fract_z
 _atom_site_occupancy
 _atom_site_hle17_bader_spin_density
 _atom_site_hle17_ddec_charge
 _atom_site_hle17_ddec_spin_density
 _atom_site_hle17_ddec_sum_bond_order
 _atom_site_hle17_magmom
 _atom_site_hse06_10hf_bader_spin_density
 _atom_site_hse06_10hf_ddec_charge
 _atom_site_hse06_10hf_ddec_spin_density
 _atom_site_hse06_10hf_ddec_sum_bond_order
 _atom_site_hse06_10hf_magmom
 _atom_site_hse06_bader_spin_density
 _atom_site_hse06_ddec_charge
 _atom_site_hse06_ddec_spin_density
 _atom_site_hse06_ddec_sum_bond_order
 _atom_site_hse06_magmom
 _atom_site_pbe_bader_spin_density
 _atom_site_pbe_cm5_charge
 _atom_site_pbe_ddec_charge
 _atom_site_pbe_ddec_spin_density
 _atom_site_pbe_ddec_sum_bond_order
 _atom_site_pbe_magmom
H  H0  1  0.85946051  0.78219040  0.23287219  1  0  0.074616  0  0.952827  0  0  0.080422  0  1.023656  0  0  0.083258  0  1.02146  0  0  0.105523  0.078307  0  1.025353  0
H  H1  1  0.85946034  0.21780800  0.26712666  1  0  0.074581  0  0.952923  0  0  0.08039  0  1.023749  0  0  0.083229  0  1.021548  0  0  0.105474  0.078278  0  1.025446  0
H  H2  1  0.14053157  0.21780693  0.76712338  1  0  0.074595  0  0.952942  0  0  0.080426  0  1.023741  0  0  0.083263  0  1.021543  0  0  0.105516  0.078313  0  1.025435  0
H  H3  1  0.14052452  0.78219416  0.73287756  1  0  0.074581  0  0.952952  0  0  0.080408  0  1.023764  0  0  0.083248  0  1.021563  0  0  0.105496  0.078297  0  1.025458  0
H  H4  1  0.29532503  0.97088147  0.41749656  1  0  0.067761  0  0.961575  0  0  0.073934  0  1.03113  0  0  0.076355  0  1.029555  0  0  0.101656  0.072075  0  1.032408  0
H  H5  1  0.29534556  0.02912353  0.08251224  1  0  0.067711  0  0.961509  0  0  0.073856  0  1.0311  0  0  0.076289  0  1.029511  0  0  0.101618  0.071991  0  1.032386  0
H  H6  1  0.70467425  0.02911863  0.58250460  1  0  0.067762  0  0.961523  0  0  0.073918  0  1.031097  0  0  0.07634  0  1.029522  0  0  0.101648  0.072066  0  1.032369  0
H  H7  1  0.70465132  0.97087656  0.91748777  1  0  0.067754  0  0.961593  0  0  0.073896  0  1.031186  0  0  0.076323  0  1.029601  0  0  0.101617  0.072031  0  1.032471  0
H  H8  1  0.27563139  0.87457283  0.50027331  1  0  0.105478  0  0.991156  0  0  0.110382  0  1.062706  0  0  0.114281  0  1.060894  0  0  0.089512  0.10756  0  1.06415  0
H  H9  1  0.27562251  0.12542793  0.99973439  1  0  0.105593  0  0.991057  0  0  0.110492  0  1.062593  0  0  0.114391  0  1.060781  0  0  0.089585  0.107673  0  1.06404  0
H  H10  1  0.72438714  0.12542865  0.49973008  1  0  0.105565  0  0.99107  0  0  0.11048  0  1.062609  0  0  0.114377  0  1.060801  0  0  0.089569  0.10766  0  1.064057  0
H  H11  1  0.72436235  0.87457078  0.00026340  1  0  0.105587  0  0.991135  0  0  0.110491  0  1.062684  0  0  0.114388  0  1.060876  0  0  0.08956  0.107669  0  1.064131  0
H  H12  1  0.87143613  0.67901031  0.30940476  1  0  0.110433  0  0.947502  0  0  0.117703  0  1.01169  0  0  0.121858  0  1.009452  0  0  0.10905  0.114735  0  1.013394  0
H  H13  1  0.87142346  0.32098739  0.19059492  1  0  0.110445  0  0.947548  0  0  0.117713  0  1.011724  0  0  0.121865  0  1.009493  0  0  0.109032  0.11475  0  1.013431  0
H  H14  1  0.12856797  0.32098912  0.69059731  1  0  0.110459  0  0.947565  0  0  0.117716  0  1.011758  0  0  0.121869  0  1.009525  0  0  0.109056  0.114753  0  1.013465  0
H  H15  1  0.12857102  0.67901202  0.80940484  1  0  0.110429  0  0.94758  0  0  0.11772  0  1.011734  0  0  0.121875  0  1.009498  0  0  0.109015  0.114753  0  1.013439  0
H  H16  1  0.39181165  0.73223350  0.51079843  1  0  0.066871  0  0.947908  0  0  0.072828  0  1.021902  0  0  0.076415  0  1.017633  0  0  0.102318  0.070079  0  1.025277  0
H  H17  1  0.39181381  0.26776480  0.98920329  1  0  0.066889  0  0.94783  0  0  0.072888  0  1.021793  0  0  0.076447  0  1.01755  0  0  0.102325  0.070137  0  1.02517  0
H  H18  1  0.60819004  0.26776591  0.48920134  1  0  0.066924  0  0.947874  0  0  0.072893  0  1.02185  0  0  0.076467  0  1.017593  0  0  0.102332  0.070135  0  1.025235  0
H  H19  1  0.60818788  0.73223663  0.01079606  1  0  0.066869  0  0.947732  0  0  0.072823  0  1.021753  0  0  0.076398  0  1.017495  0  0  0.102292  0.070092  0  1.025101  0
H  H20  1  0.40213717  0.28623243  0.38724195  1  0  0.093348  0  0.979184  0  0  0.099655  0  1.051461  0  0  0.102465  0  1.049801  0  0  0.091875  0.097592  0  1.052782  0
H  H21  1  0.40214219  0.71377278  0.11275615  1  0  0.09331  0  0.979148  0  0  0.099607  0  1.051445  0  0  0.102417  0  1.049786  0  0  0.091888  0.097535  0  1.052773  0
H  H22  1  0.59787415  0.71376629  0.61275642  1  0  0.093372  0  0.979168  0  0  0.099675  0  1.051453  0  0  0.102488  0  1.049788  0  0  0.091881  0.097625  0  1.052759  0
H  H23  1  0.59785229  0.28622800  0.88724584  1  0  0.09339  0  0.979141  0  0  0.099657  0  1.051459  0  0  0.102469  0  1.049797  0  0  0.091913  0.09759  0  1.052783  0
H  H24  1  0.34502418  0.37078858  0.29677529  1  0  0.077564  0  0.96849  0  0  0.090564  0  1.026342  0  0  0.09233  0  1.027053  0  0  0.093516  0.089311  0  1.02588  0
H  H25  1  0.34504525  0.62921349  0.20322764  1  0  0.077574  0  0.96834  0  0  0.090549  0  1.026224  0  0  0.092315  0  1.026936  0  0  0.093504  0.089278  0  1.025778  0
H  H26  1  0.65496790  0.62920876  0.70322142  1  0  0.077582  0  0.968484  0  0  0.090579  0  1.026335  0  0  0.092346  0  1.027046  0  0  0.093531  0.089327  0  1.02587  0
H  H27  1  0.65497087  0.37078593  0.79677327  1  0  0.077551  0  0.968497  0  0  0.09057  0  1.026328  0  0  0.092336  0  1.027039  0  0  0.093493  0.08929  0  1.025894  0
H  H28  1  0.07181458  0.52172667  0.35059135  1  0  0.095424  0  0.954847  0  0  0.102495  0  1.019841  0  0  0.106344  0  1.017137  0  0  0.099061  0.099782  0  1.021744  0
H  H29  1  0.07181982  0.47827883  0.14940252  1  0  0.095297  0  0.955068  0  0  0.102352  0  1.020082  0  0  0.106202  0  1.017376  0  0  0.098942  0.09964  0  1.021986  0
H  H30  1  0.92818712  0.47827203  0.64940586  1  0  0.095414  0  0.954889  0  0  0.102471  0  1.019889  0  0  0.106324  0  1.017181  0  0  0.099048  0.099758  0  1.021793  0
H  H31  1  0.92820592  0.52171921  0.85059560  1  0  0.09538  0  0.955094  0  0  0.102446  0  1.020085  0  0  0.106298  0  1.017377  0  0  0.099013  0.099733  0  1.02199  0
Pb  Pb32  1  0.58087867  0.99999956  0.25000073  1  0  0.969528  0  1.819561  0  0  0.774531  0  2.28841  0  0  0.831832  0  2.250458  0  0  0.400202  0.734742  0  2.313388  0
Pb  Pb33  1  0.41910379  0.00000182  0.74999458  1  0  0.969454  0  1.81954  0  0  0.77444  0  2.288399  0  0  0.831764  0  2.25043  0  0  0.400158  0.734631  0  2.313412  0
C  C34  1  0.73384773  0.80008747  0.29257192  1  0  0.120365  0  3.729802  0  0  0.091914  0  3.982434  0  0  0.098422  0  4.001005  0  0  0.041124  0.087686  0  3.969821  0
C  C35  1  0.73384976  0.19990997  0.20742710  1  0  0.120318  0  3.730175  0  0  0.091857  0  3.982798  0  0  0.098364  0  4.001367  0  0  0.041152  0.087628  0  3.97019  0
C  C36  1  0.26614675  0.19991125  0.70742644  1  0  0.120293  0  3.730099  0  0  0.091809  0  3.982733  0  0  0.098318  0  4.001303  0  0  0.041105  0.087584  0  3.970115  0
C  C37  1  0.26614953  0.80009351  0.79257414  1  0  0.120344  0  3.730355  0  0  0.091853  0  3.98299  0  0  0.098358  0  4.001559  0  0  0.041194  0.087627  0  3.970375  0
C  C38  1  0.41988565  0.90558147  0.39572150  1  0  0.117938  0  3.743752  0  0  0.092459  0  3.989693  0  0  0.098418  0  4.009943  0  0  0.038911  0.088643  0  3.975962  0
C  C39  1  0.41990377  0.09441697  0.10428038  1  0  0.118077  0  3.743803  0  0  0.092618  0  3.989752  0  0  0.098569  0  4.009994  0  0  0.038958  0.088809  0  3.97603  0
C  C40  1  0.58011364  0.09441860  0.60427736  1  0  0.117955  0  3.743558  0  0  0.092504  0  3.98949  0  0  0.098465  0  4.009741  0  0  0.038896  0.088684  0  3.975757  0
C  C41  1  0.58010995  0.90558311  0.89571906  1  0  0.118036  0  3.743624  0  0  0.092594  0  3.989551  0  0  0.098551  0  4.00979  0  0  0.039  0.088786  0  3.975826  0
C  C42  1  0.40909226  0.85211694  0.44142216  1  0  -0.149108  0  3.699981  0  0  -0.165908  0  3.943554  0  0  -0.173244  0  3.964835  0  0  -0.083923  -0.161154  0  3.929316  0
C  C43  1  0.40910827  0.14787883  0.05857936  1  0  -0.149259  0  3.700309  0  0  -0.166074  0  3.943862  0  0  -0.173409  0  3.965144  0  0  -0.084013  -0.161322  0  3.929626  0
C  C44  1  0.59090221  0.14788586  0.55857884  1  0  -0.149377  0  3.70012  0  0  -0.166226  0  3.943708  0  0  -0.173566  0  3.964993  0  0  -0.084029  -0.161472  0  3.929473  0
C  C45  1  0.59090545  0.85211580  0.94141637  1  0  -0.149319  0  3.700309  0  0  -0.166154  0  3.943906  0  0  -0.173491  0  3.965191  0  0  -0.08404  -0.161401  0  3.929669  0
C  C46  1  0.73989556  0.74300057  0.33484660  1  0  -0.148041  0  3.697867  0  0  -0.164801  0  3.942836  0  0  -0.170675  0  3.961727  0  0  -0.078027  -0.161048  0  3.930208  0
C  C47  1  0.73989758  0.25699483  0.16515281  1  0  -0.148035  0  3.698087  0  0  -0.164813  0  3.943019  0  0  -0.170686  0  3.961909  0  0  -0.078024  -0.161067  0  3.930405  0
C  C48  1  0.26009892  0.25699954  0.66515514  1  0  -0.148017  0  3.697999  0  0  -0.164792  0  3.94294  0  0  -0.170666  0  3.961832  0  0  -0.078004  -0.161044  0  3.930319  0
C  C49  1  0.26010171  0.74300184  0.83484424  1  0  -0.148085  0  3.698028  0  0  -0.16486  0  3.94296  0  0  -0.170735  0  3.96185  0  0  -0.078058  -0.16111  0  3.930337  0
C  C50  1  0.57586658  0.76925398  0.41160250  1  0  0.098012  0  3.769919  0  0  0.111413  0  4.003614  0  0  0.114567  0  4.023842  0  0  0.009684  0.109458  0  3.989835  0
C  C51  1  0.57586734  0.23074194  0.08839895  1  0  0.097963  0  3.77003  0  0  0.111441  0  4.003643  0  0  0.114601  0  4.023854  0  0  0.00974  0.109485  0  3.989869  0
C  C52  1  0.42413511  0.23074884  0.58840023  1  0  0.098093  0  3.769956  0  0  0.111585  0  4.003525  0  0  0.11474  0  4.023751  0  0  0.009699  0.109626  0  3.989746  0
C  C53  1  0.42415119  0.76925472  0.91159752  1  0  0.098021  0  3.769881  0  0  0.111438  0  4.003557  0  0  0.114595  0  4.023773  0  0  0.009711  0.109484  0  3.989782  0
C  C54  1  0.57928282  0.71545354  0.46219529  1  0  0.125216  0  3.67716  0  0  0.092788  0  3.940519  0  0  0.101977  0  3.949281  0  0  0.07444  0.086653  0  3.934543  0
C  C55  1  0.57927701  0.28455055  0.03781083  1  0  0.125331  0  3.676841  0  0  0.092838  0  3.940199  0  0  0.10205  0  3.948971  0  0  0.074496  0.086702  0  3.934222  0
C  C56  1  0.42073331  0.28455134  0.53780934  1  0  0.12532  0  3.677013  0  0  0.092864  0  3.940339  0  0  0.102063  0  3.949109  0  0  0.074568  0.086736  0  3.934363  0
C  C57  1  0.42072709  0.71544477  0.96218687  1  0  0.125385  0  3.676778  0  0  0.092983  0  3.94007  0  0  0.102181  0  3.948842  0  0  0.074586  0.086838  0  3.93409  0
C  C58  1  0.81814265  0.60974530  0.50469343  1  0  0.167966  0  3.794426  0  0  0.168391  0  4.043704  0  0  0.171085  0  4.068166  0  0  0.093444  0.166597  0  4.027089  0
C  C59  1  0.81814043  0.39025372  0.99530904  1  0  0.16798  0  3.794649  0  0  0.168355  0  4.043927  0  0  0.17105  0  4.068389  0  0  0.093386  0.166562  0  4.027306  0
C  C60  1  0.18186145  0.39025476  0.49530427  1  0  0.167966  0  3.794381  0  0  0.168394  0  4.043673  0  0  0.171088  0  4.068134  0  0  0.093382  0.166601  0  4.027056  0
C  C61  1  0.18186126  0.60974435  0.00469196  1  0  0.168044  0  3.794547  0  0  0.168469  0  4.043766  0  0  0.171164  0  4.068229  0  0  0.093453  0.166675  0  4.027146  0
C  C62  1  0.29103098  0.35327390  0.41256411  1  0  -0.144995  0  3.728395  0  0  -0.16692  0  3.98089  0  0  -0.171239  0  4.004155  0  0  -0.093688  -0.163991  0  3.965147  0
C  C63  1  0.29102667  0.64672623  0.08743261  1  0  -0.144973  0  3.728336  0  0  -0.166905  0  3.980847  0  0  -0.171227  0  4.004118  0  0  -0.093702  -0.163972  0  3.965098  0
C  C64  1  0.70898274  0.64672618  0.58743475  1  0  -0.145089  0  3.72848  0  0  -0.167017  0  3.980985  0  0  -0.171337  0  4.004247  0  0  -0.093763  -0.164104  0  3.965244  0
C  C65  1  0.70898224  0.35327318  0.91256773  1  0  -0.144988  0  3.728372  0  0  -0.166877  0  3.980893  0  0  -0.171195  0  4.004158  0  0  -0.09371  -0.163944  0  3.965142  0
C  C66  1  0.25228035  0.40066884  0.36077112  1  0  -0.063568  0  3.809538  0  0  -0.073729  0  4.059767  0  0  -0.076709  0  4.084833  0  0  -0.096064  -0.071513  0  4.042514  0
C  C67  1  0.25227522  0.59933552  0.13923017  1  0  -0.063528  0  3.809108  0  0  -0.073659  0  4.059337  0  0  -0.07664  0  4.084404  0  0  -0.096023  -0.071426  0  4.042083  0
C  C68  1  0.74772856  0.59932919  0.63922700  1  0  -0.063548  0  3.809469  0  0  -0.073694  0  4.0597  0  0  -0.076675  0  4.084767  0  0  -0.096049  -0.071478  0  4.042448  0
C  C69  1  0.74773128  0.40066319  0.86076819  1  0  -0.063592  0  3.80922  0  0  -0.073764  0  4.059439  0  0  -0.076745  0  4.084506  0  0  -0.096085  -0.071526  0  4.042189  0
C  C70  1  0.10097135  0.48421628  0.39006410  1  0  -0.093268  0  3.739109  0  0  -0.118456  0  3.99424  0  0  -0.12145  0  4.016017  0  0  -0.08954  -0.11636  0  3.979339  0
C  C71  1  0.10094776  0.51578988  0.10993563  1  0  -0.093137  0  3.739002  0  0  -0.118346  0  3.994092  0  0  -0.121337  0  4.015867  0  0  -0.089468  -0.116252  0  3.979185  0
C  C72  1  0.89903516  0.51578310  0.60993336  1  0  -0.09325  0  3.739105  0  0  -0.118426  0  3.994244  0  0  -0.121421  0  4.016021  0  0  -0.089521  -0.11633  0  3.979342  0
C  C73  1  0.89905875  0.48421155  0.89006373  1  0  -0.093229  0  3.739053  0  0  -0.118448  0  3.994169  0  0  -0.121441  0  4.015945  0  0  -0.089483  -0.116351  0  3.979259  0
C  C74  1  0.98066710  0.52357295  0.47308387  1  0  0.004088  0  3.731011  0  0  0.016764  0  3.956044  0  0  0.015358  0  3.981271  0  0  -0.000103  0.017687  0  3.939021  0
C  C75  1  0.98064769  0.47642780  0.02691646  1  0  0.00388  0  3.731134  0  0  0.016611  0  3.956053  0  0  0.015204  0  3.981279  0  0  -0.000138  0.017533  0  3.93903  0
C  C76  1  0.01934422  0.47642711  0.52691441  1  0  0.004064  0  3.730992  0  0  0.016708  0  3.95605  0  0  0.015304  0  3.981276  0  0  -5.9e-05  0.01763  0  3.939027  0
C  C77  1  0.01934679  0.52357162  0.97308446  1  0  0.004063  0  3.731089  0  0  0.016788  0  3.955975  0  0  0.015382  0  3.981201  0  0  -8.3e-05  0.017709  0  3.938952  0
Br  Br78  1  0.07412536  0.11611969  0.36968106  1  0  -0.540767  0  0.99298  0  0  -0.461762  0  1.28873  0  0  -0.486058  0  1.270752  0  0  -0.197903  -0.444303  0  1.300956  0
Br  Br79  1  0.07412458  0.88387371  0.13031930  1  0  -0.540807  0  0.992975  0  0  -0.461796  0  1.288718  0  0  -0.486086  0  1.27073  0  0  -0.197924  -0.444338  0  1.300942  0
Br  Br80  1  0.92582342  0.88389124  0.63032118  1  0  -0.54072  0  0.99308  0  0  -0.461687  0  1.288823  0  0  -0.486007  0  1.270884  0  0  -0.197842  -0.444223  0  1.301057  0
Br  Br81  1  0.92581458  0.11612997  0.86969810  1  0  -0.540787  0  0.992828  0  0  -0.461779  0  1.288578  0  0  -0.486099  0  1.270631  0  0  -0.197902  -0.444312  0  1.300802  0
N  N82  1  0.57927008  0.88058544  0.32262195  1  0  -0.345062  0  3.224463  0  0  -0.270305  0  3.477932  0  0  -0.290305  0  3.50091  0  0  -0.308473  -0.25666  0  3.462091  0
N  N83  1  0.57927772  0.11941453  0.17737923  1  0  -0.345028  0  3.224601  0  0  -0.270256  0  3.478037  0  0  -0.290267  0  3.501047  0  0  -0.308473  -0.256611  0  3.462195  0
N  N84  1  0.42072440  0.11941600  0.67737856  1  0  -0.34497  0  3.224401  0  0  -0.270215  0  3.477878  0  0  -0.290209  0  3.500835  0  0  -0.308463  -0.256569  0  3.462036  0
N  N85  1  0.42072157  0.88058420  0.82262028  1  0  -0.345001  0  3.224598  0  0  -0.27023  0  3.478036  0  0  -0.290237  0  3.501035  0  0  -0.308498  -0.256586  0  3.462192  0
N  N86  1  0.79479007  0.65418560  0.45060167  1  0  -0.324981  0  3.122384  0  0  -0.287042  0  3.392555  0  0  -0.29931  0  3.407974  0  0  -0.302464  -0.278451  0  3.381731  0
N  N87  1  0.79479227  0.34581848  0.04940295  1  0  -0.325046  0  3.122443  0  0  -0.287086  0  3.392627  0  0  -0.299354  0  3.408037  0  0  -0.302504  -0.278494  0  3.381802  0
N  N88  1  0.20520922  0.34581855  0.54939867  1  0  -0.325111  0  3.122349  0  0  -0.287169  0  3.392528  0  0  -0.29944  0  3.407946  0  0  -0.30255  -0.278578  0  3.381701  0
N  N89  1  0.20520702  0.65417756  0.95059846  1  0  -0.325125  0  3.122564  0  0  -0.287212  0  3.392737  0  0  -0.299481  0  3.408156  0  0  -0.302557  -0.278622  0  3.381916  0
