# generated using pymatgen
data_AgH12C16(NO)5
_symmetry_space_group_name_H-M   'P 1'
_cell_length_a   5.03837424
_cell_length_b   11.03021344
_cell_length_c   14.62252299
_cell_angle_alpha   81.19104014
_cell_angle_beta   88.89960444
_cell_angle_gamma   78.59572648
_symmetry_Int_Tables_number   1
_chemical_formula_structural   AgH12C16(NO)5
_chemical_formula_sum   'Ag2 H24 C32 N10 O10'
_cell_volume   787.14504033
_cell_formula_units_Z   2
loop_
 _symmetry_equiv_pos_site_id
 _symmetry_equiv_pos_as_xyz
  1  'x, y, z'
loop_
 _atom_site_type_symbol
 _atom_site_label
 _atom_site_symmetry_multiplicity
 _atom_site_fract_x
 _atom_site_fract_y
 _atom_site_fract_z
 _atom_site_occupancy
 _atom_site_pbe_bader_spin_density
 _atom_site_pbe_cm5_charge
 _atom_site_pbe_ddec_charge
 _atom_site_pbe_ddec_spin_density
 _atom_site_pbe_ddec_sum_bond_order
 _atom_site_pbe_magmom
Ag  Ag0  1  0.13172403  0.72570475  0.69685714  1  0  0.475738  0.391576  0  1.903504  0
Ag  Ag1  1  0.86827685  0.27429307  0.30314294  1  0  0.47574  0.391588  0  1.90351  0
H  H2  1  0.50067177  0.98198410  0.91971567  1  0  0.307569  0.285107  0  0.999242  0
H  H3  1  0.49932831  0.01801560  0.08028421  1  0  0.307564  0.28511  0  0.999247  0
H  H4  1  0.97917124  0.76569313  0.13617745  1  0  0.105274  0.103516  0  1.025151  0
H  H5  1  0.02082804  0.23430844  0.86382222  1  0  0.105265  0.103518  0  1.025151  0
H  H6  1  0.44628085  0.91303981  0.77585697  1  0  0.141833  0.101541  0  0.982854  0
H  H7  1  0.55371923  0.08695989  0.22414291  1  0  0.141835  0.101542  0  0.982859  0
H  H8  1  0.99727150  0.62026288  0.37041377  1  0  0.304701  0.267853  0  1.026754  0
H  H9  1  0.00272858  0.37973682  0.62958611  1  0  0.304706  0.267864  0  1.026745  0
H  H10  1  0.21775821  0.59504652  0.51508540  1  0  0.135513  0.092973  0  1.012016  0
H  H11  1  0.78224426  0.40495225  0.48491388  1  0  0.135526  0.092978  0  1.012034  0
H  H12  1  0.99008352  0.99627642  0.34868214  1  0  0.095541  0.08992  0  1.04375  0
H  H13  1  0.00991139  0.00372608  0.65131745  1  0  0.095558  0.089922  0  1.043749  0
H  H14  1  0.63903341  0.72183123  0.25962031  1  0  0.11351  0.131909  0  0.99399  0
H  H15  1  0.36096626  0.27816940  0.74038014  1  0  0.113516  0.131906  0  0.994049  0
H  H16  1  0.21466182  0.87896072  0.22528570  1  0  0.100226  0.105535  0  1.036479  0
H  H17  1  0.78534024  0.12103898  0.77471485  1  0  0.100234  0.10558  0  1.0364  0
H  H18  1  0.19984342  0.95252150  0.50790242  1  0  0.103929  0.102784  0  1.033672  0
H  H19  1  0.80015467  0.04747820  0.49209815  1  0  0.103928  0.10277  0  1.033653  0
H  H20  1  0.62710394  0.54946596  0.96652919  1  0  0.106464  0.106451  0  1.006179  0
H  H21  1  0.37289893  0.45053186  0.03347156  1  0  0.10646  0.106438  0  1.006222  0
H  H22  1  0.69016827  0.60902542  0.12192051  1  0  0.103586  0.11225  0  1.019528  0
H  H23  1  0.30983379  0.39097427  0.87807936  1  0  0.103585  0.112248  0  1.019554  0
H  H24  1  0.85280467  0.63757431  0.82961477  1  0  0.099203  0.105529  0  1.066379  0
H  H25  1  0.14719581  0.36242446  0.17038521  1  0  0.099181  0.105485  0  1.066453  0
C  C26  1  0.04431732  0.75342490  0.90388093  1  0  0.10354  0.211873  0  4.007846  0
C  C27  1  0.95568276  0.24657480  0.09611894  1  0  0.103549  0.211861  0  4.007846  0
C  C28  1  0.24385940  0.88142040  0.99781447  1  0  0.239244  0.481416  0  4.115947  0
C  C29  1  0.75613789  0.11858117  0.00218453  1  0  0.239252  0.481422  0  4.115959  0
C  C30  1  0.94590134  0.73865862  0.06941303  1  0  -0.078507  -0.072188  0  3.954769  0
C  C31  1  0.05409794  0.26134295  0.93058595  1  0  -0.078504  -0.072219  0  3.95474  0
C  C32  1  0.33372469  0.87855041  0.83552062  1  0  0.194446  0.256054  0  3.93581  0
C  C33  1  0.66627539  0.12144928  0.16447925  1  0  0.194442  0.256069  0  3.935813  0
C  C34  1  0.07530034  0.79049552  0.99119746  1  0  -0.015876  -0.124272  0  3.990833  0
C  C35  1  0.92469934  0.20950512  0.00880163  1  0  -0.015864  -0.124246  0  3.990806  0
C  C36  1  0.65694137  0.75098158  0.40213363  1  0  0.114349  0.224332  0  4.000232  0
C  C37  1  0.34306069  0.24901812  0.59786692  1  0  0.114357  0.224326  0  4.000236  0
C  C38  1  0.65595239  0.79007492  0.56484000  1  0  0.220188  0.474071  0  4.131883  0
C  C39  1  0.34404571  0.20992477  0.43515921  1  0  0.220222  0.47414  0  4.131872  0
C  C40  1  0.01984858  0.65683979  0.50513022  1  0  0.192695  0.258968  0  3.970751  0
C  C41  1  0.98015348  0.34315990  0.49487033  1  0  0.192699  0.258969  0  3.970754  0
C  C42  1  0.53082719  0.81521020  0.47262946  1  0  -0.016543  -0.117013  0  3.967593  0
C  C43  1  0.46917050  0.18479043  0.52737032  1  0  -0.016568  -0.117041  0  3.967518  0
C  C44  1  0.17556422  0.92632682  0.36442731  1  0  -0.09348  -0.088972  0  3.992755  0
C  C45  1  0.82442950  0.07367381  0.63557182  1  0  -0.093468  -0.08891  0  3.992856  0
C  C46  1  0.54077237  0.77326749  0.31305852  1  0  -0.089354  -0.168442  0  3.927405  0
C  C47  1  0.45922532  0.22673314  0.68694195  1  0  -0.08938  -0.168473  0  3.927431  0
C  C48  1  0.30156418  0.86066956  0.29491179  1  0  -0.085067  -0.0547  0  3.974123  0
C  C49  1  0.69843829  0.13932920  0.70508886  1  0  -0.085065  -0.054722  0  3.973977  0
C  C50  1  0.28941178  0.90314990  0.45240557  1  0  -0.081586  -0.070466  0  3.968341  0
C  C51  1  0.71059146  0.09685167  0.54759613  1  0  -0.081613  -0.070501  0  3.968506  0
C  C52  1  0.75134999  0.61762895  0.97416775  1  0  -0.075913  -0.0432  0  3.969097  0
C  C53  1  0.24865207  0.38237075  0.02583279  1  0  -0.075935  -0.043222  0  3.969228  0
C  C54  1  0.78552576  0.65223382  0.06122409  1  0  -0.082857  -0.076351  0  3.962272  0
C  C55  1  0.21447631  0.34776588  0.93877577  1  0  -0.082859  -0.076348  0  3.962292  0
C  C56  1  0.87849369  0.66683586  0.89644373  1  0  -0.089641  -0.163016  0  3.943862  0
C  C57  1  0.12150440  0.33316383  0.10355684  1  0  -0.089586  -0.162903  0  3.943956  0
N  N58  1  0.36794027  0.92005307  0.91640974  1  0  -0.371772  -0.331116  0  3.589685  0
N  N59  1  0.63205941  0.07994756  0.08359003  1  0  -0.371775  -0.331144  0  3.589684  0
N  N60  1  0.17702680  0.79985696  0.82598843  1  0  -0.349817  -0.29604  0  3.556741  0
N  N61  1  0.82297328  0.20014274  0.17401213  1  0  -0.349824  -0.29606  0  3.556775  0
N  N62  1  0.64176814  0.49536588  0.70408266  1  0  0.094075  0.700984  0  4.448015  0
N  N63  1  0.35823194  0.50463382  0.29591790  1  0  0.094155  0.701063  0  4.447912  0
N  N64  1  0.89876303  0.66781316  0.42312896  1  0  -0.365726  -0.263956  0  3.658719  0
N  N65  1  0.10123903  0.33218654  0.57687090  1  0  -0.365724  -0.263945  0  3.658722  0
N  N66  1  0.91503435  0.71543662  0.57399609  1  0  -0.374772  -0.383259  0  3.56903  0
N  N67  1  0.08496614  0.28456214  0.42600389  1  0  -0.374788  -0.383282  0  3.569046  0
O  O68  1  0.27875452  0.92463492  0.07012886  1  0  -0.289373  -0.495463  0  2.208591  0
O  O69  1  0.72124754  0.07536477  0.92987032  1  0  -0.289377  -0.495452  0  2.208643  0
O  O70  1  0.55709072  0.51259568  0.62138189  1  0  -0.197794  -0.450448  0  1.963542  0
O  O71  1  0.44291134  0.48740401  0.37861865  1  0  -0.197807  -0.450443  0  1.963471  0
O  O72  1  0.49560098  0.53938614  0.76729967  1  0  -0.192415  -0.43318  0  2.042113  0
O  O73  1  0.50440108  0.46061356  0.23270019  1  0  -0.192472  -0.433249  0  2.042094  0
O  O74  1  0.88028928  0.43253057  0.72479783  1  0  -0.196738  -0.455896  0  2.010351  0
O  O75  1  0.11971080  0.56746912  0.27520205  1  0  -0.196746  -0.455899  0  2.01029  0
O  O76  1  0.54403144  0.83382896  0.63283602  1  0  -0.304406  -0.516691  0  2.267726  0
O  O77  1  0.45597103  0.16616980  0.36716463  1  0  -0.304404  -0.516714  0  2.267758  0
