# generated using pymatgen
data_NiH28C20(NO)4
_symmetry_space_group_name_H-M   'P 1'
_cell_length_a   13.41729444
_cell_length_b   15.64771847
_cell_length_c   17.19517333
_cell_angle_alpha   92.53983308
_cell_angle_beta   81.90530280
_cell_angle_gamma   90.02760893
_symmetry_Int_Tables_number   1
_chemical_formula_structural   NiH28C20(NO)4
_chemical_formula_sum   'Ni4 H112 C80 N16 O16'
_cell_volume   3570.58706242
_cell_formula_units_Z   4
loop_
 _symmetry_equiv_pos_site_id
 _symmetry_equiv_pos_as_xyz
  1  'x, y, z'
loop_
 _atom_site_type_symbol
 _atom_site_label
 _atom_site_symmetry_multiplicity
 _atom_site_fract_x
 _atom_site_fract_y
 _atom_site_fract_z
 _atom_site_occupancy
 _atom_site_pbe_bader_charge
 _atom_site_pbe_bader_spin_density
 _atom_site_pbe_cm5_charge
 _atom_site_pbe_ddec_charge
 _atom_site_pbe_ddec_spin_density
 _atom_site_pbe_ddec_sum_bond_order
 _atom_site_pbe_magmom
Ni  Ni0  1  0.00000236  0.00000212  0.00000377  1  1.197887  1.555386  0.637654  0.78024  1.903482  2.560419  1.542
Ni  Ni1  1  0.48772279  0.50553264  0.75643842  1  1.192524  -1.557975  0.636904  0.777837  -1.797354  2.549586  -1.545
Ni  Ni2  1  0.51227922  0.49446250  0.24355624  1  1.192557  -1.557976  0.636854  0.777773  -1.797354  2.549482  -1.545
Ni  Ni3  1  0.00000154  0.00000192  0.49999873  1  1.196448  -1.553367  0.639816  0.777782  -1.798464  2.575042  -1.54
H  H4  1  0.96691145  0.74640563  0.86910292  1  0.058612  5e-05  0.091635  0.138692  4.8e-05  0.999819  0.0
H  H5  1  0.03305486  0.25361566  0.13090107  1  0.059275  5e-05  0.091571  0.138547  4.8e-05  0.999949  0.0
H  H6  1  0.09959604  0.74229836  0.83860884  1  0.034127  0.000341  0.092168  0.136528  0.000139  0.997886  0.0
H  H7  1  0.90036637  0.25770803  0.16140554  1  0.033782  0.000341  0.092046  0.136284  0.000139  0.997749  0.0
H  H8  1  0.01982103  0.77764470  0.77268210  1  0.04148  0.000883  0.090486  0.134118  0.000411  1.004443  0.0
H  H9  1  0.98015843  0.22236735  0.22732542  1  0.041469  0.000883  0.090527  0.134129  0.000411  1.004492  0.0
H  H10  1  0.13969463  0.89976841  0.76568475  1  0.058128  -0.000424  0.082042  0.115166  -0.000166  1.070389  0.0
H  H11  1  0.86028546  0.10024282  0.23431861  1  0.057982  -0.000424  0.082008  0.115238  -0.000166  1.070447  0.0
H  H12  1  0.19932823  0.12675350  0.80875441  1  0.036426  -9.8e-05  0.089699  0.134584  -2e-05  1.031423  0.0
H  H13  1  0.80066199  0.87325173  0.19125461  1  0.036661  -9.9e-05  0.089723  0.134634  -2e-05  1.031186  0.0
H  H14  1  0.15271187  0.07067946  0.72880594  1  0.057485  -6.7e-05  0.093773  0.140579  -2.4e-05  1.011969  0.0
H  H15  1  0.84728598  0.92932467  0.27120442  1  0.057313  -6.7e-05  0.093756  0.140618  -2.4e-05  1.012003  0.0
H  H16  1  0.26068650  0.03165431  0.76383365  1  0.015645  0.001078  0.084874  0.123684  0.000492  1.007206  0.0
H  H17  1  0.73930907  0.96835501  0.23617934  1  0.015744  0.001079  0.084786  0.123602  0.000492  1.007211  0.0
H  H18  1  0.76326299  0.05404890  0.06847264  1  0.157971  0.000429  0.129642  0.092168  3.6e-05  1.027949  0.0
H  H19  1  0.23674071  0.94595569  0.93153229  1  0.157952  0.000429  0.129652  0.092148  3.6e-05  1.027958  0.0
H  H20  1  0.73224108  0.11916947  0.83661564  1  0.092553  0.001173  0.11895  0.116226  0.000561  1.014038  0.0
H  H21  1  0.26775983  0.88081443  0.16338497  1  0.092193  0.001173  0.118931  0.116201  0.000561  1.014037  0.0
H  H22  1  0.92742394  0.05914299  0.84184371  1  0.121062  0.000988  0.11823  0.112065  0.000352  1.036525  0.001
H  H23  1  0.07257321  0.94084219  0.15815797  1  0.120863  0.000988  0.118244  0.112026  0.000352  1.036494  0.001
H  H24  1  0.58789997  0.09424823  0.04181199  1  0.045617  1e-05  0.112488  0.086427  7e-06  0.963876  0.0
H  H25  1  0.41210073  0.90574323  0.95818633  1  0.045607  1e-05  0.112485  0.086436  7e-06  0.963871  0.0
H  H26  1  0.56707135  0.10446985  0.94311984  1  0.073551  0.000183  0.108911  0.082512  9.8e-05  0.961636  0.0
H  H27  1  0.43293534  0.89553079  0.05688179  1  0.073456  0.000183  0.108888  0.082505  9.8e-05  0.961628  0.0
H  H28  1  0.64776251  0.25093337  0.94437314  1  0.01927  2.4e-05  0.094987  0.09013  1.3e-05  0.991272  0.0
H  H29  1  0.35224675  0.74906381  0.05563572  1  0.01929  2.5e-05  0.095084  0.09024  1.3e-05  0.991133  0.0
H  H30  1  0.66064307  0.24097252  0.04448277  1  0.027036  -2.1e-05  0.099249  0.099065  -1.7e-05  0.964285  0.0
H  H31  1  0.33935566  0.75901605  0.95552279  1  0.027465  -2.1e-05  0.099241  0.099055  -1.7e-05  0.96432  0.0
H  H32  1  0.45963260  0.23837565  0.97737036  1  0.02604  -1.3e-05  0.092848  0.084673  -1e-06  0.978186  0.0
H  H33  1  0.54037158  0.76161059  0.02263857  1  0.025978  -1.2e-05  0.092833  0.084663  -1e-06  0.978124  0.0
H  H34  1  0.47216747  0.22699969  0.07736033  1  0.020837  -9.4e-05  0.096582  0.093467  -4e-05  0.993768  0.0
H  H35  1  0.52783713  0.77300117  0.92264681  1  0.021044  -9.4e-05  0.096535  0.093454  -4e-05  0.993746  0.0
H  H36  1  0.42494321  0.37423906  0.05964796  1  0.101912  7.7e-05  0.110001  0.090938  5.1e-05  0.986537  0.0
H  H37  1  0.57506478  0.62575738  0.94034534  1  0.1021  7.8e-05  0.109979  0.090923  5.2e-05  0.986524  0.0
H  H38  1  0.54730654  0.37259577  0.08545123  1  0.131589  -0.000146  0.117413  0.113085  -4.8e-05  1.004482  0.0
H  H39  1  0.45270220  0.62740526  0.91454431  1  0.131905  -0.000146  0.117413  0.113047  -4.8e-05  1.004615  0.0
H  H40  1  0.40672635  0.39978536  0.91076933  1  0.142536  -0.00033  0.128532  0.090891  2e-05  1.030145  0.0
H  H41  1  0.59327487  0.60021300  0.08922602  1  0.142048  -0.000331  0.128561  0.090932  1.9e-05  1.02998  0.0
H  H42  1  0.69116478  0.42809778  0.98762132  1  0.106359  -0.001026  0.121972  0.12422  -0.00043  1.02796  -0.001
H  H43  1  0.30884864  0.57187925  0.01236542  1  0.106192  -0.001026  0.121975  0.124187  -0.00043  1.027941  -0.001
H  H44  1  0.69402038  0.50308707  0.84246127  1  0.130545  -0.000823  0.11428  0.107971  -0.000267  1.01687  -0.001
H  H45  1  0.30598922  0.49689771  0.15752831  1  0.130687  -0.000824  0.114296  0.108064  -0.000268  1.016597  -0.001
H  H46  1  0.57844919  0.77743618  0.78986098  1  0.023297  -7.3e-05  0.090094  0.131656  -6.1e-05  1.01286  0.0
H  H47  1  0.42154640  0.22256398  0.21014733  1  0.023453  -7.3e-05  0.090142  0.131719  -6.1e-05  1.012871  0.0
H  H48  1  0.67749815  0.77708351  0.70843729  1  0.048607  -0.000958  0.094237  0.138676  -0.000386  1.01213  0.0
H  H49  1  0.32250122  0.22292590  0.29157637  1  0.048422  -0.000958  0.094221  0.138612  -0.000387  1.01207  0.0
H  H50  1  0.70537605  0.75349387  0.80254330  1  0.034644  0.000133  0.098597  0.147045  9.6e-05  0.981215  0.0
H  H51  1  0.29461137  0.24650639  0.19746957  1  0.034963  0.000134  0.098567  0.147043  9.7e-05  0.981185  0.0
H  H52  1  0.77480617  0.63601024  0.67984792  1  0.024559  0.000421  0.087376  0.124824  0.000167  1.037487  0.0
H  H53  1  0.22519386  0.36399904  0.32016274  1  0.024585  0.000421  0.087391  0.124863  0.000167  1.03749  0.0
H  H54  1  0.77467494  0.41013678  0.60706901  1  0.028695  -0.000114  0.092321  0.136137  -7.3e-05  1.008644  0.0
H  H55  1  0.22533097  0.58987983  0.39291877  1  0.028582  -0.000114  0.092257  0.136031  -7.4e-05  1.008781  0.0
H  H56  1  0.85209624  0.46884339  0.66609806  1  0.071803  -0.000265  0.098152  0.145335  -8.5e-05  0.982302  0.0
H  H57  1  0.14791490  0.53117320  0.33388788  1  0.071726  -0.000265  0.098122  0.145308  -8.5e-05  0.98226  0.0
H  H58  1  0.82301570  0.51329023  0.57913664  1  0.013341  -0.00093  0.093215  0.1352  -0.000392  0.995105  0.0
H  H59  1  0.17697820  0.48672828  0.42085445  1  0.013651  -0.000931  0.093159  0.135151  -0.000392  0.994843  0.0
H  H60  1  0.20688527  0.60450058  0.91100622  1  0.046242  -9e-05  0.092812  0.13689  -7e-05  1.006561  0.0
H  H61  1  0.79312255  0.39548092  0.08899582  1  0.045964  -9.1e-05  0.092774  0.136839  -7e-05  1.006492  0.0
H  H62  1  0.16228013  0.50169436  0.94261060  1  0.033305  -0.000806  0.093469  0.136623  -0.000338  0.992942  0.0
H  H63  1  0.83772908  0.49828308  0.05738601  1  0.033333  -0.000806  0.093464  0.136621  -0.000338  0.992917  0.0
H  H64  1  0.12417288  0.54403634  0.85773724  1  0.056919  -0.000294  0.096485  0.142809  -9.8e-05  0.984723  0.0
H  H65  1  0.87582648  0.45594944  0.14226299  1  0.056919  -0.000294  0.096453  0.142757  -9.8e-05  0.984789  0.0
H  H66  1  0.19857780  0.38023605  0.83502287  1  0.004111  0.000394  0.087665  0.125966  0.000143  1.033642  0.0
H  H67  1  0.80142618  0.61975084  0.16495871  1  0.003771  0.000394  0.087562  0.125833  0.000143  1.033681  0.0
H  H68  1  0.38354742  0.23521772  0.71860528  1  0.035026  1.7e-05  0.090499  0.132514  -1.4e-05  1.012008  0.0
H  H69  1  0.61645500  0.76477038  0.28137534  1  0.035247  1.7e-05  0.090456  0.132461  -1.4e-05  1.01208  0.0
H  H70  1  0.25864179  0.26663017  0.70736245  1  0.054954  0.000203  0.099514  0.147708  0.000126  0.979415  0.0
H  H71  1  0.74136191  0.73336811  0.29261685  1  0.055327  0.000203  0.099571  0.147759  0.000126  0.979307  0.0
H  H72  1  0.28535480  0.23861280  0.80074269  1  0.023392  -0.000946  0.09418  0.13777  -0.000395  1.011915  0.0
H  H73  1  0.71464295  0.76137833  0.19923563  1  0.023741  -0.000947  0.094158  0.137743  -0.000396  1.011857  0.0
H  H74  1  0.56999498  0.60021969  0.59374530  1  0.128464  -0.000302  0.130411  0.093826  2.2e-05  1.019935  0.0
H  H75  1  0.43000410  0.39978734  0.40625850  1  0.128859  -0.0003  0.130429  0.093871  2.3e-05  1.020161  0.0
H  H76  1  0.28530820  0.55880399  0.52025466  1  0.113641  -0.000988  0.120846  0.122291  -0.000416  1.022586  0.0
H  H77  1  0.71469147  0.44118838  0.47973623  1  0.113723  -0.000988  0.120848  0.122299  -0.000416  1.022678  0.0
H  H78  1  0.28141818  0.50609898  0.67399295  1  0.136018  -0.000815  0.114942  0.109936  -0.000259  1.017495  -0.001
H  H79  1  0.71858848  0.49388589  0.32599935  1  0.136588  -0.000814  0.114977  0.10997  -0.000258  1.017537  -0.001
H  H80  1  0.42798549  0.59888958  0.41583484  1  0.142849  -0.000227  0.114745  0.10884  -0.000111  1.010909  0.0
H  H81  1  0.57201807  0.40111087  0.58416370  1  0.142751  -0.000227  0.114766  0.108855  -0.000111  1.01092  0.0
H  H82  1  0.55150647  0.59764585  0.43930589  1  0.094166  7.7e-05  0.109502  0.0908  5.1e-05  1.003561  0.0
H  H83  1  0.44849646  0.40235543  0.56069681  1  0.094032  7.7e-05  0.109464  0.090778  5.2e-05  1.003463  0.0
H  H84  1  0.50532146  0.73907483  0.39957756  1  0.066072  -0.000142  0.099084  0.100412  -8.4e-05  0.985741  0.0
H  H85  1  0.49468453  0.26092522  0.60042533  1  0.066372  -0.000142  0.099071  0.100383  -8.4e-05  0.985721  0.0
H  H86  1  0.53370856  0.74509951  0.49720548  1  0.012991  -4.3e-05  0.091089  0.081179  -1.7e-05  0.978704  0.0
H  H87  1  0.46629120  0.25490283  0.50279356  1  0.01318  -4.3e-05  0.091069  0.081167  -1.7e-05  0.978607  0.0
H  H88  1  0.31983560  0.73995021  0.45149395  1  0.048119  -9e-06  0.097997  0.096858  4e-06  0.968944  0.0
H  H89  1  0.68017193  0.26004991  0.54850990  1  0.048512  -9e-06  0.097968  0.096845  4e-06  0.968852  0.0
H  H90  1  0.34812188  0.74304493  0.54883304  1  0.059239  -1.8e-05  0.094494  0.089093  -9e-06  0.99397  0.0
H  H91  1  0.65188035  0.25695445  0.45117033  1  0.059196  -1.8e-05  0.094515  0.08914  -9e-06  0.993953  0.0
H  H92  1  0.43959840  0.88350073  0.52310268  1  0.041678  -0.000177  0.109797  0.08449  -8.5e-05  0.961274  0.0
H  H93  1  0.56040096  0.11650013  0.47690573  1  0.041766  -0.000177  0.109819  0.084553  -8.5e-05  0.961376  0.0
H  H94  1  0.39996703  0.88178097  0.42903153  1  0.04557  -2.7e-05  0.113714  0.088352  -1.2e-05  0.960597  0.0
H  H95  1  0.60003727  0.11822210  0.57096809  1  0.045596  -2.7e-05  0.113715  0.088355  -1.2e-05  0.960704  0.0
H  H96  1  0.22319591  0.93065941  0.41777019  1  0.117863  -0.00029  0.125339  0.086479  5.8e-05  1.041211  0.0
H  H97  1  0.77680604  0.06934548  0.58222799  1  0.117952  -0.000291  0.125326  0.086463  5.8e-05  1.041215  0.0
H  H98  1  0.28886915  0.88652608  0.64675273  1  0.100825  -0.001211  0.117909  0.115136  -0.000549  1.010943  0.0
H  H99  1  0.71113222  0.11348102  0.35325193  1  0.100718  -0.001211  0.117949  0.115169  -0.000549  1.010994  0.0
H  H100  1  0.09561834  0.95578760  0.65558592  1  0.121459  -0.00096  0.116184  0.107368  -0.000312  1.03811  -0.001
H  H101  1  0.90438409  0.04422872  0.34441046  1  0.121487  -0.000961  0.116234  0.107428  -0.000313  1.03827  -0.001
H  H102  1  0.16480406  0.16927346  0.32152125  1  0.053542  -0.00011  0.091633  0.137717  -8.7e-05  1.007063  0.0
H  H103  1  0.83518958  0.83073198  0.67847742  1  0.053044  -0.00011  0.091688  0.137815  -8.7e-05  1.006978  0.0
H  H104  1  0.12336322  0.11238997  0.23930942  1  0.051369  -0.000362  0.094676  0.144651  -0.000165  1.003572  0.0
H  H105  1  0.87662904  0.88761301  0.76069176  1  0.051608  -0.000362  0.094691  0.144666  -0.000165  1.003617  0.0
H  H106  1  0.24033803  0.08574935  0.26796718  1  0.036989  -0.000641  0.087658  0.127139  -0.000274  1.007196  0.0
H  H107  1  0.75965717  0.91425618  0.73203304  1  0.036919  -0.000641  0.087674  0.127182  -0.000274  1.007226  0.0
H  H108  1  0.14062760  0.94408396  0.25749878  1  0.030451  0.000403  0.080401  0.109838  0.000162  1.110288  0.0
H  H109  1  0.85936259  0.05592122  0.74250908  1  0.030385  0.000403  0.080378  0.10969  0.000162  1.11027  0.0
H  H110  1  0.00611931  0.75871527  0.34501006  1  0.056668  -8.9e-05  0.091948  0.139313  -5.5e-05  0.998877  0.0
H  H111  1  0.99387533  0.24129184  0.65499664  1  0.056833  -8.9e-05  0.091963  0.139359  -5.5e-05  0.99887  0.0
H  H112  1  0.11244389  0.78757044  0.27573884  1  0.040966  -0.001439  0.087274  0.127898  -0.000617  1.006572  0.0
H  H113  1  0.88754854  0.21243540  0.72426873  1  0.040623  -0.001439  0.087303  0.127921  -0.000618  1.006449  0.0
H  H114  1  0.98965637  0.81664322  0.26054455  1  0.036645  0.000165  0.094265  0.141735  9.7e-05  0.999537  0.0
H  H115  1  0.01033989  0.18336209  0.73946427  1  0.036545  0.000165  0.094242  0.141663  9.7e-05  0.999613  0.0
C  C116  1  0.03013657  0.77843757  0.83496755  1  -0.103632  0.008807  -0.246141  -0.473658  0.005668  3.934388  0.007
C  C117  1  0.96983691  0.22157318  0.16504133  1  -0.103933  0.008806  -0.246018  -0.473324  0.005667  3.934203  0.007
C  C118  1  0.03917290  0.86919880  0.86837170  1  0.796898  -0.006203  0.11148  0.4806  -0.002748  4.057268  -0.005
C  C119  1  0.96081422  0.13081088  0.13163773  1  0.798269  -0.006206  0.111461  0.480726  -0.002747  4.057296  -0.005
C  C120  1  0.10289607  0.92564537  0.82237883  1  -0.175025  0.002695  -0.184552  -0.523965  0.001242  4.019452  0.003
C  C121  1  0.89709106  0.07436563  0.17763118  1  -0.175492  0.002694  -0.184428  -0.524055  0.001241  4.019812  0.003
C  C122  1  0.12074654  0.01220795  0.84190594  1  0.771675  -0.00637  0.102663  0.458461  -0.002792  4.077806  -0.005
C  C123  1  0.87924820  0.98780256  0.15810541  1  0.772299  -0.00637  0.102699  0.458466  -0.00279  4.077769  -0.005
C  C124  1  0.18746777  0.06334924  0.78236882  1  -0.07453  0.008258  -0.249612  -0.473708  0.005284  3.92934  0.007
C  C125  1  0.81252927  0.93665676  0.21764106  1  -0.074668  0.008258  -0.249592  -0.473808  0.005284  3.929254  0.007
C  C126  1  0.78248732  0.06207760  0.00584163  1  0.942081  -0.004621  0.137678  0.089321  -0.002099  3.911097  -0.002
C  C127  1  0.21750884  0.93791904  0.99415961  1  0.942224  -0.004621  0.137699  0.089359  -0.002099  3.911182  -0.002
C  C128  1  0.76825071  0.09635870  0.88442467  1  0.272229  0.003079  -0.01329  -0.139961  0.00186  3.970276  0.002
C  C129  1  0.23175228  0.90362758  0.11557160  1  0.273054  0.003077  -0.013264  -0.139949  0.00186  3.970312  0.002
C  C130  1  0.86402745  0.06699077  0.88796373  1  0.42403  -0.001692  0.001605  -0.019343  -0.000632  4.00291  -0.001
C  C131  1  0.13597641  0.93300421  0.11204059  1  0.423641  -0.001691  0.001658  -0.019247  -0.000633  4.002587  -0.001
C  C132  1  0.61589424  0.12505043  0.98673826  1  0.275414  0.001308  -0.045513  -0.053362  0.00088  3.9302  0.001
C  C133  1  0.38411103  0.87494639  0.01326413  1  0.275782  0.001308  -0.045443  -0.053312  0.00088  3.93011  0.001
C  C134  1  0.61345943  0.22231842  0.99907701  1  0.026224  -7.5e-05  -0.163787  -0.172509  -4e-05  3.956689  0.0
C  C135  1  0.38654146  0.77767659  0.00092886  1  0.025726  -7.5e-05  -0.163898  -0.172588  -4e-05  3.956934  0.0
C  C136  1  0.50665031  0.25639292  0.02312222  1  0.011443  0.000149  -0.160652  -0.161039  8.4e-05  3.958073  0.0
C  C137  1  0.49334756  0.74360401  0.97688463  1  0.011133  0.00015  -0.160689  -0.161238  8.4e-05  3.958244  0.0
C  C138  1  0.50247501  0.35317559  0.03904850  1  0.235508  -0.001088  -0.054371  -0.072266  -0.000694  3.869081  -0.001
C  C139  1  0.49753074  0.64682282  0.96094684  1  0.235097  -0.001089  -0.054254  -0.072026  -0.000694  3.869047  -0.001
C  C140  1  0.48492464  0.41773882  0.91047666  1  0.933079  0.004629  0.136807  0.088199  0.002521  3.910381  0.003
C  C141  1  0.51507351  0.58225288  0.08951384  1  0.933605  0.004623  0.136903  0.088398  0.002519  3.910784  0.003
C  C142  1  0.63429551  0.43305897  0.94913646  1  0.298314  -0.003083  -0.007853  -0.131535  -0.001742  3.958937  -0.002
C  C143  1  0.36571198  0.56692732  0.05085864  1  0.298379  -0.003081  -0.007907  -0.131473  -0.001742  3.958856  -0.002
C  C144  1  0.63410012  0.46992871  0.87787479  1  0.368639  0.000691  -0.006912  -0.041908  2e-05  4.031424  0.0
C  C145  1  0.36591397  0.53005675  0.12211421  1  0.368315  0.000691  -0.006809  -0.041937  2e-05  4.031305  0.0
C  C146  1  0.64832280  0.74566299  0.76269309  1  -0.078406  -0.008712  -0.24591  -0.475742  -0.005244  3.930259  -0.007
C  C147  1  0.35167287  0.25433795  0.23731813  1  -0.078624  -0.00871  -0.245931  -0.475776  -0.005244  3.930329  -0.007
C  C148  1  0.62802151  0.65188259  0.74602028  1  0.795542  0.006824  0.111961  0.475035  0.0035  4.055946  0.006
C  C149  1  0.37197557  0.34811691  0.25398726  1  0.795303  0.006825  0.112032  0.475137  0.003502  4.055736  0.006
C  C150  1  0.70466237  0.60306634  0.69925630  1  -0.070138  -0.002767  -0.182037  -0.520716  -0.001169  4.019847  -0.003
C  C151  1  0.29533904  0.39694015  0.30074894  1  -0.069894  -0.002768  -0.181955  -0.520637  -0.001169  4.019958  -0.003
C  C152  1  0.69917185  0.51590648  0.67565309  1  0.715655  0.006494  0.108568  0.463357  0.003317  4.071453  0.005
C  C153  1  0.30082997  0.48410216  0.32434336  1  0.715527  0.006498  0.108388  0.463089  0.003318  4.071703  0.005
C  C154  1  0.79249770  0.47452110  0.62870143  1  -0.076476  -0.008446  -0.244172  -0.473417  -0.005165  3.930654  -0.007
C  C155  1  0.20750521  0.52549615  0.37128733  1  -0.076721  -0.008446  -0.244024  -0.473214  -0.005165  3.930513  -0.007
C  C156  1  0.18784292  0.53969867  0.89132217  1  -0.100551  -0.008678  -0.243387  -0.47388  -0.005282  3.930908  -0.007
C  C157  1  0.81216097  0.46028389  0.10867630  1  -0.099783  -0.008673  -0.24332  -0.473763  -0.005281  3.931092  -0.007
C  C158  1  0.27831148  0.49815684  0.84055845  1  0.749235  0.006605  0.109176  0.466164  0.003395  4.068489  0.006
C  C159  1  0.72169684  0.50182956  0.15943887  1  0.747947  0.0066  0.109183  0.466212  0.003394  4.068725  0.006
C  C160  1  0.26937686  0.41190948  0.81495855  1  -0.050992  -0.002835  -0.182084  -0.52313  -0.001228  4.021412  -0.003
C  C161  1  0.73062724  0.58808215  0.18502884  1  -0.050656  -0.002838  -0.182087  -0.523133  -0.001229  4.021358  -0.003
C  C162  1  0.34274409  0.36221315  0.76560301  1  0.748104  0.006537  0.111898  0.472515  0.003367  4.062828  0.005
C  C163  1  0.65725466  0.63777833  0.23438275  1  0.74936  0.006542  0.111936  0.472675  0.003367  4.062622  0.005
C  C164  1  0.31636783  0.27011160  0.74690503  1  -0.067348  -0.008363  -0.244632  -0.47127  -0.005035  3.92777  -0.007
C  C165  1  0.68363517  0.72988412  0.25307436  1  -0.069194  -0.008369  -0.244599  -0.471207  -0.005035  3.92742  -0.007
C  C166  1  0.49156682  0.58208230  0.59607643  1  0.972651  0.003924  0.137954  0.089299  0.001997  3.909656  0.002
C  C167  1  0.50841750  0.41791125  0.40393043  1  0.972291  0.003926  0.137685  0.089175  0.001999  3.909261  0.002
C  C168  1  0.34247162  0.55957976  0.55892708  1  0.324109  -0.002973  -0.008759  -0.13646  -0.001726  3.965292  -0.002
C  C169  1  0.65753345  0.44041940  0.44107069  1  0.324622  -0.002976  -0.0087  -0.136409  -0.001728  3.965313  -0.002
C  C170  1  0.34172930  0.53419546  0.63472633  1  0.332899  0.00084  -0.004424  -0.035781  0.000198  4.027405  0.0
C  C171  1  0.65827790  0.46579567  0.36526299  1  0.332085  0.000841  -0.004506  -0.035761  0.000198  4.027141  0.0
C  C172  1  0.47572307  0.62372731  0.45845822  1  0.240923  -0.001238  -0.056746  -0.073962  -0.000744  3.86674  -0.001
C  C173  1  0.52428107  0.37627619  0.54153676  1  0.241203  -0.001237  -0.056685  -0.073846  -0.000744  3.866792  -0.001
C  C174  1  0.47804547  0.72127158  0.46009238  1  -0.034155  7e-06  -0.160086  -0.159576  -1.6e-05  3.951373  0.0
C  C175  1  0.52196116  0.27872767  0.53990693  1  -0.034473  7e-06  -0.160031  -0.15949  -1.6e-05  3.951099  0.0
C  C176  1  0.37574989  0.76238096  0.48886405  1  -0.064674  6.3e-05  -0.163594  -0.172236  3.9e-05  3.961666  0.0
C  C177  1  0.62425533  0.23761842  0.51113836  1  -0.065088  6.3e-05  -0.163613  -0.17228  3.9e-05  3.961567  0.0
C  C178  1  0.38072670  0.85990642  0.48915114  1  0.330444  -0.001306  -0.046339  -0.055073  -0.000826  3.928268  -0.001
C  C179  1  0.61927778  0.14008773  0.51084902  1  0.33034  -0.001305  -0.046425  -0.055268  -0.000826  3.928596  -0.001
C  C180  1  0.21399042  0.92935972  0.48147463  1  1.001444  0.005063  0.137338  0.090346  0.002675  3.909786  0.003
C  C181  1  0.78601300  0.07064512  0.51852219  1  1.00126  0.005064  0.137293  0.090256  0.002676  3.909751  0.003
C  C182  1  0.24635184  0.90654577  0.60152443  1  0.270072  -0.003221  -0.014462  -0.141228  -0.001834  3.968393  -0.002
C  C183  1  0.75365608  0.09346041  0.39847239  1  0.269994  -0.003221  -0.01455  -0.141169  -0.001834  3.968739  -0.002
C  C184  1  0.15126514  0.94060634  0.60485632  1  0.402084  0.001649  0.000882  -0.021504  0.000709  4.005661  0.001
C  C185  1  0.84873888  0.05940551  0.39513985  1  0.401985  0.001647  0.00091  -0.021699  0.000708  4.006306  0.001
C  C186  1  0.16308446  0.10669804  0.29062420  1  -0.108086  -0.008771  -0.247358  -0.473241  -0.005322  3.930268  -0.007
C  C187  1  0.83691225  0.89330619  0.70937524  1  -0.107747  -0.008771  -0.247463  -0.473439  -0.005322  3.930248  -0.007
C  C188  1  0.11065304  0.04312054  0.34631892  1  0.764112  0.006946  0.107212  0.469274  0.003596  4.068753  0.006
C  C189  1  0.88934447  0.95688901  0.65368450  1  0.712383  0.006902  0.10724  0.469283  0.003594  4.068676  0.006
C  C190  1  0.10324578  0.95797676  0.31690825  1  -0.085428  -0.002919  -0.188642  -0.532727  -0.001248  4.028773  -0.004
C  C191  1  0.89674872  0.04203146  0.68309498  1  -0.033449  -0.002879  -0.188604  -0.532481  -0.001247  4.02856  -0.004
C  C192  1  0.03830211  0.80836959  0.30618281  1  -0.105255  -0.008724  -0.246712  -0.471165  -0.005309  3.932395  -0.007
C  C193  1  0.96169333  0.19163693  0.69382495  1  -0.104838  -0.008723  -0.24667  -0.471086  -0.005308  3.932439  -0.007
C  C194  1  0.04505295  0.89186770  0.35367721  1  0.744915  0.006609  0.107207  0.47063  0.003377  4.070598  0.006
C  C195  1  0.95494090  0.10813935  0.64632843  1  0.744544  0.006607  0.107042  0.470381  0.003375  4.070777  0.006
N  N196  1  0.87165365  0.04583089  0.96365954  1  -1.164689  0.059834  -0.342979  -0.254649  0.039046  3.588724  0.054
N  N197  1  0.12834862  0.95417052  0.03634616  1  -1.164578  0.05983  -0.343054  -0.254725  0.039044  3.588688  0.054
N  N198  1  0.71700595  0.09251203  0.95981197  1  -1.228395  0.001072  -0.253041  0.023825  0.000653  3.813841  0.001
N  N199  1  0.28299685  0.90748381  0.04018376  1  -1.228641  0.001072  -0.253051  0.023813  0.000653  3.813756  0.001
N  N200  1  0.53894305  0.40022959  0.96909794  1  -1.231882  -0.001053  -0.246551  0.041341  -0.000586  3.775003  -0.001
N  N201  1  0.46106726  0.59975712  0.03089156  1  -1.23192  -0.001053  -0.246694  0.041142  -0.000586  3.775262  -0.001
N  N202  1  0.54026481  0.46017574  0.85463261  1  -1.147164  -0.062412  -0.347967  -0.274938  -0.038247  3.590288  -0.056
N  N203  1  0.45974307  0.53982120  0.14535779  1  -1.146948  -0.062407  -0.348037  -0.275098  -0.038245  3.590774  -0.056
N  N204  1  0.43534771  0.54820200  0.65694506  1  -1.19003  -0.061708  -0.34767  -0.275604  -0.037809  3.592768  -0.055
N  N205  1  0.56465213  0.45179457  0.34305338  1  -1.19001  -0.061717  -0.347454  -0.275535  -0.037817  3.592499  -0.055
N  N206  1  0.43825851  0.58969392  0.53506552  1  -1.219232  -0.001238  -0.249608  0.033618  -0.000672  3.78854  -0.001
N  N207  1  0.56175276  0.41030489  0.46493667  1  -1.219771  -0.001237  -0.249618  0.033395  -0.000672  3.788594  -0.001
N  N208  1  0.28559415  0.90008872  0.52261840  1  -1.222051  -0.000998  -0.252236  0.025596  -0.000535  3.810634  -0.001
N  N209  1  0.71441078  0.09991286  0.47737648  1  -1.221813  -0.000998  -0.252197  0.025653  -0.000535  3.810919  -0.001
N  N210  1  0.13233294  0.95443594  0.52981629  1  -1.170567  -0.060685  -0.343014  -0.252637  -0.03722  3.583158  -0.054
N  N211  1  0.86767029  0.04557519  0.47017824  1  -1.17051  -0.060689  -0.342978  -0.252481  -0.037223  3.583087  -0.054
O  O212  1  0.98903797  0.88679861  0.93553602  1  -1.112066  0.075882  -0.298474  -0.473438  0.047417  2.295758  0.072
O  O213  1  0.01095151  0.11320926  0.06447485  1  -1.113065  0.07587  -0.29854  -0.473558  0.047411  2.295724  0.072
O  O214  1  0.08570286  0.05300755  0.90592439  1  -1.112419  0.074412  -0.301463  -0.476607  0.046638  2.303441  0.07
O  O215  1  0.91430036  0.94699808  0.09408935  1  -1.112805  0.074419  -0.301442  -0.476465  0.046643  2.303226  0.07
O  O216  1  0.54235299  0.62466584  0.77608861  1  -1.115001  -0.074736  -0.294869  -0.471367  -0.044224  2.347938  -0.071
O  O217  1  0.45764066  0.37533372  0.22390714  1  -1.115046  -0.074731  -0.294921  -0.471429  -0.044221  2.347692  -0.071
O  O218  1  0.62236460  0.46782378  0.68992756  1  -1.116102  -0.072248  -0.296094  -0.478051  -0.042821  2.326006  -0.069
O  O219  1  0.37764244  0.53218221  0.31006530  1  -1.115973  -0.072259  -0.29598  -0.477872  -0.042824  2.325809  -0.069
O  O220  1  0.35587837  0.54504534  0.82523028  1  -1.115961  -0.074853  -0.298049  -0.478755  -0.044143  2.31744  -0.071
O  O221  1  0.64412976  0.45494473  0.17476357  1  -1.115584  -0.074847  -0.297987  -0.478779  -0.04414  2.317518  -0.071
O  O222  1  0.42945923  0.38710803  0.73513550  1  -1.112181  -0.073233  -0.296879  -0.472765  -0.043239  2.314827  -0.07
O  O223  1  0.57054509  0.61288196  0.26485769  1  -1.112027  -0.073229  -0.296907  -0.472866  -0.043237  2.314774  -0.07
O  O224  1  0.07619764  0.07235354  0.41510857  1  -1.10899  -0.075633  -0.298695  -0.468794  -0.044631  2.310008  -0.072
O  O225  1  0.92380293  0.92765544  0.58489562  1  -1.109377  -0.075619  -0.298736  -0.468818  -0.044625  2.310129  -0.072
O  O226  1  0.99534352  0.89628873  0.42244872  1  -1.109188  -0.076208  -0.299708  -0.472086  -0.044795  2.29713  -0.072
O  O227  1  0.00465629  0.10372286  0.57755674  1  -1.108909  -0.076204  -0.29961  -0.472017  -0.04479  2.296858  -0.072
