# generated using pymatgen
data_ZnH13C25S4Br2NO16
_symmetry_space_group_name_H-M   'P 1'
_cell_length_a   16.09198829
_cell_length_b   18.23118926
_cell_length_c   19.37984300
_cell_angle_alpha   90.69693867
_cell_angle_beta   88.74802658
_cell_angle_gamma   88.87216476
_symmetry_Int_Tables_number   1
_chemical_formula_structural   ZnH13C25S4Br2NO16
_chemical_formula_sum   'Zn2 H26 C50 S8 Br4 N2 O32'
_cell_volume   5682.67286276
_cell_formula_units_Z   2
loop_
 _symmetry_equiv_pos_site_id
 _symmetry_equiv_pos_as_xyz
  1  'x, y, z'
loop_
 _atom_site_type_symbol
 _atom_site_label
 _atom_site_symmetry_multiplicity
 _atom_site_fract_x
 _atom_site_fract_y
 _atom_site_fract_z
 _atom_site_occupancy
 _atom_site_pbe_bader_charge
 _atom_site_pbe_bader_spin_density
 _atom_site_pbe_cm5_charge
 _atom_site_pbe_ddec_charge
 _atom_site_pbe_ddec_spin_density
 _atom_site_pbe_ddec_sum_bond_order
 _atom_site_pbe_magmom
Zn  Zn0  1  0.50361707  0.42091372  0.50705931  1  1.277399  0  0.674632  0.824367  0  2.40309  0
Zn  Zn1  1  0.50341055  0.57501477  0.49028652  1  1.292258  0  0.678223  0.823797  0  2.433142  0
H  H2  1  0.39110895  0.30925889  0.56787700  1  0.145163  0  0.130792  0.119725  0  0.975248  0
H  H3  1  0.60715456  0.69128167  0.42622967  1  0.159061  0  0.134933  0.12195  0  0.959358  0
H  H4  1  0.60156627  0.16350932  0.43549335  1  0.12446  0  0.12639  0.145035  0  0.955319  0
H  H5  1  0.40417038  0.82658407  0.57559171  1  0.109944  0  0.120378  0.135945  0  0.969736  0
H  H6  1  0.60446665  0.30144934  0.44400833  1  0.14893  0  0.126781  0.107001  0  0.990231  0
H  H7  1  0.40582209  0.68872200  0.56324228  1  0.143225  0  0.131534  0.110905  0  0.968809  0
H  H8  1  0.44721026  0.92266591  0.40735743  1  0.134974  0  0.122777  0.141069  0  0.979059  0
H  H9  1  0.55014354  0.07201968  0.60200538  1  0.154143  0  0.122869  0.141848  0  0.974836  0
H  H10  1  0.96428225  0.41406048  0.40521418  1  0.142611  0  0.135698  0.152689  0  0.927397  0
H  H11  1  0.04274355  0.58117471  0.59217333  1  0.129833  0  0.128758  0.138755  0  0.941225  0
H  H12  1  0.40083250  0.43095607  0.84107332  1  0.08847  0  0.109818  0.112919  0  0.989266  0
H  H13  1  0.38247582  0.57078130  0.16468374  1  0.067083  0  0.110988  0.113958  0  0.986424  0
H  H14  1  0.41996840  0.42468036  0.71310220  1  0.098109  0  0.114785  0.119971  0  0.974329  0
H  H15  1  0.39854880  0.56997593  0.29218641  1  0.104637  0  0.119515  0.127521  0  0.963336  0
H  H16  1  0.59754897  0.52660161  0.93690294  1  0.112691  0  0.114716  0.13468  0  0.976811  0
H  H17  1  0.32925432  0.48747419  0.06222420  1  0.107256  0  0.114266  0.119463  0  0.974963  0
H  H18  1  0.59659806  0.49859386  0.06165760  1  0.121789  0  0.114173  0.133588  0  0.977183  0
H  H19  1  0.33010112  0.51575316  0.93726364  1  0.10208  0  0.111949  0.116403  0  0.979395  0
H  H20  1  0.96518391  0.60322772  0.33427184  1  0.656652  0  0.324662  0.393767  0  0.908657  0
H  H21  1  0.04859582  0.39732679  0.66026653  1  0.663436  0  0.319698  0.391543  0  0.921647  0
H  H22  1  0.36326595  0.17168796  0.38686458  1  0.624214  0  0.362066  0.417432  0  0.8177  0
H  H23  1  0.52643392  0.84650868  0.69810447  1  0.654566  0  0.357878  0.420144  0  0.822064  0
H  H24  1  0.00173749  0.73287523  0.52612910  1  0.629511  0  0.366995  0.414862  0  0.817909  0
H  H25  1  0.94719257  0.31496653  0.56812113  1  0.665658  0  0.320857  0.393111  0  0.919832  0
H  H26  1  0.49506432  0.64182605  0.96199816  1  0.626656  0  0.328336  0.378121  0  0.895276  0
H  H27  1  0.51098966  0.37590745  0.02869939  1  0.611505  0  0.327491  0.376499  0  0.895881  0
C  C28  1  0.49664912  0.48648956  0.36645001  1  1.611149  0  0.214419  0.602829  0  4.190282  0
C  C29  1  0.50037305  0.51296025  0.63098739  1  1.633097  0  0.214465  0.600998  0  4.189156  0
C  C30  1  0.50771029  0.58849369  0.81693861  1  -0.094383  0  -0.019876  -0.189657  0  3.887075  0
C  C31  1  0.51351260  0.42251723  0.17681235  1  -0.061593  0  -0.018281  -0.185239  0  3.88594  0
C  C32  1  0.46639038  0.53190032  0.85235196  1  -0.025452  0  0.001102  0.074941  0  3.987381  0
C  C33  1  0.46420784  0.47756287  0.14588646  1  -0.052354  0  -0.000112  0.071717  0  3.991842  0
C  C34  1  0.43304210  0.47436227  0.81380106  1  0.033791  0  -0.086516  -0.129897  0  3.988463  0
C  C35  1  0.42116077  0.52882062  0.18851595  1  0.011852  0  -0.083547  -0.126392  0  3.980415  0
C  C36  1  0.44458183  0.47017609  0.74280630  1  -0.006478  0  -0.073133  -0.06274  0  3.971392  0
C  C37  1  0.43098001  0.52916804  0.25942635  1  0.030674  0  -0.069633  -0.060006  0  3.954149  0
C  C38  1  0.49100214  0.52268240  0.70787828  1  -0.016734  0  -0.012936  -0.059563  0  3.9331  0
C  C39  1  0.48571818  0.47922539  0.28984484  1  -0.021966  0  -0.011313  -0.057501  0  3.936186  0
C  C40  1  0.53860749  0.51849255  0.96430644  1  -0.054727  0  -0.092356  -0.150199  0  3.992922  0
C  C41  1  0.38799910  0.49645712  0.03479533  1  -0.124381  0  -0.081641  -0.115935  0  3.9692  0
C  C42  1  0.53807605  0.50246867  0.03451048  1  -0.087393  0  -0.090467  -0.144161  0  3.988488  0
C  C43  1  0.38853277  0.51197624  0.96458848  1  -0.04966  0  -0.084996  -0.122035  0  3.978374  0
C  C44  1  0.46280498  0.49055667  0.07054564  1  0.000772  0  -0.010123  0.04919  0  4.045167  0
C  C45  1  0.46371392  0.52318808  0.92836513  1  -0.023979  0  -0.012925  0.045921  0  4.050762  0
C  C46  1  0.43736417  0.27474479  0.54046094  1  0.540441  0  0.055472  0.050836  0  3.899875  0
C  C47  1  0.56302462  0.72340566  0.45825122  1  0.582648  0  0.061988  0.061342  0  3.888072  0
C  C48  1  0.43259236  0.19843185  0.53930805  1  -0.105514  0  -0.009594  0.012626  0  3.961719  0
C  C49  1  0.56632184  0.79959807  0.46263065  1  -0.094468  0  -0.002581  0.030309  0  3.929432  0
C  C50  1  0.34187182  0.50048653  0.50494862  1  1.654315  0  0.222868  0.658968  0  4.250375  0
C  C51  1  0.66447832  0.49251336  0.49351804  1  1.723354  0  0.226178  0.658603  0  4.247942  0
C  C52  1  0.49242269  0.15639853  0.50177424  1  0.080635  0  0.006933  0.047607  0  4.007707  0
C  C53  1  0.50856025  0.83852022  0.50496340  1  -0.052538  0  0.010875  0.06311  0  3.992738  0
C  C54  1  0.55487543  0.19397832  0.46624165  1  0.014695  0  -0.066442  -0.14132  0  3.924824  0
C  C55  1  0.44978945  0.79828432  0.54197519  1  0.062355  0  -0.073392  -0.159946  0  3.946544  0
C  C56  1  0.55663149  0.26998710  0.47022506  1  0.451895  0  0.061819  0.103185  0  3.897694  0
C  C57  1  0.44996026  0.72246702  0.53525154  1  0.438897  0  0.060503  0.10424  0  3.915566  0
C  C58  1  0.46487138  0.03126427  0.44754207  1  -0.146359  0  -0.002292  -0.102689  0  3.912216  0
C  C59  1  0.53309832  0.96335886  0.56145086  1  -0.121848  0  -0.002923  -0.103234  0  3.90147  0
C  C60  1  0.47012471  0.95501844  0.45031458  1  0.033153  0  -0.06917  -0.124017  0  3.941667  0
C  C61  1  0.52696486  0.03971835  0.55910356  1  0.004987  0  -0.067629  -0.117306  0  3.925109  0
C  C62  1  0.50491703  0.91983577  0.50688992  1  0.0701  0  0.007105  0.076039  0  3.988219  0
C  C63  1  0.49346665  0.07493115  0.50196875  1  -0.043338  0  0.004473  0.070199  0  3.991189  0
C  C64  1  0.98144327  0.45116731  0.44692825  1  0.012311  0  -0.048715  -0.070519  0  3.578823  0
C  C65  1  0.02518573  0.54434790  0.55035154  1  0.002875  0  -0.050394  -0.06939  0  3.597149  0
C  C66  1  0.03554981  0.52042865  0.43755390  1  -0.10021  0  0.006667  -0.110259  0  3.626318  0
C  C67  1  0.97109570  0.47524270  0.55960584  1  -0.102097  0  0.003216  -0.127061  0  3.66038  0
C  C68  1  0.25184170  0.50126571  0.50708799  1  0.224884  0  -0.016329  -0.113285  0  3.918248  0
C  C69  1  0.75457327  0.49221219  0.49164655  1  0.062696  0  -0.011738  -0.101813  0  3.903388  0
C  C70  1  0.03242383  0.42901785  0.51107272  1  -0.118642  0  0.001563  -0.13462  0  3.657054  0
C  C71  1  0.97436528  0.56661866  0.48607298  1  -0.103822  0  0.004189  -0.125736  0  3.640635  0
C  C72  1  0.08907129  0.49903347  0.50264151  1  0.113686  0  0.032188  0.154084  0  3.762335  0
C  C73  1  0.91745379  0.49630056  0.49460086  1  0.073206  0  0.032672  0.154936  0  3.760775  0
C  C74  1  0.17640933  0.50075360  0.50604167  1  -0.386028  0  -0.045108  -0.080178  0  4.084361  0
C  C75  1  0.83000232  0.49414120  0.49213075  1  -0.253309  0  -0.045907  -0.085869  0  4.079989  0
C  C76  1  0.52313249  0.58183813  0.74523491  1  -0.082985  0  0.000417  0.090256  0  3.908733  0
C  C77  1  0.52714925  0.42601697  0.24832416  1  -0.0754  0  0.000127  0.090307  0  3.913189  0
S  S78  1  0.07923462  0.54813441  0.35725714  1  3.151227  0  0.533491  1.141662  0  6.088787  0
S  S79  1  0.92994505  0.44431859  0.63933869  1  3.138701  0  0.548238  1.154948  0  6.045489  0
S  S80  1  0.42574716  0.06873501  0.36926651  1  3.083633  0  0.546071  1.157524  0  5.988652  0
S  S81  1  0.58662692  0.92459509  0.63289795  1  3.065038  0  0.544268  1.161137  0  5.975912  0
S  S82  1  0.93135098  0.65489618  0.47120297  1  3.05915  0  0.552224  1.15558  0  6.001441  0
S  S83  1  0.06875285  0.33954040  0.53067477  1  3.119133  0  0.546488  1.156853  0  6.041463  0
S  S84  1  0.53997203  0.67072553  0.86135854  1  3.068568  0  0.529145  1.161541  0  6.006376  0
S  S85  1  0.55786639  0.34602478  0.12719394  1  3.081537  0  0.528139  1.154863  0  6.006647  0
Br  Br86  1  0.34448687  0.15400595  0.58840319  1  -0.008871  0  0.055889  -0.021276  0  1.354809  0
Br  Br87  1  0.64969225  0.84812573  0.41163683  1  -0.003868  0  0.060353  -0.019621  0  1.346553  0
Br  Br88  1  0.59614214  0.64658113  0.69887687  1  0.011551  0  0.06465  0.002574  0  1.467769  0
Br  Br89  1  0.60989886  0.36566914  0.28899740  1  -0.005245  0  0.057812  -0.015018  0  1.470871  0
N  N90  1  0.49894164  0.30909253  0.50701518  1  -1.227966  0  -0.31588  -0.176484  0  3.52783  0
N  N91  1  0.50531684  0.68635529  0.49368060  1  -1.240321  0  -0.319083  -0.183071  0  3.543304  0
O  O92  1  0.48246657  0.43071467  0.40296408  1  -1.152804  0  -0.313715  -0.55005  0  2.355838  0
O  O93  1  0.48299875  0.56836649  0.59476750  1  -1.168233  0  -0.312953  -0.55876  0  2.412055  0
O  O94  1  0.51604061  0.54996312  0.38804531  1  -1.156004  0  -0.31507  -0.536135  0  2.296681  0
O  O95  1  0.52069027  0.44904218  0.60881714  1  -1.15374  0  -0.314216  -0.532216  0  2.279575  0
O  O96  1  0.37722961  0.44190148  0.52546916  1  -1.14471  0  -0.307212  -0.535894  0  2.262188  0
O  O97  1  0.62945288  0.55512714  0.50122686  1  -1.134312  0  -0.301362  -0.525904  0  2.269939  0
O  O98  1  0.37574744  0.55798240  0.48243207  1  -1.140115  0  -0.305205  -0.527149  0  2.245458  0
O  O99  1  0.63011186  0.43060640  0.48779195  1  -1.138168  0  -0.30577  -0.538245  0  2.276656  0
O  O100  1  0.11919865  0.61683368  0.36889855  1  -1.279784  0  -0.310856  -0.517333  0  2.111585  0
O  O101  1  0.12213025  0.48589334  0.32673733  1  -1.275736  0  -0.301743  -0.491699  0  2.084139  0
O  O102  1  0.99678148  0.55998726  0.31431944  1  -1.222669  0  -0.355735  -0.515974  0  2.14912  0
O  O103  1  0.87830464  0.50004190  0.67117383  1  -1.261972  0  -0.282425  -0.467309  0  2.09039  0
O  O104  1  0.89709058  0.37183299  0.62550343  1  -1.296252  0  -0.30587  -0.543462  0  2.158995  0
O  O105  1  0.01162781  0.43682512  0.68272667  1  -1.238839  0  -0.348188  -0.507957  0  2.158824  0
O  O106  1  0.48790981  0.11485881  0.33888518  1  -1.280531  0  -0.304671  -0.526787  0  2.11215  0
O  O107  1  0.38979905  0.00975960  0.33150224  1  -1.274075  0  -0.296326  -0.492642  0  2.098927  0
O  O108  1  0.35027443  0.12087417  0.39821703  1  -1.175369  0  -0.355207  -0.532879  0  2.138704  0
O  O109  1  0.63928823  0.86430068  0.60902870  1  -1.283181  0  -0.309349  -0.533012  0  2.126225  0
O  O110  1  0.61963668  0.98410913  0.67215577  1  -1.272949  0  -0.30296  -0.505898  0  2.096124  0
O  O111  1  0.50812434  0.89143065  0.67471522  1  -1.198973  0  -0.35907  -0.544059  0  2.120983  0
O  O112  1  0.91175024  0.65849274  0.39897890  1  -1.282106  0  -0.289589  -0.511459  0  2.157875  0
O  O113  1  0.86989204  0.67178985  0.52399683  1  -1.260149  0  -0.289804  -0.497508  0  2.096204  0
O  O114  1  0.01000086  0.70662767  0.48197151  1  -1.163614  0  -0.343751  -0.509378  0  2.131759  0
O  O115  1  0.12199987  0.31094927  0.47660385  1  -1.262771  0  -0.286497  -0.471868  0  2.086633  0
O  O116  1  0.09885735  0.34374605  0.60104484  1  -1.296421  0  -0.310822  -0.553785  0  2.165326  0
O  O117  1  0.98532355  0.29531734  0.52967158  1  -1.232259  0  -0.3461  -0.506486  0  2.159269  0
O  O118  1  0.62311567  0.65893991  0.88540214  1  -1.280006  0  -0.314969  -0.534324  0  2.107881  0
O  O119  1  0.51758958  0.73348261  0.82139564  1  -1.287514  0  -0.318798  -0.524822  0  2.139321  0
O  O120  1  0.47677709  0.67660011  0.92673624  1  -1.192939  0  -0.359795  -0.514  0  2.164775  0
O  O121  1  0.63884506  0.36597355  0.10132065  1  -1.289687  0  -0.320303  -0.541705  0  2.109154  0
O  O122  1  0.54458221  0.27992364  0.16451164  1  -1.267994  0  -0.304202  -0.496631  0  2.134315  0
O  O123  1  0.49609092  0.33910240  0.06320147  1  -1.187517  0  -0.360404  -0.514623  0  2.162977  0
