# generated using pymatgen
data_CsH7(CO)8
_symmetry_space_group_name_H-M   'P 1'
_cell_length_a   5.10264174
_cell_length_b   10.03295375
_cell_length_c   12.51616870
_cell_angle_alpha   93.71705265
_cell_angle_beta   99.76643587
_cell_angle_gamma   68.95716727
_symmetry_Int_Tables_number   1
_chemical_formula_structural   CsH7(CO)8
_chemical_formula_sum   'Cs2 H14 C16 O16'
_cell_volume   589.35670468
_cell_formula_units_Z   2
loop_
 _symmetry_equiv_pos_site_id
 _symmetry_equiv_pos_as_xyz
  1  'x, y, z'
loop_
 _atom_site_type_symbol
 _atom_site_label
 _atom_site_symmetry_multiplicity
 _atom_site_fract_x
 _atom_site_fract_y
 _atom_site_fract_z
 _atom_site_occupancy
 _atom_site_hle17_bader_spin_density
 _atom_site_hle17_ddec_charge
 _atom_site_hle17_ddec_spin_density
 _atom_site_hle17_ddec_sum_bond_order
 _atom_site_hle17_magmom
 _atom_site_hse06_10hf_bader_spin_density
 _atom_site_hse06_10hf_ddec_charge
 _atom_site_hse06_10hf_ddec_spin_density
 _atom_site_hse06_10hf_ddec_sum_bond_order
 _atom_site_hse06_10hf_magmom
 _atom_site_hse06_bader_spin_density
 _atom_site_hse06_ddec_charge
 _atom_site_hse06_ddec_spin_density
 _atom_site_hse06_ddec_sum_bond_order
 _atom_site_hse06_magmom
 _atom_site_pbe_bader_spin_density
 _atom_site_pbe_cm5_charge
 _atom_site_pbe_ddec_charge
 _atom_site_pbe_ddec_spin_density
 _atom_site_pbe_ddec_sum_bond_order
 _atom_site_pbe_magmom
Cs  Cs0  1  0.81108131  0.37499970  0.13854077  1  0  0.960146  0  0.511149  0  0  0.902047  0  0.734273  0  0  0.919378  0  0.709046  0  0  0.845117  0.888745  0  0.752454  0
Cs  Cs1  1  0.18891097  0.62499429  0.86146775  1  0  0.960123  0  0.51122  0  0  0.902042  0  0.734337  0  0  0.919368  0  0.70911  0  0  0.845112  0.888714  0  0.752514  0
H  H2  1  0.35849519  0.96096489  0.27603585  1  0  0.119596  0  0.972515  0  0  0.127455  0  1.035071  0  0  0.131577  0  1.032756  0  0  0.110417  0.124435  0  1.036888  0
H  H3  1  0.64147202  0.03904051  0.72395108  1  0  0.11959  0  0.972513  0  0  0.127437  0  1.035089  0  0  0.131555  0  1.032783  0  0  0.110433  0.12441  0  1.036913  0
H  H4  1  0.44084885  0.75711262  0.16679388  1  0  0.124825  0  0.969945  0  0  0.128097  0  1.039595  0  0  0.133065  0  1.03593  0  0  0.114182  0.124767  0  1.04184  0
H  H5  1  0.55911067  0.24289940  0.83319325  1  0  0.124833  0  0.969902  0  0  0.128079  0  1.039567  0  0  0.133045  0  1.035902  0  0  0.114147  0.12475  0  1.041805  0
H  H6  1  0.83221763  0.95026936  0.08569960  1  0  0.393663  0  0.917887  0  0  0.365974  0  0.986685  0  0  0.378383  0  0.96998  0  0  0.299418  0.357111  0  0.996982  0
H  H7  1  0.16774503  0.04973223  0.91427449  1  0  0.393665  0  0.918053  0  0  0.365972  0  0.986736  0  0  0.378374  0  0.97004  0  0  0.299391  0.357115  0  0.997137  0
H  H8  1  0.35133327  0.16109949  0.34652578  1  0  0.390462  0  0.918517  0  0  0.356201  0  1.002403  0  0  0.370763  0  0.984255  0  0  0.290868  0.346102  0  1.011723  0
H  H9  1  0.64867796  0.83891095  0.65348642  1  0  0.390592  0  0.918496  0  0  0.356295  0  1.002439  0  0  0.370858  0  0.984173  0  0  0.290915  0.346201  0  1.011754  0
H  H10  1  0.84001260  0.11080637  0.49049061  1  0  0.124275  0  0.944783  0  0  0.130807  0  1.008195  0  0  0.13483  0  1.006375  0  0  0.111319  0.128003  0  1.009445  0
H  H11  1  0.16001698  0.88918069  0.50951702  1  0  0.124321  0  0.944711  0  0  0.130837  0  1.008136  0  0  0.134831  0  1.006352  0  0  0.111318  0.128036  0  1.009377  0
H  H12  1  0.65182537  0.21425477  0.64622696  1  0  0.117007  0  0.956164  0  0  0.125703  0  1.017058  0  0  0.128771  0  1.016034  0  0  0.112183  0.123504  0  1.0179  0
H  H13  1  0.34820050  0.78574163  0.35377922  1  0  0.116981  0  0.956205  0  0  0.125659  0  1.017123  0  0  0.128726  0  1.016099  0  0  0.112195  0.123459  0  1.017968  0
H  H14  1  0.08386604  0.40198849  0.59607381  1  0  0.393907  0  0.914462  0  0  0.36384  0  0.988579  0  0  0.376256  0  0.971617  0  0  0.301764  0.355196  0  0.998907  0
H  H15  1  0.91611420  0.59804410  0.40394507  1  0  0.393629  0  0.914804  0  0  0.363627  0  0.988884  0  0  0.376039  0  0.971929  0  0  0.30171  0.354987  0  0.99914  0
C  C16  1  0.60677551  0.06843468  0.21738082  1  0  0.684666  0  3.859137  0  0  0.637508  0  4.158199  0  0  0.671911  0  4.149346  0  0  0.217619  0.614258  0  4.16347  0
C  C17  1  0.39323010  0.93155857  0.78260555  1  0  0.684662  0  3.859322  0  0  0.637691  0  4.158091  0  0  0.672078  0  4.149259  0  0  0.217801  0.614459  0  4.163338  0
C  C18  1  0.49973418  0.94830565  0.21676026  1  0  -0.183082  0  3.643405  0  0  -0.202561  0  3.89961  0  0  -0.209407  0  3.915149  0  0  -0.080666  -0.197936  0  3.889053  0
C  C19  1  0.50025807  0.05170128  0.78323703  1  0  -0.183033  0  3.643477  0  0  -0.202569  0  3.89963  0  0  -0.209414  0  3.91518  0  0  -0.080692  -0.197955  0  3.889083  0
C  C20  1  0.54436188  0.83142788  0.15278945  1  0  -0.15577  0  3.621686  0  0  -0.174198  0  3.875279  0  0  -0.178565  0  3.888875  0  0  -0.070629  -0.171289  0  3.865897  0
C  C21  1  0.45563682  0.16857455  0.84720748  1  0  -0.155867  0  3.62158  0  0  -0.174253  0  3.875272  0  0  -0.178611  0  3.88886  0  0  -0.070615  -0.171351  0  3.865888  0
C  C22  1  0.71121014  0.78337907  0.06181139  1  0  0.688821  0  3.846283  0  0  0.647784  0  4.138715  0  0  0.680815  0  4.12931  0  0  0.21547  0.625222  0  4.144807  0
C  C23  1  0.28878594  0.21662625  0.93819015  1  0  0.68934  0  3.846092  0  0  0.648152  0  4.13873  0  0  0.681182  0  4.129315  0  0  0.215687  0.625606  0  4.144817  0
C  C24  1  0.11390639  0.22839823  0.47460460  1  0  0.68778  0  3.828126  0  0  0.642637  0  4.119573  0  0  0.677258  0  4.109654  0  0  0.233441  0.619318  0  4.12565  0
C  C25  1  0.88610414  0.77160853  0.52540375  1  0  0.687615  0  3.828234  0  0  0.642612  0  4.119486  0  0  0.677236  0  4.109565  0  0  0.233447  0.619312  0  4.125531  0
C  C26  1  0.90953394  0.19512821  0.52997604  1  0  -0.159524  0  3.631955  0  0  -0.182223  0  3.892498  0  0  -0.188123  0  3.905863  0  0  -0.073994  -0.17847  0  3.883609  0
C  C27  1  0.09051088  0.80486430  0.47001640  1  0  -0.159749  0  3.632612  0  0  -0.182475  0  3.893141  0  0  -0.188352  0  3.906519  0  0  -0.074187  -0.178718  0  3.884235  0
C  C28  1  0.80083498  0.25508479  0.61964108  1  0  -0.147911  0  3.63034  0  0  -0.167278  0  3.882588  0  0  -0.171518  0  3.897884  0  0  -0.070109  -0.164531  0  3.872568  0
C  C29  1  0.19918418  0.74492051  0.38036681  1  0  -0.147714  0  3.630845  0  0  -0.167019  0  3.883116  0  0  -0.171258  0  3.8984  0  0  -0.070063  -0.164281  0  3.873098  0
C  C30  1  0.84372766  0.37168185  0.69221598  1  0  0.681267  0  3.847981  0  0  0.642639  0  4.137455  0  0  0.674732  0  4.129071  0  0  0.225429  0.620896  0  4.142592  0
C  C31  1  0.15627319  0.62832114  0.30779229  1  0  0.681332  0  3.847252  0  0  0.642564  0  4.136973  0  0  0.674671  0  4.128576  0  0  0.225441  0.620831  0  4.142105  0
O  O32  1  0.78208327  0.06763738  0.15625975  1  0  -0.598823  0  2.01102  0  0  -0.547887  0  2.231737  0  0  -0.572755  0  2.222331  0  0  -0.3489  -0.530613  0  2.237555  0
O  O33  1  0.21789216  0.93235262  0.84372427  1  0  -0.598933  0  2.010941  0  0  -0.548027  0  2.231461  0  0  -0.57289  0  2.222064  0  0  -0.349066  -0.530766  0  2.2373  0
O  O34  1  0.51272927  0.17369395  0.28220540  1  0  -0.602059  0  2.014557  0  0  -0.55423  0  2.238616  0  0  -0.578577  0  2.225135  0  0  -0.326161  -0.537295  0  2.245723  0
O  O35  1  0.48728647  0.82631239  0.71778052  1  0  -0.601997  0  2.014974  0  0  -0.554219  0  2.238983  0  0  -0.578561  0  2.225463  0  0  -0.326191  -0.537304  0  2.24608  0
O  O36  1  0.85452675  0.85879938  0.03406529  1  0  -0.568999  0  2.073598  0  0  -0.517043  0  2.283027  0  0  -0.540915  0  2.268006  0  0  -0.359058  -0.500214  0  2.292025  0
O  O37  1  0.14543368  0.14118859  0.96590789  1  0  -0.569414  0  2.073623  0  0  -0.517349  0  2.282907  0  0  -0.541238  0  2.267915  0  0  -0.3592  -0.500532  0  2.291985  0
O  O38  1  0.71099669  0.67179016  0.01234858  1  0  -0.652855  0  1.947067  0  0  -0.615436  0  2.176842  0  0  -0.636785  0  2.168202  0  0  -0.425682  -0.600401  0  2.182835  0
O  O39  1  0.28900948  0.32818188  0.98765677  1  0  -0.652862  0  1.947393  0  0  -0.615394  0  2.177242  0  0  -0.636732  0  2.168598  0  0  -0.425687  -0.60038  0  2.183237  0
O  O40  1  0.20191930  0.13875385  0.39717881  1  0  -0.574517  0  2.077117  0  0  -0.523761  0  2.302121  0  0  -0.548946  0  2.28707  0  0  -0.319033  -0.50628  0  2.309974  0
O  O41  1  0.79813195  0.86125327  0.60283640  1  0  -0.574571  0  2.077323  0  0  -0.523834  0  2.302313  0  0  -0.549008  0  2.287177  0  0  -0.31897  -0.506345  0  2.310122  0
O  O42  1  0.19330644  0.33267424  0.50014409  1  0  -0.552775  0  1.996607  0  0  -0.499631  0  2.201329  0  0  -0.522662  0  2.192127  0  0  -0.282661  -0.484125  0  2.207025  0
O  O43  1  0.80666440  0.66733743  0.49985793  1  0  -0.552512  0  1.996562  0  0  -0.499486  0  2.201255  0  0  -0.522524  0  2.192064  0  0  -0.282576  -0.483987  0  2.206919  0
O  O44  1  0.00726122  0.43927405  0.66938180  1  0  -0.579974  0  2.128238  0  0  -0.530884  0  2.346837  0  0  -0.554276  0  2.330541  0  0  -0.377466  -0.514562  0  2.356208  0
O  O45  1  0.99272596  0.56073642  0.33063774  1  0  -0.579895  0  2.12808  0  0  -0.530777  0  2.346687  0  0  -0.554181  0  2.330405  0  0  -0.377511  -0.514454  0  2.355995  0
O  O46  1  0.72579739  0.40319111  0.77387370  1  0  -0.590103  0  1.910358  0  0  -0.555567  0  2.130253  0  0  -0.575201  0  2.121318  0  0  -0.342873  -0.541826  0  2.135659  0
O  O47  1  0.27419781  0.59679098  0.22612590  1  0  -0.590159  0  1.909968  0  0  -0.555558  0  2.129909  0  0  -0.5752  0  2.120965  0  0  -0.34283  -0.541823  0  2.135323  0
