# generated using pymatgen
data_CdH36C42S2(N5O2)2
_symmetry_space_group_name_H-M   'P 1'
_cell_length_a   10.08264615
_cell_length_b   10.60534103
_cell_length_c   11.16464718
_cell_angle_alpha   71.17973438
_cell_angle_beta   75.99526127
_cell_angle_gamma   68.83757746
_symmetry_Int_Tables_number   1
_chemical_formula_structural   CdH36C42S2(N5O2)2
_chemical_formula_sum   'Cd1 H36 C42 S2 N10 O4'
_cell_volume   1043.08771271
_cell_formula_units_Z   1
loop_
 _symmetry_equiv_pos_site_id
 _symmetry_equiv_pos_as_xyz
  1  'x, y, z'
loop_
 _atom_site_type_symbol
 _atom_site_label
 _atom_site_symmetry_multiplicity
 _atom_site_fract_x
 _atom_site_fract_y
 _atom_site_fract_z
 _atom_site_occupancy
 _atom_site_pbe_bader_charge
 _atom_site_pbe_bader_spin_density
 _atom_site_pbe_cm5_charge
 _atom_site_pbe_ddec_charge
 _atom_site_pbe_ddec_spin_density
 _atom_site_pbe_ddec_sum_bond_order
 _atom_site_pbe_magmom
Cd  Cd0  1  0.99999060  0.00001108  0.49999645  1  1.240672  0  0.806455  0.75411  0  2.435051  0
H  H1  1  0.18993104  0.07525718  0.98470233  1  0.467681  0  0.279714  0.241157  0  1.046074  0
H  H2  1  0.81006615  0.92473759  0.01529481  1  0.46763  0  0.279673  0.241141  0  1.046129  0
H  H3  1  0.98022073  0.10400914  0.73626376  1  0.176018  0  0.113287  0.099293  0  1.059436  0
H  H4  1  0.01977478  0.89599755  0.26373052  1  0.176071  0  0.113278  0.099323  0  1.059494  0
H  H5  1  0.34360001  0.92477773  0.50732112  1  0.09629  0  0.114486  0.085907  0  1.022124  0
H  H6  1  0.65638852  0.07521252  0.49267029  1  0.096398  0  0.114455  0.085877  0  1.02206  0
H  H7  1  0.50674583  0.91720241  0.64971195  1  0.099924  0  0.11163  0.120703  0  1.005563  0
H  H8  1  0.49324437  0.08276328  0.35028903  1  0.099929  0  0.111713  0.120825  0  1.005469  0
H  H9  1  0.39757837  0.00571122  0.84446415  1  0.135525  0  0.091626  0.103687  0  1.075988  0
H  H10  1  0.60241836  0.99424556  0.15554255  1  0.135662  0  0.091648  0.103591  0  1.076016  0
H  H11  1  0.84317194  0.23386311  0.11609165  1  0.063857  0  0.10587  0.132954  0  0.981948  0
H  H12  1  0.15681553  0.76613222  0.88389976  1  0.063845  0  0.105894  0.132952  0  0.98196  0
H  H13  1  0.02692769  0.14975160  0.14109433  1  0.052016  0  0.099496  0.1187  0  1.016807  0
H  H14  1  0.97306493  0.85024031  0.85890472  1  0.052028  0  0.099452  0.11859  0  1.016891  0
H  H15  1  0.75469354  0.48452869  0.02087822  1  0.089824  0  0.095355  0.098821  0  1.050777  0
H  H16  1  0.24529529  0.51546511  0.97912466  1  0.089978  0  0.09534  0.098818  0  1.050712  0
H  H17  1  0.20595031  0.28334370  0.04899557  1  0.087055  0  0.084117  0.084989  0  1.064767  0
H  H18  1  0.79403594  0.71665417  0.95100348  1  0.086822  0  0.084145  0.085003  0  1.064675  0
H  H19  1  0.86074304  0.39734458  0.75593202  1  0.521783  0  0.306065  0.27963  0  1.003559  0
H  H20  1  0.13927968  0.60265408  0.24405842  1  0.521763  0  0.306099  0.279701  0  1.003472  0
H  H21  1  0.82813754  0.77347914  0.61960818  1  0.13246  0  0.116072  0.099041  0  1.031916  0
H  H22  1  0.17184929  0.22653337  0.38041382  1  0.132535  0  0.11611  0.099167  0  1.031791  0
H  H23  1  0.26677435  0.70990046  0.56590683  1  0.067341  0  0.110665  0.078645  0  1.017087  0
H  H24  1  0.73321099  0.29013503  0.43407119  1  0.06779  0  0.110709  0.078652  0  1.017019  0
H  H25  1  0.31948740  0.44774784  0.63368474  1  0.088942  0  0.111473  0.117544  0  0.984473  0
H  H26  1  0.68051908  0.55228444  0.36626747  1  0.088715  0  0.111421  0.117457  0  0.984566  0
H  H27  1  0.11498865  0.34958141  0.69169307  1  0.063132  0  0.109562  0.115644  0  1.006353  0
H  H28  1  0.88502558  0.65043717  0.30826392  1  0.062959  0  0.109646  0.115835  0  1.006191  0
H  H29  1  0.51104594  0.51872477  0.68084490  1  0.060069  0  0.102191  0.122041  0  0.984381  0
H  H30  1  0.48896596  0.48124949  0.31918666  1  0.059782  0  0.102212  0.12199  0  0.984486  0
H  H31  1  0.65395827  0.36640866  0.73634423  1  0.048504  0  0.106281  0.132395  0  0.980068  0
H  H32  1  0.34606640  0.63358047  0.26368063  1  0.048697  0  0.106333  0.132342  0  0.980079  0
H  H33  1  0.49914031  0.71320190  0.82278186  1  0.092139  0  0.094155  0.096285  0  1.050396  0
H  H34  1  0.50088755  0.28679124  0.17723630  1  0.091402  0  0.09414  0.096357  0  1.050378  0
H  H35  1  0.58665200  0.26626890  0.95503992  1  0.078029  0  0.088907  0.089353  0  1.058157  0
H  H36  1  0.41337525  0.73371749  0.04498207  1  0.077783  0  0.088861  0.089384  0  1.058167  0
C  C37  1  0.17922547  0.06120913  0.80714899  1  0.311656  0  0.101014  0.205441  0  4.01054  0
C  C38  1  0.82077141  0.93877944  0.19285007  1  0.31223  0  0.100979  0.205468  0  4.010452  0
C  C39  1  0.09674159  0.06387500  0.72108274  1  0.505079  0  0.033627  -0.026625  0  3.923277  0
C  C40  1  0.90325468  0.93612512  0.27891345  1  0.504604  0  0.03369  -0.026671  0  3.923345  0
C  C41  1  0.30138198  0.96329585  0.59281780  1  0.510111  0  0.040445  0.07043  0  3.954849  0
C  C42  1  0.69860609  0.03669264  0.40717648  1  0.510437  0  0.040402  0.070355  0  3.954532  0
C  C43  1  0.39071426  0.96003281  0.67208935  1  -0.040205  0  -0.077369  -0.098576  0  3.981726  0
C  C44  1  0.60927473  0.03994844  0.32790588  1  -0.039853  0  -0.077366  -0.098609  0  3.981193  0
C  C45  1  0.32929438  0.00851820  0.78068290  1  -0.021186  0  -0.071508  -0.126764  0  3.913331  0
C  C46  1  0.67070357  0.99145113  0.21931616  1  -0.021883  0  -0.071607  -0.126768  0  3.913088  0
C  C47  1  0.98268303  0.18560698  0.94954017  1  1.372692  0  0.247913  0.536346  0  4.057076  0
C  C48  1  0.01731294  0.81439297  0.05045124  1  1.372119  0  0.247974  0.536444  0  4.056857  0
C  C49  1  0.95482253  0.22724579  0.07369250  1  -0.027663  0  -0.158429  -0.343693  0  3.938438  0
C  C50  1  0.04516857  0.77274604  0.92630273  1  -0.027126  0  -0.1584  -0.343475  0  3.93835  0
C  C51  1  0.97745323  0.36867522  0.04001651  1  -0.016006  0  -0.018239  0.124194  0  3.972834  0
C  C52  1  0.02253043  0.63132068  0.95998542  1  -0.016121  0  -0.018152  0.12424  0  3.973016  0
C  C53  1  0.86224665  0.49119113  0.01206591  1  -0.119896  0  -0.101571  -0.140174  0  3.984094  0
C  C54  1  0.13774248  0.50880604  0.98793506  1  -0.119773  0  -0.101563  -0.140195  0  3.984154  0
C  C55  1  0.11536817  0.37846035  0.02738345  1  -0.028339  0  -0.099295  -0.13663  0  3.986065  0
C  C56  1  0.88462248  0.62154011  0.97261465  1  -0.028045  0  -0.099417  -0.13676  0  3.986192  0
C  C57  1  0.95447601  0.55376491  0.66143040  1  0.354354  0  0.105791  0.211681  0  4.01474  0
C  C58  1  0.04552193  0.44625252  0.33856866  1  0.354499  0  0.105851  0.211868  0  4.014316  0
C  C59  1  0.93516077  0.69848729  0.62410033  1  0.52518  0  0.041644  -0.002821  0  3.899853  0
C  C60  1  0.06482911  0.30153122  0.37590924  1  0.52514  0  0.041422  -0.003095  0  3.899922  0
C  C61  1  0.18085743  0.66194217  0.59514268  1  0.454404  0  0.033809  0.064004  0  3.979791  0
C  C62  1  0.81913444  0.33808348  0.40484107  1  0.454498  0  0.033937  0.0643  0  3.979599  0
C  C63  1  0.20932025  0.51720944  0.63228081  1  0.028504  0  -0.082613  -0.108311  0  4.008032  0
C  C64  1  0.79067831  0.48281816  0.36768766  1  0.028539  0  -0.082708  -0.108398  0  4.008431  0
C  C65  1  0.09540962  0.46240805  0.66512753  1  0.034305  0  -0.070181  -0.119707  0  3.911832  0
C  C66  1  0.90458833  0.53761242  0.33485145  1  0.034078  0  -0.070186  -0.119876  0  3.911696  0
C  C67  1  0.70292185  0.56354623  0.66890447  1  1.382928  0  0.241744  0.540907  0  4.079101  0
C  C68  1  0.29708293  0.43645114  0.33110510  1  1.38241  0  0.241712  0.540689  0  4.079184  0
C  C69  1  0.60115238  0.47700361  0.73623893  1  -0.019116  0  -0.152055  -0.339681  0  3.930664  0
C  C70  1  0.39886971  0.52298903  0.26377542  1  -0.018522  0  -0.152165  -0.339367  0  3.9305  0
C  C71  1  0.54803142  0.48863300  0.87275736  1  -0.061828  0  -0.013189  0.12256  0  3.965954  0
C  C72  1  0.45200055  0.51135557  0.12726176  1  -0.061963  0  -0.01334  0.122384  0  3.965892  0
C  C73  1  0.49937770  0.61921199  0.90046291  1  -0.017204  0  -0.100472  -0.144333  0  3.979416  0
C  C74  1  0.50065168  0.38078065  0.09955238  1  -0.017782  0  -0.100413  -0.144356  0  3.979252  0
C  C75  1  0.54830095  0.36913480  0.97423319  1  -0.075784  0  -0.096167  -0.130676  0  3.986623  0
C  C76  1  0.45173405  0.63085335  0.02578688  1  -0.075824  0  -0.096046  -0.130587  0  3.986355  0
C  C77  1  0.73276027  0.03236963  0.75201278  1  0.5508  0  0.13944  0.259074  0  4.33584  0
C  C78  1  0.26723432  0.96764485  0.24798723  1  0.550641  0  0.139447  0.258996  0  4.335726  0
S  S79  1  0.63642237  0.99861292  0.89057438  1  0.044477  0  -0.142653  -0.31574  0  2.4722  0
S  S80  1  0.36356325  0.00143761  0.10942849  1  0.044881  0  -0.14261  -0.31568  0  2.472184  0
N  N81  1  0.15782132  0.01403565  0.61792698  1  -1.251641  0  -0.32954  -0.21792  0  3.556857  0
N  N82  1  0.84216873  0.98596504  0.38206825  1  -1.251919  0  -0.329516  -0.217824  0  3.556639  0
N  N83  1  0.11947057  0.10441978  0.91977062  1  -1.266053  0  -0.394628  -0.3672  0  3.596888  0
N  N84  1  0.88052662  0.89557404  0.08022652  1  -1.266133  0  -0.394598  -0.367269  0  3.596814  0
N  N85  1  0.04607933  0.74997155  0.59162549  1  -1.243049  0  -0.328295  -0.225095  0  3.534684  0
N  N86  1  0.95390766  0.25005181  0.40837547  1  -1.243019  0  -0.328246  -0.225165  0  3.534496  0
N  N87  1  0.84043054  0.49778622  0.69747580  1  -1.282906  0  -0.396321  -0.389474  0  3.571428  0
N  N88  1  0.15957819  0.50221651  0.30252230  1  -1.282939  0  -0.396435  -0.389717  0  3.571319  0
N  N89  1  0.80224912  0.05815563  0.65023291  1  -1.330532  0  -0.403738  -0.491826  0  3.167576  0
N  N90  1  0.19774077  0.94184291  0.34976328  1  -1.330438  0  -0.403754  -0.491776  0  3.167415  0
O  O91  1  0.88950312  0.23007180  0.87773742  1  -1.154207  0  -0.288561  -0.494203  0  2.192098  0
O  O92  1  0.11049756  0.76993600  0.12225112  1  -1.154062  0  -0.288656  -0.494311  0  2.191991  0
O  O93  1  0.66248634  0.68331035  0.59855741  1  -1.159291  0  -0.30473  -0.509018  0  2.097869  0
O  O94  1  0.33751023  0.31668727  0.40145694  1  -1.159309  0  -0.304643  -0.508918  0  2.098035  0
