# generated using pymatgen
data_DyH7(C3O4)2
_symmetry_space_group_name_H-M   'P 1'
_cell_length_a   6.09240419
_cell_length_b   10.06636506
_cell_length_c   15.34049671
_cell_angle_alpha   102.74231647
_cell_angle_beta   90.00351323
_cell_angle_gamma   107.64244642
_symmetry_Int_Tables_number   1
_chemical_formula_structural   DyH7(C3O4)2
_chemical_formula_sum   'Dy4 H28 C24 O32'
_cell_volume   872.20885793
_cell_formula_units_Z   4
loop_
 _symmetry_equiv_pos_site_id
 _symmetry_equiv_pos_as_xyz
  1  'x, y, z'
loop_
 _atom_site_type_symbol
 _atom_site_label
 _atom_site_symmetry_multiplicity
 _atom_site_fract_x
 _atom_site_fract_y
 _atom_site_fract_z
 _atom_site_occupancy
 _atom_site_hle17_bader_spin_density
 _atom_site_hle17_ddec_charge
 _atom_site_hle17_ddec_spin_density
 _atom_site_hle17_ddec_sum_bond_order
 _atom_site_hle17_magmom
 _atom_site_hse06_10hf_bader_spin_density
 _atom_site_hse06_10hf_ddec_charge
 _atom_site_hse06_10hf_ddec_spin_density
 _atom_site_hse06_10hf_ddec_sum_bond_order
 _atom_site_hse06_10hf_magmom
 _atom_site_hse06_bader_spin_density
 _atom_site_hse06_ddec_charge
 _atom_site_hse06_ddec_spin_density
 _atom_site_hse06_ddec_sum_bond_order
 _atom_site_hse06_magmom
 _atom_site_pbe_bader_spin_density
 _atom_site_pbe_cm5_charge
 _atom_site_pbe_ddec_charge
 _atom_site_pbe_ddec_spin_density
 _atom_site_pbe_ddec_sum_bond_order
 _atom_site_pbe_magmom
Dy  Dy0  1  0.84835023  0.81541234  0.29490967  1  0  2.172342  0  1.743801  0  0  2.087547  0  2.084074  0  0  2.144319  0  2.0376  0  0  1.524344  2.048154  0  2.117773  0
Dy  Dy1  1  0.03285851  0.18479588  0.20502656  1  0  2.17169  0  1.744236  0  0  2.086881  0  2.084236  0  0  2.147362  0  2.025289  0  0  1.524792  2.049584  0  2.116123  0
Dy  Dy2  1  0.15165046  0.18458826  0.70508836  1  0  2.172369  0  1.743789  0  0  2.087598  0  2.084031  0  0  2.144355  0  2.037577  0  0  1.524384  2.048203  0  2.117722  0
Dy  Dy3  1  0.96714329  0.81520366  0.79497392  1  0  2.171639  0  1.744332  0  0  2.086899  0  2.084206  0  0  2.147394  0  2.025229  0  0  1.524789  2.049597  0  2.116094  0
H  H4  1  0.08950848  0.57651195  0.06571993  1  0  0.148723  0  0.922099  0  0  0.161432  0  0.979877  0  0  0.164869  0  0.97764  0  0  0.119872  0.159159  0  0.981194  0
H  H5  1  0.51363401  0.42374810  0.43437449  1  0  0.148917  0  0.921643  0  0  0.1616  0  0.979226  0  0  0.165021  0  0.97701  0  0  0.119656  0.159461  0  0.980551  0
H  H6  1  0.91049221  0.42348867  0.93428136  1  0  0.148675  0  0.922129  0  0  0.161389  0  0.97991  0  0  0.164826  0  0.977672  0  0  0.119855  0.159118  0  0.981224  0
H  H7  1  0.48636340  0.57625251  0.56562419  1  0  0.148901  0  0.92165  0  0  0.161589  0  0.979237  0  0  0.165011  0  0.977022  0  0  0.119644  0.15945  0  0.980562  0
H  H8  1  0.58800562  0.71141749  0.00681945  1  0  0.13693  0  0.912408  0  0  0.151786  0  0.967853  0  0  0.154328  0  0.966678  0  0  0.118828  0.150067  0  0.968553  0
H  H9  1  0.87715089  0.28888120  0.49305472  1  0  0.137457  0  0.912891  0  0  0.151685  0  0.968715  0  0  0.154258  0  0.967484  0  0  0.119022  0.149932  0  0.969597  0
H  H10  1  0.41199453  0.28858204  0.99317907  1  0  0.13695  0  0.912368  0  0  0.151775  0  0.967837  0  0  0.154323  0  0.966659  0  0  0.118829  0.150058  0  0.968538  0
H  H11  1  0.12284816  0.71111942  0.50694657  1  0  0.137472  0  0.912843  0  0  0.151681  0  0.968689  0  0  0.154253  0  0.967457  0  0  0.119011  0.149928  0  0.969572  0
H  H12  1  0.38332386  0.80116184  0.03659468  1  0  0.156005  0  0.896888  0  0  0.169956  0  0.948491  0  0  0.173566  0  0.946366  0  0  0.124093  0.167392  0  0.950018  0
H  H13  1  0.58254160  0.19911951  0.46337774  1  0  0.156671  0  0.896522  0  0  0.170477  0  0.947871  0  0  0.174166  0  0.945614  0  0  0.124306  0.16793  0  0.949449  0
H  H14  1  0.61668176  0.19883877  0.96340596  1  0  0.15602  0  0.896817  0  0  0.169966  0  0.948415  0  0  0.173581  0  0.946289  0  0  0.124104  0.167404  0  0.94994  0
H  H15  1  0.41745581  0.80088111  0.53662355  1  0  0.156654  0  0.896515  0  0  0.170467  0  0.94785  0  0  0.174153  0  0.945594  0  0  0.12429  0.167921  0  0.949426  0
H  H16  1  0.21562721  0.95084149  0.45316113  1  0  0.456137  0  0.838668  0  0  0.42662  0  0.898084  0  0  0.438541  0  0.881  0  0  0.303488  0.418931  0  0.909071  0
H  H17  1  0.26454156  0.04912807  0.04688770  1  0  0.455561  0  0.839303  0  0  0.426182  0  0.8985  0  0  0.437582  0  0.882154  0  0  0.303504  0.418442  0  0.90959  0
H  H18  1  0.78437295  0.04915805  0.54683805  1  0  0.456205  0  0.838566  0  0  0.426667  0  0.898019  0  0  0.438588  0  0.880933  0  0  0.303519  0.418976  0  0.909008  0
H  H19  1  0.73546131  0.95087362  0.95311309  1  0  0.455569  0  0.839284  0  0  0.426196  0  0.898476  0  0  0.437596  0  0.88213  0  0  0.303499  0.418457  0  0.909564  0
H  H20  1  0.29552201  0.50096623  0.01365501  1  0  0.13199  0  0.915523  0  0  0.145955  0  0.974564  0  0  0.148811  0  0.972799  0  0  0.111702  0.143922  0  0.975914  0
H  H21  1  0.79548000  0.49929950  0.48631199  1  0  0.13151  0  0.916447  0  0  0.145492  0  0.975289  0  0  0.148348  0  0.973524  0  0  0.111648  0.143752  0  0.976439  0
H  H22  1  0.70447597  0.49903223  0.98634467  1  0  0.131975  0  0.915457  0  0  0.145931  0  0.974529  0  0  0.148787  0  0.972764  0  0  0.111691  0.143898  0  0.975878  0
H  H23  1  0.20451524  0.50070004  0.51368914  1  0  0.131514  0  0.916462  0  0  0.145492  0  0.975321  0  0  0.14835  0  0.973556  0  0  0.111658  0.143755  0  0.976469  0
H  H24  1  0.31259777  0.87559008  0.36092583  1  0  0.446629  0  0.851998  0  0  0.41596  0  0.914383  0  0  0.428246  0  0.896572  0  0  0.303796  0.407732  0  0.926342  0
H  H25  1  0.43688839  0.12451737  0.13910532  1  0  0.448138  0  0.850081  0  0  0.417445  0  0.912429  0  0  0.42934  0  0.895144  0  0  0.304606  0.409214  0  0.92442  0
H  H26  1  0.68740567  0.12440946  0.63907400  1  0  0.446555  0  0.852109  0  0  0.415898  0  0.914467  0  0  0.428184  0  0.896658  0  0  0.303784  0.407672  0  0.926422  0
H  H27  1  0.56311341  0.87548217  0.86089451  1  0  0.448159  0  0.850057  0  0  0.417467  0  0.912404  0  0  0.429362  0  0.895119  0  0  0.304616  0.409235  0  0.924396  0
H  H28  1  0.53340824  0.54619425  0.18385159  1  0  0.396384  0  0.885403  0  0  0.370906  0  0.957084  0  0  0.382781  0  0.944038  0  0  0.30665  0.362678  0  0.966181  0
H  H29  1  0.98749650  0.45401285  0.31596965  1  0  0.396996  0  0.884188  0  0  0.371384  0  0.956097  0  0  0.383304  0  0.942937  0  0  0.306734  0.362699  0  0.965711  0
H  H30  1  0.46659356  0.45380529  0.81614824  1  0  0.396505  0  0.885379  0  0  0.371017  0  0.957065  0  0  0.382893  0  0.944014  0  0  0.306713  0.362788  0  0.966166  0
H  H31  1  0.01250094  0.54598455  0.68402987  1  0  0.396961  0  0.884241  0  0  0.371374  0  0.956088  0  0  0.383289  0  0.942945  0  0  0.306754  0.362691  0  0.965701  0
C  C32  1  0.52558374  0.77342414  0.06432999  1  0  -0.341203  0  3.583998  0  0  -0.379913  0  3.819839  0  0  -0.386035  0  3.823665  0  0  -0.14777  -0.375214  0  3.816369  0
C  C33  1  0.75250930  0.22682328  0.43559213  1  0  -0.343643  0  3.585032  0  0  -0.380531  0  3.819488  0  0  -0.386524  0  3.823256  0  0  -0.147739  -0.376185  0  3.816843  0
C  C34  1  0.47441970  0.22657540  0.93566919  1  0  -0.341171  0  3.58388  0  0  -0.379841  0  3.819657  0  0  -0.385977  0  3.823484  0  0  -0.147736  -0.375146  0  3.816183  0
C  C35  1  0.24748651  0.77317412  0.56440870  1  0  -0.343642  0  3.58508  0  0  -0.380486  0  3.819519  0  0  -0.386477  0  3.823289  0  0  -0.147724  -0.37614  0  3.816874  0
C  C36  1  0.23981007  0.54418214  0.07929978  1  0  -0.351492  0  3.627882  0  0  -0.395267  0  3.870486  0  0  -0.401466  0  3.875835  0  0  -0.159206  -0.390655  0  3.866336  0
C  C37  1  0.69626145  0.45607402  0.42070259  1  0  -0.352992  0  3.626921  0  0  -0.396258  0  3.869426  0  0  -0.402142  0  3.874565  0  0  -0.159427  -0.391919  0  3.865656  0
C  C38  1  0.76019284  0.45581632  0.92069990  1  0  -0.351357  0  3.627741  0  0  -0.395181  0  3.87042  0  0  -0.401382  0  3.875769  0  0  -0.159162  -0.39057  0  3.866272  0
C  C39  1  0.30373925  0.54392659  0.57929609  1  0  -0.353003  0  3.626917  0  0  -0.396315  0  3.869515  0  0  -0.402187  0  3.874629  0  0  -0.159451  -0.391977  0  3.865746  0
C  C40  1  0.16437678  0.42332312  0.12733378  1  0  0.704351  0  3.851044  0  0  0.659417  0  4.159059  0  0  0.69259  0  4.152531  0  0  0.199983  0.636993  0  4.163467  0
C  C41  1  0.74158028  0.57693652  0.37264856  1  0  0.705808  0  3.850085  0  0  0.660599  0  4.158128  0  0  0.694148  0  4.151769  0  0  0.200904  0.638358  0  4.162037  0
C  C42  1  0.83562610  0.57667857  0.87266832  1  0  0.704257  0  3.851267  0  0  0.659381  0  4.159214  0  0  0.692556  0  4.152684  0  0  0.199958  0.636957  0  4.163622  0
C  C43  1  0.25842151  0.42306301  0.62734932  1  0  0.705691  0  3.850249  0  0  0.660552  0  4.158201  0  0  0.694101  0  4.151846  0  0  0.200867  0.638312  0  4.16211  0
C  C44  1  0.33408966  0.76057367  0.20978104  1  0  0.654382  0  3.782261  0  0  0.611796  0  4.073723  0  0  0.646307  0  4.064946  0  0  0.236505  0.589267  0  4.079119  0
C  C45  1  0.57349948  0.23964768  0.29019974  1  0  0.652847  0  3.780335  0  0  0.608949  0  4.074442  0  0  0.642511  0  4.066039  0  0  0.235354  0.586706  0  4.079379  0
C  C46  1  0.66590996  0.23942480  0.79021929  1  0  0.654338  0  3.782184  0  0  0.611788  0  4.073629  0  0  0.646301  0  4.064845  0  0  0.236503  0.589255  0  4.079026  0
C  C47  1  0.42649740  0.76035186  0.70980205  1  0  0.652857  0  3.780228  0  0  0.608951  0  4.074412  0  0  0.642514  0  4.066008  0  0  0.23538  0.586707  0  4.079347  0
C  C48  1  0.72169792  0.90935337  0.10124407  1  0  0.761206  0  3.771182  0  0  0.711165  0  4.074567  0  0  0.747042  0  4.06449  0  0  0.229285  0.687534  0  4.080756  0
C  C49  1  0.81247560  0.09085329  0.39872002  1  0  0.761854  0  3.770492  0  0  0.711399  0  4.07367  0  0  0.747255  0  4.063787  0  0  0.229625  0.687911  0  4.079841  0
C  C50  1  0.27830712  0.09064937  0.89875296  1  0  0.761073  0  3.771248  0  0  0.711118  0  4.0745  0  0  0.746999  0  4.064422  0  0  0.229271  0.687489  0  4.080683  0
C  C51  1  0.18751910  0.90914518  0.60128031  1  0  0.761884  0  3.770586  0  0  0.711445  0  4.073734  0  0  0.7473  0  4.063851  0  0  0.229654  0.687957  0  4.079904  0
C  C52  1  0.43181711  0.67716919  0.12969410  1  0  0.261848  0  3.565129  0  0  0.257672  0  3.814403  0  0  0.262811  0  3.824588  0  0  0.074325  0.254595  0  3.807007  0
C  C53  1  0.75493576  0.32309094  0.37024448  1  0  0.265291  0  3.561579  0  0  0.259866  0  3.81214  0  0  0.264499  0  3.82277  0  0  0.074542  0.256605  0  3.805856  0
C  C54  1  0.56818579  0.32282928  0.87030493  1  0  0.261883  0  3.56499  0  0  0.257672  0  3.814297  0  0  0.262814  0  3.824478  0  0  0.074345  0.254601  0  3.806898  0
C  C55  1  0.24506494  0.67690968  0.62975747  1  0  0.265443  0  3.561526  0  0  0.259935  0  3.812213  0  0  0.264574  0  3.822825  0  0  0.074616  0.256672  0  3.805935  0
O  O56  1  0.61726323  0.63669909  0.16392687  1  0  -0.645372  0  2.081115  0  0  -0.606989  0  2.311942  0  0  -0.625853  0  2.301061  0  0  -0.432126  -0.594908  0  2.319852  0
O  O57  1  0.98083115  0.36356388  0.33594691  1  0  -0.645675  0  2.08008  0  0  -0.606742  0  2.310875  0  0  -0.624659  0  2.29868  0  0  -0.431401  -0.594542  0  2.31978  0
O  O58  1  0.38273857  0.36330044  0.83607100  1  0  -0.645493  0  2.08112  0  0  -0.607128  0  2.311985  0  0  -0.62599  0  2.301098  0  0  -0.432227  -0.595048  0  2.319899  0
O  O59  1  0.01917119  0.63643674  0.66405504  1  0  -0.645717  0  2.080095  0  0  -0.606753  0  2.310906  0  0  -0.624673  0  2.29871  0  0  -0.43143  -0.594555  0  2.319815  0
O  O60  1  0.77109234  0.01182979  0.06177135  1  0  -0.644642  0  1.950567  0  0  -0.592162  0  2.169961  0  0  -0.617112  0  2.159458  0  0  -0.31762  -0.57527  0  2.176474  0
O  O61  1  0.75939066  0.98847718  0.43826118  1  0  -0.644784  0  1.949166  0  0  -0.592015  0  2.168363  0  0  -0.617307  0  2.158722  0  0  -0.31751  -0.575  0  2.175753  0
O  O62  1  0.22890725  0.98817189  0.93822749  1  0  -0.644645  0  1.950558  0  0  -0.592178  0  2.169864  0  0  -0.617125  0  2.159356  0  0  -0.317665  -0.575289  0  2.176375  0
O  O63  1  0.24059965  0.01152236  0.56173996  1  0  -0.644758  0  1.949286  0  0  -0.592011  0  2.168466  0  0  -0.617304  0  2.158828  0  0  -0.317507  -0.574993  0  2.175845  0
O  O64  1  0.46664022  0.81583723  0.28174051  1  0  -0.70163  0  2.128224  0  0  -0.653452  0  2.363739  0  0  -0.681762  0  2.355228  0  0  -0.377832  -0.635117  0  2.369874  0
O  O65  1  0.65053569  0.18405191  0.21829603  1  0  -0.702195  0  2.128671  0  0  -0.653664  0  2.364909  0  0  -0.681182  0  2.355094  0  0  -0.377471  -0.635235  0  2.370543  0
O  O66  1  0.53336104  0.18416122  0.71825656  1  0  -0.701639  0  2.128126  0  0  -0.653464  0  2.36361  0  0  -0.681774  0  2.355099  0  0  -0.377833  -0.635131  0  2.369743  0
O  O67  1  0.34946340  0.81594549  0.78170610  1  0  -0.702235  0  2.128675  0  0  -0.653713  0  2.364935  0  0  -0.681235  0  2.355122  0  0  -0.377511  -0.635281  0  2.370561  0
O  O68  1  0.29671165  0.42013589  0.19222023  1  0  -0.694734  0  1.961997  0  0  -0.645758  0  2.187784  0  0  -0.67216  0  2.178473  0  0  -0.36402  -0.627866  0  2.193614  0
O  O69  1  0.87674863  0.58011645  0.30766102  1  0  -0.695731  0  1.962871  0  0  -0.646752  0  2.188718  0  0  -0.673762  0  2.180685  0  0  -0.364139  -0.627505  0  2.194192  0
O  O70  1  0.70329558  0.57986794  0.80778152  1  0  -0.694777  0  1.962206  0  0  -0.645805  0  2.187947  0  0  -0.67221  0  2.178635  0  0  -0.364027  -0.627911  0  2.193778  0
O  O71  1  0.12324663  0.41987987  0.69233705  1  0  -0.695671  0  1.962826  0  0  -0.646718  0  2.188625  0  0  -0.673727  0  2.180595  0  0  -0.364169  -0.627471  0  2.194098  0
O  O72  1  0.13546699  0.77085581  0.19977706  1  0  -0.647738  0  2.027753  0  0  -0.612094  0  2.273415  0  0  -0.638251  0  2.26444  0  0  -0.368641  -0.595301  0  2.279798  0
O  O73  1  0.36467087  0.22957291  0.30018786  1  0  -0.647821  0  2.02792  0  0  -0.611467  0  2.273975  0  0  -0.636817  0  2.263577  0  0  -0.36852  -0.594801  0  2.280087  0
O  O74  1  0.86452989  0.22914372  0.80022212  1  0  -0.647703  0  2.027767  0  0  -0.612063  0  2.273405  0  0  -0.638219  0  2.264428  0  0  -0.368633  -0.595272  0  2.279788  0
O  O75  1  0.63533036  0.77042877  0.69981228  1  0  -0.64781  0  2.027791  0  0  -0.611461  0  2.273858  0  0  -0.636817  0  2.263461  0  0  -0.368533  -0.594796  0  2.279968  0
O  O76  1  0.17626278  0.89823607  0.38896270  1  0  -0.958417  0  1.87556  0  0  -0.920574  0  2.075929  0  0  -0.943969  0  2.042272  0  0  -0.677923  -0.905466  0  2.098639  0
O  O77  1  0.27796821  0.10203087  0.11101763  1  0  -0.959115  0  1.874912  0  0  -0.921343  0  2.075242  0  0  -0.943744  0  2.04084  0  0  -0.678694  -0.906544  0  2.098259  0
O  O78  1  0.82373955  0.10176453  0.61103532  1  0  -0.958426  0  1.875539  0  0  -0.920596  0  2.075945  0  0  -0.943988  0  2.042292  0  0  -0.677973  -0.905489  0  2.098654  0
O  O79  1  0.72203359  0.89796867  0.88898285  1  0  -0.959136  0  1.874889  0  0  -0.921372  0  2.075182  0  0  -0.943774  0  2.04078  0  0  -0.678694  -0.906575  0  2.098198  0
O  O80  1  0.83945635  0.92345975  0.17364630  1  0  -0.783075  0  2.189583  0  0  -0.73873  0  2.451575  0  0  -0.770041  0  2.444827  0  0  -0.434909  -0.719313  0  2.457035  0
O  O81  1  0.91594340  0.07666149  0.32628192  1  0  -0.783246  0  2.187552  0  0  -0.739384  0  2.450244  0  0  -0.770387  0  2.443328  0  0  -0.435286  -0.719577  0  2.456142  0
O  O82  1  0.16054438  0.07653764  0.82635257  1  0  -0.782993  0  2.189687  0  0  -0.738691  0  2.451634  0  0  -0.770002  0  2.444884  0  0  -0.434893  -0.719275  0  2.45709  0
O  O83  1  0.08405237  0.92333913  0.67372002  1  0  -0.783295  0  2.187464  0  0  -0.739462  0  2.450178  0  0  -0.770464  0  2.443257  0  0  -0.435326  -0.719655  0  2.456075  0
O  O84  1  0.97621148  0.32378677  0.10224695  1  0  -0.657356  0  1.921125  0  0  -0.623833  0  2.154618  0  0  -0.648409  0  2.145839  0  0  -0.373052  -0.607586  0  2.1602  0
O  O85  1  0.65316565  0.67650150  0.39783158  1  0  -0.658836  0  1.918236  0  0  -0.625259  0  2.151724  0  0  -0.650445  0  2.144147  0  0  -0.374278  -0.609025  0  2.158308  0
O  O86  1  0.02378865  0.67621600  0.89775726  1  0  -0.657291  0  1.921172  0  0  -0.623777  0  2.154603  0  0  -0.648356  0  2.145823  0  0  -0.373006  -0.60753  0  2.160183  0
O  O87  1  0.34684047  0.32350339  0.60216772  1  0  -0.658756  0  1.918389  0  0  -0.625218  0  2.151867  0  0  -0.650403  0  2.14429  0  0  -0.374237  -0.608985  0  2.15845  0
