# generated using pymatgen
data_ZnH6C9(N2O)2
_symmetry_space_group_name_H-M   'P 1'
_cell_length_a   4.81488170
_cell_length_b   10.49295811
_cell_length_c   18.83022906
_cell_angle_alpha   90.00002679
_cell_angle_beta   90.00002966
_cell_angle_gamma   90.00004903
_symmetry_Int_Tables_number   1
_chemical_formula_structural   ZnH6C9(N2O)2
_chemical_formula_sum   'Zn4 H24 C36 N16 O8'
_cell_volume   951.34746125
_cell_formula_units_Z   4
loop_
 _symmetry_equiv_pos_site_id
 _symmetry_equiv_pos_as_xyz
  1  'x, y, z'
loop_
 _atom_site_type_symbol
 _atom_site_label
 _atom_site_symmetry_multiplicity
 _atom_site_fract_x
 _atom_site_fract_y
 _atom_site_fract_z
 _atom_site_occupancy
 _atom_site_pbe_bader_spin_density
 _atom_site_pbe_cm5_charge
 _atom_site_pbe_ddec_charge
 _atom_site_pbe_ddec_spin_density
 _atom_site_pbe_ddec_sum_bond_order
 _atom_site_pbe_magmom
Zn  Zn0  1  0.81219166  0.60942637  0.83095975  1  0  0.73597  0.809466  0  2.394868  0
Zn  Zn1  1  0.31219304  0.39057445  0.16904050  1  0  0.735963  0.809446  0  2.394833  0
Zn  Zn2  1  0.31219367  0.89057461  0.33095894  1  0  0.735954  0.809449  0  2.394893  0
Zn  Zn3  1  0.81219103  0.10942621  0.66904079  1  0  0.735973  0.809463  0  2.394868  0
H  H4  1  0.13532131  0.83397668  0.48125608  1  0  0.108945  0.14659  0  1.003298  0
H  H5  1  0.63532055  0.16602312  0.51874415  1  0  0.108944  0.146585  0  1.003293  0
H  H6  1  0.63531940  0.66602245  0.98125638  1  0  0.108951  0.146601  0  1.003295  0
H  H7  1  0.13532037  0.33397735  0.01874385  1  0  0.108943  0.146596  0  1.0033  0
H  H8  1  0.01269299  0.69526457  0.44072017  1  0  0.112543  0.140203  0  0.969085  0
H  H9  1  0.51269465  0.30473518  0.55928005  1  0  0.112538  0.14019  0  0.969091  0
H  H10  1  0.51269343  0.80473543  0.94072051  1  0  0.112535  0.140183  0  0.969154  0
H  H11  1  0.01269214  0.19526432  0.05927971  1  0  0.112547  0.140201  0  0.969109  0
H  H12  1  0.01700704  0.88053651  0.59832475  1  0  0.101256  0.107066  0  1.030191  0
H  H13  1  0.51700803  0.11946420  0.40167546  1  0  0.101259  0.107049  0  1.030183  0
H  H14  1  0.51700611  0.61946416  0.09832446  1  0  0.101255  0.107036  0  1.03019  0
H  H15  1  0.01700688  0.38053654  0.90167522  1  0  0.101253  0.107055  0  1.030194  0
H  H16  1  0.39555830  0.65980288  0.70936695  1  0  0.097748  0.095751  0  1.04332  0
H  H17  1  0.89555740  0.34019702  0.29063332  1  0  0.097739  0.095738  0  1.043305  0
H  H18  1  0.89555986  0.84019708  0.20936671  1  0  0.097749  0.095739  0  1.043332  0
H  H19  1  0.39555792  0.15980282  0.79063302  1  0  0.097754  0.095766  0  1.043309  0
H  H20  1  0.27450008  0.55284631  0.59740228  1  0  0.099864  0.093268  0  1.044532  0
H  H21  1  0.77449960  0.44715354  0.40259744  1  0  0.099869  0.093242  0  1.044537  0
H  H22  1  0.77450184  0.94715350  0.09740260  1  0  0.099872  0.093244  0  1.044564  0
H  H23  1  0.27449992  0.05284730  0.90259712  1  0  0.099873  0.093251  0  1.044573  0
H  H24  1  0.52217380  0.60771168  0.48475842  1  0  0.100096  0.099178  0  1.023099  0
H  H25  1  0.02217381  0.39228903  0.51524126  1  0  0.100092  0.099168  0  1.023124  0
H  H26  1  0.02217475  0.89228836  0.98475872  1  0  0.100071  0.099143  0  1.023113  0
H  H27  1  0.52217702  0.10771139  0.01524097  1  0  0.100073  0.099154  0  1.023109  0
C  C28  1  0.78691982  0.85796525  0.41241310  1  0  0.228596  0.661154  0  4.086557  0
C  C29  1  0.28691743  0.14203461  0.58758715  1  0  0.22857  0.661093  0  4.086665  0
C  C30  1  0.28692031  0.64203483  0.91241333  1  0  0.228579  0.661115  0  4.086621  0
C  C31  1  0.78691695  0.35796502  0.08758692  1  0  0.228589  0.661157  0  4.086582  0
C  C32  1  0.94344494  0.78268625  0.46815591  1  0  -0.159179  -0.370553  0  3.935988  0
C  C33  1  0.44344673  0.21731367  0.53184436  1  0  -0.15915  -0.370481  0  3.935906  0
C  C34  1  0.44344557  0.71731299  0.96815563  1  0  -0.159154  -0.370516  0  3.936035  0
C  C35  1  0.94344611  0.28268597  0.03184411  1  0  -0.159164  -0.370553  0  3.936019  0
C  C36  1  0.78327697  0.74966314  0.53410571  1  0  -0.008097  0.158644  0  3.964387  0
C  C37  1  0.28327662  0.25033671  0.46589401  1  0  -0.008097  0.15863  0  3.964353  0
C  C38  1  0.28327664  0.75033662  0.03410592  1  0  -0.008103  0.158596  0  3.964423  0
C  C39  1  0.78327694  0.24966323  0.96589434  1  0  -0.008106  0.158607  0  3.964401  0
C  C40  1  0.84968994  0.81054973  0.59769178  1  0  -0.088078  -0.17114  0  3.922512  0
C  C41  1  0.34968934  0.18945015  0.40230795  1  0  -0.088084  -0.171077  0  3.922517  0
C  C42  1  0.34968950  0.68945011  0.09769144  1  0  -0.088082  -0.171067  0  3.92246  0
C  C43  1  0.84968978  0.31055072  0.90230829  1  0  -0.088072  -0.171074  0  3.922475  0
C  C44  1  0.71457139  0.77820709  0.66129853  1  0  -0.012532  0.01161  0  4.052228  0
C  C45  1  0.21457072  0.22179274  0.33870171  1  0  -0.012513  0.011526  0  4.052138  0
C  C46  1  0.21457101  0.72179276  0.16129873  1  0  -0.012553  0.011528  0  4.052147  0
C  C47  1  0.71457110  0.27820707  0.83870151  1  0  -0.0125  0.011583  0  4.052097  0
C  C48  1  0.50609058  0.68508078  0.66084870  1  0  -0.090605  -0.123806  0  3.985845  0
C  C49  1  0.00609009  0.31491992  0.33915152  1  0  -0.090612  -0.123815  0  3.985776  0
C  C50  1  0.00608830  0.81491993  0.16084892  1  0  -0.090584  -0.123753  0  3.985739  0
C  C51  1  0.50609030  0.18507981  0.83915129  1  0  -0.090626  -0.123844  0  3.985816  0
C  C52  1  0.43776895  0.62464878  0.59716810  1  0  -0.090013  -0.07073  0  4.012547  0
C  C53  1  0.93777042  0.37535113  0.40283217  1  0  -0.089972  -0.070583  0  4.012454  0
C  C54  1  0.93776850  0.87535109  0.09716787  1  0  -0.089981  -0.07065  0  4.01251  0
C  C55  1  0.43776879  0.12464882  0.90283187  1  0  -0.089999  -0.070668  0  4.012573  0
C  C56  1  0.57583254  0.65576489  0.53434147  1  0  -0.084541  -0.122273  0  3.919603  0
C  C57  1  0.07583235  0.34423488  0.46565875  1  0  -0.084552  -0.122328  0  3.919622  0
C  C58  1  0.07583238  0.84423479  0.03434117  1  0  -0.084532  -0.122263  0  3.919615  0
C  C59  1  0.57583251  0.15576403  0.96565905  1  0  -0.084525  -0.122252  0  3.919594  0
C  C60  1  0.81062372  0.83931002  0.72664082  1  0  0.237602  0.289906  0  3.999346  0
C  C61  1  0.31062280  0.16068985  0.27335890  1  0  0.237568  0.289904  0  3.999257  0
C  C62  1  0.31062322  0.66068992  0.22664047  1  0  0.237588  0.289933  0  3.999256  0
C  C63  1  0.81062330  0.33930995  0.77335925  1  0  0.237558  0.289898  0  3.99927  0
N  N64  1  0.86702179  0.78299133  0.78918971  1  0  -0.244753  -0.274333  0  3.496088  0
N  N65  1  0.36702086  0.21700856  0.21081002  1  0  -0.244738  -0.274295  0  3.496032  0
N  N66  1  0.36702348  0.71700868  0.28918991  1  0  -0.244771  -0.274383  0  3.496036  0
N  N67  1  0.86702332  0.28299121  0.71081035  1  0  -0.244753  -0.274347  0  3.496082  0
N  N68  1  0.97540257  0.87423924  0.83263264  1  0  -0.087211  -0.068554  0  3.22177  0
N  N69  1  0.47540137  0.12576070  0.16736710  1  0  -0.087216  -0.068575  0  3.221745  0
N  N70  1  0.47539993  0.62575990  0.33263229  1  0  -0.087206  -0.068551  0  3.221872  0
N  N71  1  0.97539986  0.37424003  0.66736746  1  0  -0.087201  -0.068521  0  3.221807  0
N  N72  1  0.98432497  0.98143302  0.79843498  1  0  -0.074603  -0.038025  0  3.254816  0
N  N73  1  0.48432572  0.01856692  0.20156529  1  0  -0.074608  -0.038012  0  3.254773  0
N  N74  1  0.48432629  0.51856800  0.29843513  1  0  -0.074629  -0.038042  0  3.254871  0
N  N75  1  0.98432441  0.48143289  0.70156515  1  0  -0.074605  -0.038039  0  3.254877  0
N  N76  1  0.88178031  0.96304445  0.73222919  1  0  -0.247273  -0.275825  0  3.541647  0
N  N77  1  0.38178123  0.03695640  0.26777107  1  0  -0.247271  -0.275838  0  3.54164  0
N  N78  1  0.38178166  0.53695743  0.23222935  1  0  -0.247247  -0.2758  0  3.541638  0
N  N79  1  0.88178196  0.46304342  0.76777092  1  0  -0.247267  -0.275831  0  3.541678  0
O  O80  1  0.91330920  0.89852960  0.35719923  1  0  -0.326759  -0.567886  0  2.356724  0
O  O81  1  0.41330685  0.10147031  0.64280051  1  0  -0.326762  -0.56788  0  2.356717  0
O  O82  1  0.41330753  0.60146953  0.85719945  1  0  -0.326762  -0.56788  0  2.356742  0
O  O83  1  0.91330852  0.39853037  0.14280029  1  0  -0.326762  -0.567896  0  2.356695  0
O  O84  1  0.52713153  0.87604018  0.42067427  1  0  -0.308966  -0.529696  0  2.353395  0
O  O85  1  0.02713533  0.12396053  0.57932595  1  0  -0.308966  -0.529683  0  2.353497  0
O  O86  1  0.02713198  0.62395981  0.92067449  1  0  -0.308966  -0.529684  0  2.353415  0
O  O87  1  0.52713488  0.37603900  0.07932573  1  0  -0.308979  -0.529701  0  2.353465  0
