# generated using pymatgen
data_Zn4H24C48O25
_symmetry_space_group_name_H-M   'P 1'
_cell_length_a   28.11518959
_cell_length_b   28.11618718
_cell_length_c   28.11423262
_cell_angle_alpha   119.99997868
_cell_angle_beta   90.00172995
_cell_angle_gamma   59.99473235
_symmetry_Int_Tables_number   1
_chemical_formula_structural   Zn4H24C48O25
_chemical_formula_sum   'Zn8 H48 C96 O50'
_cell_volume   15713.78450146
_cell_formula_units_Z   2
loop_
 _symmetry_equiv_pos_site_id
 _symmetry_equiv_pos_as_xyz
  1  'x, y, z'
loop_
 _atom_site_type_symbol
 _atom_site_label
 _atom_site_symmetry_multiplicity
 _atom_site_fract_x
 _atom_site_fract_y
 _atom_site_fract_z
 _atom_site_occupancy
 _atom_site_pbe_bader_charge
 _atom_site_pbe_bader_spin_density
 _atom_site_pbe_cm5_charge
 _atom_site_pbe_ddec_charge
 _atom_site_pbe_ddec_spin_density
 _atom_site_pbe_ddec_sum_bond_order
 _atom_site_pbe_magmom
Zn  Zn0  1  0.52853500  0.05710812  0.02854484  1  1.307281  0  0.67253  0.961591  0  2.373621  0
Zn  Zn1  1  0.52859365  0.94292075  0.91431758  1  1.30576  0  0.672427  0.961527  0  2.373252  0
Zn  Zn2  1  0.41439631  0.05706591  0.02848391  1  1.307102  0  0.672436  0.961386  0  2.373873  0
Zn  Zn3  1  0.52853575  0.94293590  0.02851172  1  1.309039  0  0.672466  0.961436  0  2.373107  0
Zn  Zn4  1  0.97137720  0.94295673  0.47152025  1  1.306011  0  0.672394  0.961242  0  2.374171  0
Zn  Zn5  1  0.08558490  0.94288715  0.47143582  1  1.306535  0  0.672344  0.96142  0  2.372718  0
Zn  Zn6  1  0.97141338  0.05709083  0.58562778  1  1.3069  0  0.672435  0.961214  0  2.37483  0
Zn  Zn7  1  0.97138982  0.05708484  0.47146175  1  1.308036  0  0.672462  0.961579  0  2.373527  0
H  H8  1  0.86776284  0.07686019  0.36791750  1  0.115885  0  0.117498  0.148813  0  0.978854  0
H  H9  1  0.86777237  0.92305519  0.36787784  1  0.120835  0  0.117481  0.148726  0  0.979225  0
H  H10  1  0.63215438  0.07686277  0.13214746  1  0.122347  0  0.117414  0.148609  0  0.978974  0
H  H11  1  0.63211035  0.92310330  0.13214002  1  0.1216  0  0.117493  0.148729  0  0.979366  0
H  H12  1  0.20895232  0.92310048  0.55527740  1  0.093648  0  0.117413  0.148469  0  0.979258  0
H  H13  1  0.05518479  0.07694885  0.70909620  1  0.150226  0  0.117419  0.148705  0  0.979357  0
H  H14  1  0.44476995  0.92310746  0.79085924  1  0.151216  0  0.117488  0.148768  0  0.97943  0
H  H15  1  0.29100616  0.07690533  0.94468710  1  0.094159  0  0.117471  0.148687  0  0.979133  0
H  H16  1  0.20887622  0.73570169  0.36796883  1  0.107265  0  0.117395  0.14881  0  0.979034  0
H  H17  1  0.05508231  0.73571015  0.36799206  1  0.131174  0  0.117522  0.148857  0  0.978756  0
H  H18  1  0.44466131  0.26434505  0.13225953  1  0.108723  0  0.117471  0.148826  0  0.978917  0
H  H19  1  0.29091937  0.26425925  0.13218562  1  0.129447  0  0.117419  0.148678  0  0.979399  0
H  H20  1  0.86784266  0.26428709  0.55528958  1  0.141692  0  0.117398  0.148551  0  0.97918  0
H  H21  1  0.86780924  0.26432379  0.70909667  1  0.128369  0  0.117545  0.148879  0  0.979376  0
H  H22  1  0.63213531  0.73567180  0.79092362  1  0.103868  0  0.117392  0.148696  0  0.979252  0
H  H23  1  0.63213220  0.73573837  0.94474664  1  0.131503  0  0.117279  0.148419  0  0.97931  0
H  H24  1  0.86788641  0.07695488  0.70911914  1  0.12265  0  0.117354  0.148483  0  0.979347  0
H  H25  1  0.86782276  0.92319180  0.55537721  1  0.119709  0  0.117487  0.148847  0  0.979043  0
H  H26  1  0.63212839  0.07703427  0.94486910  1  0.119305  0  0.117398  0.148576  0  0.979076  0
H  H27  1  0.63220438  0.92321319  0.79102772  1  0.125608  0  0.117519  0.148973  0  0.978975  0
H  H28  1  0.20900346  0.92325551  0.36794182  1  0.121185  0  0.117393  0.148604  0  0.978943  0
H  H29  1  0.05519223  0.07702771  0.36793000  1  0.118107  0  0.117501  0.148945  0  0.979353  0
H  H30  1  0.44469874  0.92314340  0.13213011  1  0.118877  0  0.117515  0.148579  0  0.978955  0
H  H31  1  0.29092053  0.07695471  0.13213862  1  0.122769  0  0.117455  0.148765  0  0.979365  0
H  H32  1  0.77868194  0.91990555  0.27865701  1  0.570441  0  0.317952  0.339912  0  0.927894  0
H  H33  1  0.77864895  0.07997495  0.27872537  1  0.569098  0  0.318024  0.339847  0  0.928292  0
H  H34  1  0.72122513  0.91998321  0.22133374  1  0.570871  0  0.317891  0.339624  0  0.928038  0
H  H35  1  0.72128865  0.07996047  0.22131946  1  0.570374  0  0.318033  0.339958  0  0.928362  0
H  H36  1  0.14125363  0.08011448  0.80133496  1  0.571204  0  0.317901  0.339664  0  0.928313  0
H  H37  1  0.30126862  0.91999422  0.64126257  1  0.571807  0  0.317834  0.339466  0  0.928436  0
H  H38  1  0.19868598  0.08004644  0.85871078  1  0.571672  0  0.31796  0.33989  0  0.928317  0
H  H39  1  0.35869216  0.92001296  0.69863085  1  0.570377  0  0.31792  0.339871  0  0.927802  0
H  H40  1  0.14113855  0.55739760  0.27883630  1  0.576825  0  0.317935  0.339637  0  0.928182  0
H  H41  1  0.30116644  0.55738786  0.27879736  1  0.574718  0  0.317998  0.339548  0  0.928604  0
H  H42  1  0.19857751  0.44256562  0.22138703  1  0.577007  0  0.31791  0.339808  0  0.92797  0
H  H43  1  0.35855881  0.44265477  0.22148289  1  0.576189  0  0.318098  0.339706  0  0.928219  0
H  H44  1  0.77870245  0.44263100  0.80134984  1  0.576731  0  0.31811  0.34015  0  0.927858  0
H  H45  1  0.77875827  0.44258879  0.64129122  1  0.578412  0  0.317999  0.339922  0  0.928417  0
H  H46  1  0.72128081  0.55743488  0.85875512  1  0.57931  0  0.317743  0.33938  0  0.928359  0
H  H47  1  0.72126103  0.55736601  0.69868780  1  0.575927  0  0.318014  0.340011  0  0.927998  0
H  H48  1  0.77865626  0.92014824  0.64147799  1  0.567508  0  0.31776  0.339383  0  0.928873  0
H  H49  1  0.77873855  0.08012466  0.80145379  1  0.565881  0  0.317793  0.339518  0  0.928004  0
H  H50  1  0.72137900  0.92013872  0.69881214  1  0.564567  0  0.317901  0.339263  0  0.928641  0
H  H51  1  0.72128193  0.08018667  0.85886167  1  0.56901  0  0.317873  0.339781  0  0.927894  0
H  H52  1  0.14119745  0.08017106  0.27879293  1  0.569639  0  0.318018  0.339868  0  0.9278  0
H  H53  1  0.30127013  0.92015879  0.27882465  1  0.57556  0  0.318085  0.339669  0  0.927936  0
H  H54  1  0.19861779  0.08017379  0.22134307  1  0.566377  0  0.317913  0.339564  0  0.928087  0
H  H55  1  0.35868030  0.92005838  0.22131028  1  0.569592  0  0.318057  0.340033  0  0.928145  0
C  C56  1  0.59108858  0.00008739  0.90898564  1  1.568876  0  0.229345  0.603565  0  4.160056  0
C  C57  1  0.40898276  0.00000328  0.90885961  1  1.577005  0  0.229619  0.603981  0  4.159272  0
C  C58  1  0.40891197  0.18213761  0.09107770  1  1.579945  0  0.229176  0.602446  0  4.161357  0
C  C59  1  0.40892028  0.00001772  0.09102885  1  1.569974  0  0.229752  0.60375  0  4.16054  0
C  C60  1  0.59106580  0.99998864  0.09104694  1  1.577779  0  0.229508  0.60327  0  4.160756  0
C  C61  1  0.59108859  0.81787815  0.90890780  1  1.578852  0  0.22941  0.603147  0  4.16049  0
C  C62  1  0.09091811  0.81787382  0.40902945  1  1.527558  0  0.229416  0.604062  0  4.157315  0
C  C63  1  0.09098099  0.00000439  0.59109922  1  1.575853  0  0.229988  0.604206  0  4.159177  0
C  C64  1  0.90890372  0.00005090  0.59114086  1  1.569442  0  0.229849  0.604266  0  4.160117  0
C  C65  1  0.90885450  0.18213629  0.59110222  1  1.579381  0  0.229608  0.603959  0  4.15975  0
C  C66  1  0.90881742  0.00000224  0.40901228  1  1.578966  0  0.229545  0.603754  0  4.15844  0
C  C67  1  0.09100544  0.00005494  0.40896481  1  1.569544  0  0.229671  0.603258  0  4.16007  0
C  C68  1  0.87120818  0.99997326  0.37136091  1  -0.015087  0  -0.012422  0.010384  0  4.02162  0
C  C69  1  0.85400835  0.04340768  0.35413509  1  0.084968  0  -0.104171  -0.242695  0  3.954929  0
C  C70  1  0.81910050  0.04340564  0.31918309  1  0.472773  0  0.089357  0.299949  0  4.070036  0
C  C71  1  0.80087322  0.99994893  0.30092295  1  0.094552  0  -0.037296  -0.131861  0  4.155435  0
C  C72  1  0.81910653  0.95649995  0.31915937  1  0.471317  0  0.08937  0.300853  0  4.069021  0
C  C73  1  0.85401683  0.95650341  0.35411676  1  0.072934  0  -0.104205  -0.243173  0  3.956087  0
C  C74  1  0.76544840  0.99995546  0.26548770  1  -0.348214  0  -0.05111  -0.118044  0  4.242664  0
C  C75  1  0.73448286  0.99996562  0.23453490  1  -0.171686  0  -0.050978  -0.117676  0  4.242315  0
C  C76  1  0.69904900  0.99997820  0.19910622  1  0.091395  0  -0.037505  -0.132611  0  4.15574  0
C  C77  1  0.68082336  0.04341980  0.18086029  1  0.473663  0  0.088997  0.300055  0  4.070399  0
C  C78  1  0.64590365  0.04342238  0.14591765  1  0.074035  0  -0.10408  -0.242545  0  3.955123  0
C  C79  1  0.62868475  0.99998233  0.12869258  1  -0.012243  0  -0.012479  0.010601  0  4.021848  0
C  C80  1  0.64588089  0.95654123  0.14591383  1  0.07392  0  -0.104152  -0.243022  0  3.95546  0
C  C81  1  0.68079562  0.95654790  0.18086074  1  0.472567  0  0.089422  0.300717  0  4.068956  0
C  C82  1  0.12861649  0.00001870  0.62872972  1  -0.048585  0  -0.012605  0.010231  0  4.021262  0
C  C83  1  0.18928106  0.95656783  0.60249413  1  0.085449  0  -0.10412  -0.242253  0  3.9548  0
C  C84  1  0.22422466  0.95658303  0.63741003  1  0.509007  0  0.089377  0.299954  0  4.069774  0
C  C85  1  0.19903925  0.00005332  0.69910583  1  0.074503  0  -0.037672  -0.132675  0  4.154086  0
C  C86  1  0.13734869  0.04350738  0.72431334  1  0.477329  0  0.089589  0.300923  0  4.068154  0
C  C87  1  0.10239780  0.04349717  0.68940118  1  0.076561  0  -0.104161  -0.243109  0  3.955087  0
C  C88  1  0.23449169  0.00004572  0.73452235  1  -0.167966  0  -0.051319  -0.117841  0  4.240728  0
C  C89  1  0.26546498  0.00002703  0.76546028  1  -0.3413  0  -0.050844  -0.117674  0  4.241949  0
C  C90  1  0.30091775  0.00002014  0.80087432  1  0.074  0  -0.037508  -0.132362  0  4.155622  0
C  C91  1  0.36260327  0.95657987  0.77565164  1  0.505508  0  0.089449  0.300689  0  4.069404  0
C  C92  1  0.39756066  0.95656199  0.81056334  1  0.077138  0  -0.104125  -0.242832  0  3.955819  0
C  C93  1  0.37134496  0.00000675  0.87122999  1  -0.051573  0  -0.012518  0.010103  0  4.021575  0
C  C94  1  0.31068082  0.04346074  0.89747692  1  0.087059  0  -0.104245  -0.242573  0  3.955174  0
C  C95  1  0.27572809  0.04347293  0.86256269  1  0.477723  0  0.089276  0.300023  0  4.069968  0
C  C96  1  0.12853579  0.74260985  0.37143402  1  0.025511  0  -0.012389  0.00972  0  4.021701  0
C  C97  1  0.18919927  0.70817196  0.35420885  1  0.069903  0  -0.104001  -0.24217  0  3.954893  0
C  C98  1  0.22414679  0.63830914  0.31927239  1  0.493259  0  0.088949  0.299396  0  4.070624  0
C  C99  1  0.19893365  0.60183280  0.30103768  1  0.01403  0  -0.037101  -0.132082  0  4.154906  0
C  C100  1  0.13724249  0.63831555  0.31929509  1  0.470972  0  0.089268  0.300345  0  4.068741  0
C  C101  1  0.10229169  0.70818691  0.35423127  1  0.096497  0  -0.104345  -0.242866  0  3.955177  0
C  C102  1  0.23437538  0.53096088  0.26560597  1  -0.109314  0  -0.051215  -0.117827  0  4.242455  0
C  C103  1  0.26534793  0.46904880  0.23465170  1  -0.356296  0  -0.051086  -0.117922  0  4.242658  0
C  C104  1  0.30081033  0.39817973  0.19920075  1  0.094644  0  -0.037196  -0.132477  0  4.155655  0
C  C105  1  0.36250263  0.36171688  0.18096994  1  0.463028  0  0.089304  0.300499  0  4.070511  0
C  C106  1  0.39745010  0.29185619  0.14601645  1  0.099047  0  -0.104207  -0.242928  0  3.955392  0
C  C107  1  0.37124801  0.25739768  0.12875675  1  0.021778  0  -0.012417  0.01062  0  4.022153  0
C  C108  1  0.31058029  0.29180854  0.14597479  1  -0.040656  0  -0.10432  -0.243154  0  3.955711  0
C  C109  1  0.27563199  0.36167066  0.18093692  1  0.560705  0  0.089298  0.30062  0  4.069026  0
C  C110  1  0.87126897  0.25740203  0.62873912  1  0.023613  0  -0.012308  0.010603  0  4.021614  0
C  C111  1  0.85408651  0.29182099  0.60249906  1  0.059725  0  -0.10412  -0.242358  0  3.954893  0
C  C112  1  0.81917922  0.36169198  0.63742909  1  0.47342  0  0.089256  0.30005  0  4.069588  0
C  C113  1  0.80093221  0.39818228  0.69911526  1  0.071455  0  -0.037903  -0.132805  0  4.155362  0
C  C114  1  0.81916162  0.36170922  0.72432656  1  0.499262  0  0.08962  0.301247  0  4.068349  0
C  C115  1  0.85406971  0.29183822  0.68940286  1  0.018002  0  -0.104326  -0.243511  0  3.955584  0
C  C116  1  0.76548952  0.46904424  0.73453654  1  -0.345364  0  -0.050749  -0.117702  0  4.241524  0
C  C117  1  0.73450872  0.53096344  0.76549621  1  -0.10243  0  -0.050689  -0.117509  0  4.241339  0
C  C118  1  0.69905847  0.60182610  0.80092222  1  0.01547  0  -0.038237  -0.133379  0  4.155628  0
C  C119  1  0.68080868  0.63829455  0.77570604  1  0.49848  0  0.089521  0.301015  0  4.069006  0
C  C120  1  0.64589162  0.70816092  0.81061916  1  0.065691  0  -0.104103  -0.243103  0  3.95549  0
C  C121  1  0.62868730  0.74260991  0.87128511  1  -0.017342  0  -0.012554  0.010712  0  4.021844  0
C  C122  1  0.64589069  0.70819522  0.89753126  1  0.088164  0  -0.104095  -0.242716  0  3.955336  0
C  C123  1  0.68081323  0.63833027  0.86261195  1  0.473095  0  0.089533  0.30063  0  4.069552  0
C  C124  1  0.87129469  0.00007098  0.62879938  1  -0.067246  0  -0.012583  0.01  0  4.022455  0
C  C125  1  0.85410769  0.04352464  0.68946122  1  0.077568  0  -0.104138  -0.242569  0  3.955581  0
C  C126  1  0.81918002  0.04354018  0.72440934  1  0.501357  0  0.089496  0.300685  0  4.068807  0
C  C127  1  0.80092329  0.00011321  0.69921635  1  0.089651  0  -0.037301  -0.132229  0  4.155898  0
C  C128  1  0.81914134  0.95665106  0.63752806  1  0.477087  0  0.089044  0.299833  0  4.070844  0
C  C129  1  0.85406889  0.95663694  0.60258575  1  0.075894  0  -0.10408  -0.242648  0  3.955778  0
C  C130  1  0.76549085  0.00014808  0.73467499  1  -0.346335  0  -0.051137  -0.118118  0  4.243131  0
C  C131  1  0.73453111  0.00016342  0.76564131  1  -0.134798  0  -0.050867  -0.117371  0  4.242974  0
C  C132  1  0.69909938  0.00014565  0.80104801  1  0.09791  0  -0.037203  -0.131936  0  4.155537  0
C  C133  1  0.68083957  0.04359706  0.86273686  1  0.501036  0  0.089271  0.300132  0  4.068273  0
C  C134  1  0.64590591  0.04358877  0.89765718  1  0.041468  0  -0.103936  -0.242177  0  3.955087  0
C  C135  1  0.62871648  0.00011568  0.87138934  1  -0.068835  0  -0.012909  0.009753  0  4.021941  0
C  C136  1  0.64595292  0.95667118  0.81072648  1  0.093806  0  -0.103856  -0.242325  0  3.955224  0
C  C137  1  0.68088660  0.95667448  0.77580472  1  0.489543  0  0.088717  0.2992  0  4.07075  0
C  C138  1  0.12863441  0.00012484  0.37139056  1  -0.065323  0  -0.012571  0.010474  0  4.021076  0
C  C139  1  0.18930361  0.95671207  0.35418635  1  0.089551  0  -0.104152  -0.242592  0  3.954912  0
C  C140  1  0.22423595  0.95671822  0.31926308  1  0.493647  0  0.089237  0.300171  0  4.06983  0
C  C141  1  0.19903256  0.00015196  0.30100480  1  0.092387  0  -0.037495  -0.132644  0  4.155432  0
C  C142  1  0.13734182  0.04359654  0.31926021  1  0.483588  0  0.089589  0.300955  0  4.068993  0
C  C143  1  0.10240458  0.04358541  0.35417913  1  0.064441  0  -0.104278  -0.243408  0  3.955545  0
C  C144  1  0.23446611  0.00014839  0.26556498  1  -0.13198  0  -0.051111  -0.117896  0  4.242131  0
C  C145  1  0.26541909  0.00012772  0.23457802  1  -0.344371  0  -0.051061  -0.117781  0  4.242208  0
C  C146  1  0.30085862  0.00009783  0.19911586  1  0.087778  0  -0.037543  -0.132641  0  4.155611  0
C  C147  1  0.36255353  0.95662933  0.18085101  1  0.474966  0  0.089254  0.300255  0  4.069949  0
C  C148  1  0.39748644  0.95660917  0.14590299  1  0.076673  0  -0.104214  -0.242504  0  3.954706  0
C  C149  1  0.37126761  0.00004883  0.12867589  1  -0.06757  0  -0.012542  0.010204  0  4.021685  0
C  C150  1  0.31060213  0.04351167  0.14590594  1  0.088072  0  -0.104278  -0.24316  0  3.955389  0
C  C151  1  0.27566788  0.04353504  0.18086136  1  0.494239  0  0.08963  0.30099  0  4.068396  0
O  O152  1  0.50002252  0.99999917  0.99995115  1  -1.187464  0  -0.570614  -1.028049  0  2.528752  0
O  O153  1  0.57657173  0.04059754  0.96400005  1  -1.175697  0  -0.312689  -0.541909  0  2.338736  0
O  O154  1  0.46400278  0.95949340  0.88283188  1  -1.173505  0  -0.312885  -0.542239  0  2.337414  0
O  O155  1  0.38290535  0.15312356  0.07653535  1  -1.181247  0  -0.312798  -0.54169  0  2.337548  0
O  O156  1  0.57661529  0.95954722  0.88292801  1  -1.166686  0  -0.312549  -0.542033  0  2.3368  0
O  O157  1  0.46392228  0.15316959  0.07658864  1  -1.175143  0  -0.312612  -0.541303  0  2.338029  0
O  O158  1  0.38295570  0.04050944  0.96387528  1  -1.175181  0  -0.312684  -0.541956  0  2.337146  0
O  O159  1  0.38290157  0.04052695  0.07651726  1  -1.171686  0  -0.313075  -0.542228  0  2.337665  0
O  O160  1  0.57656777  0.95947406  0.07654138  1  -1.176513  0  -0.312834  -0.541887  0  2.337784  0
O  O161  1  0.46393395  0.95949957  0.07653947  1  -1.176047  0  -0.312626  -0.54174  0  2.337564  0
O  O162  1  0.57657871  0.04051297  0.07655780  1  -1.176587  0  -0.312698  -0.541879  0  2.337812  0
O  O163  1  0.57663392  0.84686169  0.88287258  1  -1.18088  0  -0.312923  -0.542137  0  2.337756  0
O  O164  1  0.57658017  0.84687880  0.96392459  1  -1.175484  0  -0.312586  -0.541508  0  2.337608  0
O  O165  1  0.99995448  0.99999882  0.50000011  1  -1.18759  0  -0.570618  -1.027847  0  2.528607  0
O  O166  1  0.03590728  0.84687848  0.42353148  1  -1.180197  0  -0.312904  -0.542137  0  2.337055  0
O  O167  1  0.11700793  0.95945867  0.53607127  1  -1.177106  0  -0.312909  -0.542171  0  2.336188  0
O  O168  1  0.92340330  0.04056537  0.61714450  1  -1.169825  0  -0.312707  -0.541928  0  2.33834  0
O  O169  1  0.11696225  0.84684767  0.42347203  1  -1.173772  0  -0.312732  -0.542268  0  2.336327  0
O  O170  1  0.92337383  0.95953107  0.53613163  1  -1.173733  0  -0.312908  -0.542292  0  2.337647  0
O  O171  1  0.03597509  0.04053160  0.61712747  1  -1.173683  0  -0.313106  -0.542271  0  2.338217  0
O  O172  1  0.92333209  0.15315274  0.61713017  1  -1.180808  0  -0.312941  -0.542102  0  2.338223  0
O  O173  1  0.92332308  0.04050899  0.42348745  1  -1.172829  0  -0.312641  -0.542141  0  2.337042  0
O  O174  1  0.92332713  0.15314063  0.53608280  1  -1.175528  0  -0.312836  -0.54231  0  2.337305  0
O  O175  1  0.92329111  0.95951135  0.42353403  1  -1.179251  0  -0.312922  -0.541854  0  2.337286  0
O  O176  1  0.11704064  0.95949085  0.42342368  1  -1.16945  0  -0.312682  -0.541716  0  2.336488  0
O  O177  1  0.03598891  0.04054563  0.42344322  1  -1.176164  0  -0.312981  -0.542005  0  2.337926  0
O  O178  1  0.80283615  0.91379504  0.30284558  1  -1.102012  0  -0.34875  -0.421171  0  2.242813  0
O  O179  1  0.80281736  0.08609733  0.30289955  1  -1.095559  0  -0.348778  -0.420819  0  2.243742  0
O  O180  1  0.69706695  0.91385443  0.19714578  1  -1.099899  0  -0.348652  -0.420778  0  2.242587  0
O  O181  1  0.69711843  0.08609838  0.19715081  1  -1.097656  0  -0.348515  -0.420776  0  2.243961  0
O  O182  1  0.11095019  0.08622251  0.78329722  1  -1.103073  0  -0.348775  -0.42096  0  2.242761  0
O  O183  1  0.28320299  0.91387791  0.61098118  1  -1.101351  0  -0.348476  -0.42032  0  2.243775  0
O  O184  1  0.21675198  0.08617022  0.88899146  1  -1.102018  0  -0.348534  -0.420701  0  2.24351  0
O  O185  1  0.38899506  0.91388359  0.71666984  1  -1.100874  0  -0.348667  -0.421039  0  2.242713  0
O  O186  1  0.11083924  0.60574493  0.30300832  1  -1.106019  0  -0.348679  -0.420588  0  2.242502  0
O  O187  1  0.28312391  0.60572841  0.30297203  1  -1.105184  0  -0.348377  -0.420017  0  2.244287  0
O  O188  1  0.21665269  0.39421689  0.19721067  1  -1.114391  0  -0.348721  -0.420891  0  2.242723  0
O  O189  1  0.38887730  0.39431846  0.19729277  1  -1.10215  0  -0.348707  -0.42061  0  2.243802  0
O  O190  1  0.80287635  0.39428793  0.78330591  1  -1.112153  0  -0.348995  -0.421463  0  2.242535  0
O  O191  1  0.80291641  0.39424221  0.61100504  1  -1.10378  0  -0.348575  -0.420741  0  2.243489  0
O  O192  1  0.69709808  0.60578253  0.88903991  1  -1.104812  0  -0.348454  -0.420343  0  2.24323  0
O  O193  1  0.69709317  0.60570766  0.71672427  1  -1.110455  0  -0.348685  -0.421083  0  2.242936  0
O  O194  1  0.80283297  0.91398443  0.61115802  1  -1.092867  0  -0.348293  -0.420158  0  2.244334  0
O  O195  1  0.80290504  0.08623852  0.78338689  1  -1.097849  0  -0.348612  -0.420666  0  2.242572  0
O  O196  1  0.69720384  0.91399214  0.71682155  1  -1.09242  0  -0.3484  -0.420022  0  2.243994  0
O  O197  1  0.69711393  0.08629783  0.88915230  1  -1.098882  0  -0.348495  -0.420712  0  2.241959  0
O  O198  1  0.11091370  0.08629506  0.30298026  1  -1.096837  0  -0.34897  -0.421152  0  2.24269  0
O  O199  1  0.28321727  0.91403672  0.30299234  1  -1.103855  0  -0.348566  -0.420356  0  2.243241  0
O  O200  1  0.21668881  0.08625140  0.19714406  1  -1.095944  0  -0.348755  -0.420805  0  2.242958  0
O  O201  1  0.38896915  0.91393153  0.19712923  1  -1.095331  0  -0.348629  -0.420892  0  2.243582  0
