# generated using pymatgen
data_H12PbC22(NO)4
_symmetry_space_group_name_H-M   'P 1'
_cell_length_a   6.73435820
_cell_length_b   8.21031397
_cell_length_c   17.75371826
_cell_angle_alpha   94.72377365
_cell_angle_beta   91.54150960
_cell_angle_gamma   103.87714528
_symmetry_Int_Tables_number   1
_chemical_formula_structural   H12PbC22(NO)4
_chemical_formula_sum   'H24 Pb2 C44 N8 O8'
_cell_volume   948.63117346
_cell_formula_units_Z   2
loop_
 _symmetry_equiv_pos_site_id
 _symmetry_equiv_pos_as_xyz
  1  'x, y, z'
loop_
 _atom_site_type_symbol
 _atom_site_label
 _atom_site_symmetry_multiplicity
 _atom_site_fract_x
 _atom_site_fract_y
 _atom_site_fract_z
 _atom_site_occupancy
 _atom_site_hle17_bader_spin_density
 _atom_site_hle17_ddec_charge
 _atom_site_hle17_ddec_spin_density
 _atom_site_hle17_ddec_sum_bond_order
 _atom_site_hle17_magmom
 _atom_site_hse06_10hf_bader_spin_density
 _atom_site_hse06_10hf_ddec_charge
 _atom_site_hse06_10hf_ddec_spin_density
 _atom_site_hse06_10hf_ddec_sum_bond_order
 _atom_site_hse06_10hf_magmom
 _atom_site_hse06_bader_spin_density
 _atom_site_hse06_ddec_charge
 _atom_site_hse06_ddec_spin_density
 _atom_site_hse06_ddec_sum_bond_order
 _atom_site_hse06_magmom
 _atom_site_pbe_bader_spin_density
 _atom_site_pbe_cm5_charge
 _atom_site_pbe_ddec_charge
 _atom_site_pbe_ddec_spin_density
 _atom_site_pbe_ddec_sum_bond_order
 _atom_site_pbe_magmom
H  H0  1  0.68649499  0.69651045  0.35605486  1  0  0.10041  0  0.94374  0  0  0.106319  0  1.009097  0  0  0.109477  0  1.005943  0  0  0.123011  0.10394  0  1.011441  0
H  H1  1  0.31357662  0.30343353  0.64394129  1  0  0.100267  0  0.943801  0  0  0.106153  0  1.009211  0  0  0.109295  0  1.00608  0  0  0.122935  0.103771  0  1.011559  0
H  H2  1  0.81548434  0.87972362  0.25422689  1  0  0.105738  0  0.938437  0  0  0.117471  0  0.993967  0  0  0.121052  0  0.992606  0  0  0.110379  0.114887  0  0.995169  0
H  H3  1  0.18447130  0.12040969  0.74582502  1  0  0.105971  0  0.938187  0  0  0.1175  0  0.993943  0  0  0.121072  0  0.992605  0  0  0.110384  0.114925  0  0.995128  0
H  H4  1  0.57338872  0.87924848  0.14136103  1  0  0.095416  0  0.965898  0  0  0.102791  0  1.035935  0  0  0.106206  0  1.032417  0  0  0.106336  0.100317  0  1.038448  0
H  H5  1  0.42658595  0.12090034  0.85869495  1  0  0.095458  0  0.96615  0  0  0.102914  0  1.036121  0  0  0.106321  0  1.032642  0  0  0.106274  0.100436  0  1.038637  0
H  H6  1  0.60329267  0.39611802  0.14522369  1  0  0.094641  0  0.968053  0  0  0.102023  0  1.03855  0  0  0.105021  0  1.035931  0  0  0.105851  0.099879  0  1.04041  0
H  H7  1  0.39671904  0.60401386  0.85479874  1  0  0.094742  0  0.968053  0  0  0.101989  0  1.038692  0  0  0.104973  0  1.036071  0  0  0.105875  0.099854  0  1.040533  0
H  H8  1  0.51335647  0.21965970  0.25737798  1  0  0.118992  0  0.942055  0  0  0.127833  0  1.001014  0  0  0.132022  0  0.998392  0  0  0.110886  0.124769  0  1.003152  0
H  H9  1  0.48664549  0.78035176  0.74260720  1  0  0.118925  0  0.942188  0  0  0.127748  0  1.00117  0  0  0.131937  0  0.998547  0  0  0.110828  0.124687  0  1.003303  0
H  H10  1  0.78979343  0.22622292  0.35410915  1  0  0.094658  0  0.941788  0  0  0.09997  0  1.009302  0  0  0.102905  0  1.006298  0  0  0.121631  0.097727  0  1.011533  0
H  H11  1  0.21021003  0.77370084  0.64585774  1  0  0.094577  0  0.941737  0  0  0.099928  0  1.009186  0  0  0.102874  0  1.006142  0  0  0.121661  0.097698  0  1.011417  0
H  H12  1  0.59397614  0.62499734  0.95552052  1  0  0.112297  0  0.947997  0  0  0.117416  0  1.01839  0  0  0.121711  0  1.014618  0  0  0.106186  0.114284  0  1.02122  0
H  H13  1  0.40596076  0.37512469  0.04451560  1  0  0.112436  0  0.948035  0  0  0.117505  0  1.018434  0  0  0.121797  0  1.01467  0  0  0.106296  0.114388  0  1.02124  0
H  H14  1  0.32043663  0.95978351  0.94767003  1  0  0.107948  0  0.94603  0  0  0.115933  0  1.012552  0  0  0.119715  0  1.009564  0  0  0.106487  0.113131  0  1.014883  0
H  H15  1  0.67952330  0.04027989  0.05234827  1  0  0.107922  0  0.946173  0  0  0.115998  0  1.012558  0  0  0.119767  0  1.009608  0  0  0.106498  0.113197  0  1.014888  0
H  H16  1  0.06156809  0.96700543  0.84426345  1  0  0.08641  0  0.950913  0  0  0.10103  0  1.006475  0  0  0.103028  0  1.006487  0  0  0.103096  0.099599  0  1.0065  0
H  H17  1  0.93840084  0.03299855  0.15574578  1  0  0.086381  0  0.950866  0  0  0.100915  0  1.006512  0  0  0.10291  0  1.006539  0  0  0.103039  0.09949  0  1.006529  0
H  H18  1  0.70368205  0.80312991  0.84839171  1  0  0.091276  0  0.951271  0  0  0.106765  0  1.005297  0  0  0.108935  0  1.004827  0  0  0.10493  0.105166  0  1.005762  0
H  H19  1  0.29631872  0.19680896  0.15159519  1  0  0.091399  0  0.95125  0  0  0.106923  0  1.005214  0  0  0.109101  0  1.004737  0  0  0.105045  0.105326  0  1.005679  0
H  H20  1  0.04587495  0.99427928  0.58500712  1  0  0.112785  0  0.934833  0  0  0.120968  0  0.998065  0  0  0.125315  0  0.994945  0  0  0.105325  0.117927  0  1.00038  0
H  H21  1  0.95421122  0.00566155  0.41497739  1  0  0.112606  0  0.935197  0  0  0.120829  0  0.998422  0  0  0.125159  0  0.995323  0  0  0.105277  0.117788  0  1.000733  0
H  H22  1  0.48793013  0.04492942  0.58542677  1  0  0.11125  0  0.943017  0  0  0.118016  0  1.008924  0  0  0.121818  0  1.006955  0  0  0.103399  0.115347  0  1.010485  0
H  H23  1  0.51213033  0.95504466  0.41451576  1  0  0.111407  0  0.943108  0  0  0.11814  0  1.008973  0  0  0.121941  0  1.006999  0  0  0.103312  0.115468  0  1.010535  0
Pb  Pb24  1  0.23975007  0.48351658  0.42954315  1  0  1.275261  0  1.546388  0  0  1.082908  0  1.948988  0  0  1.145146  0  1.905961  0  0  0.618666  1.038231  0  1.978817  0
Pb  Pb25  1  0.76020301  0.51640722  0.57045047  1  0  1.275468  0  1.546087  0  0  1.08314  0  1.948619  0  0  1.145365  0  1.905615  0  0  0.618698  1.038467  0  1.978444  0
C  C26  1  0.58799754  0.69841295  0.30653331  1  0  0.15736  0  3.669099  0  0  0.124756  0  3.927335  0  0  0.133432  0  3.94296  0  0  0.069248  0.119042  0  3.916991  0
C  C27  1  0.41202841  0.30160452  0.69348173  1  0  0.15778  0  3.669379  0  0  0.12513  0  3.927619  0  0  0.133823  0  3.943228  0  0  0.069444  0.119423  0  3.917272  0
C  C28  1  0.65915154  0.80183697  0.24904956  1  0  -0.117233  0  3.727356  0  0  -0.131538  0  3.985789  0  0  -0.139075  0  4.006786  0  0  -0.080692  -0.126797  0  3.971924  0
C  C29  1  0.34083500  0.19826238  0.75099594  1  0  -0.117418  0  3.727625  0  0  -0.13151  0  3.986039  0  0  -0.13905  0  4.007039  0  0  -0.080518  -0.126772  0  3.972177  0
C  C30  1  0.52780193  0.80149092  0.18768851  1  0  -0.022951  0  3.693031  0  0  -0.051466  0  3.94538  0  0  -0.0475  0  3.962563  0  0  -0.061563  -0.053761  0  3.933605  0
C  C31  1  0.47215810  0.19860463  0.81236038  1  0  -0.023105  0  3.693222  0  0  -0.051625  0  3.945546  0  0  -0.04767  0  3.962727  0  0  -0.061599  -0.053916  0  3.933767  0
C  C32  1  0.32769554  0.69808355  0.18444189  1  0  -0.047385  0  3.749045  0  0  -0.0342  0  3.97851  0  0  -0.04057  0  4.003124  0  0  -0.000128  -0.030185  0  3.962019  0
C  C33  1  0.67230412  0.30197939  0.81558216  1  0  -0.047329  0  3.748499  0  0  -0.034382  0  3.978315  0  0  -0.040752  0  4.002928  0  0  -0.000168  -0.030351  0  3.961829  0
C  C34  1  0.26870991  0.59710059  0.24463868  1  0  0.15931  0  3.736887  0  0  0.148935  0  3.980071  0  0  0.155787  0  3.999754  0  0  0.132953  0.144378  0  3.96674  0
C  C35  1  0.73132124  0.40291942  0.75537594  1  0  0.159137  0  3.736472  0  0  0.148819  0  3.97977  0  0  0.155667  0  3.999454  0  0  0.132891  0.144217  0  3.9665  0
C  C36  1  0.06114911  0.48912632  0.24423630  1  0  0.156332  0  3.740997  0  0  0.145186  0  3.986492  0  0  0.151593  0  4.005831  0  0  0.130514  0.140831  0  3.973499  0
C  C37  1  0.93889234  0.51085892  0.75576307  1  0  0.156285  0  3.741603  0  0  0.145109  0  3.987155  0  0  0.151503  0  4.006516  0  0  0.130453  0.140771  0  3.97417  0
C  C38  1  0.91607814  0.49163995  0.18563313  1  0  -0.049455  0  3.760739  0  0  -0.036977  0  3.993763  0  0  -0.043165  0  4.019099  0  0  -0.000874  -0.032969  0  3.976914  0
C  C39  1  0.08394610  0.50836910  0.81436873  1  0  -0.049329  0  3.760701  0  0  -0.036843  0  3.993658  0  0  -0.043027  0  4.01899  0  0  -0.000752  -0.03283  0  3.976807  0
C  C40  1  0.71594057  0.39181909  0.18963575  1  0  -0.034216  0  3.708556  0  0  -0.063083  0  3.964074  0  0  -0.060228  0  3.983407  0  0  -0.06534  -0.064658  0  3.950879  0
C  C41  1  0.28408535  0.60822269  0.81036800  1  0  -0.034519  0  3.708778  0  0  -0.063266  0  3.964343  0  0  -0.060396  0  3.983665  0  0  -0.065442  -0.064843  0  3.951139  0
C  C42  1  0.66727144  0.29452123  0.24966376  1  0  -0.112144  0  3.715271  0  0  -0.12757  0  3.975004  0  0  -0.13452  0  3.995609  0  0  -0.078854  -0.123172  0  3.961217  0
C  C43  1  0.33275357  0.70547364  0.75033216  1  0  -0.11187  0  3.715168  0  0  -0.127288  0  3.974828  0  0  -0.134235  0  3.995425  0  0  -0.078768  -0.122888  0  3.961049  0
C  C44  1  0.82172483  0.29756655  0.30473640  1  0  0.153988  0  3.666337  0  0  0.123382  0  3.920987  0  0  0.131436  0  3.937552  0  0  0.068441  0.118247  0  3.909694  0
C  C45  1  0.17826805  0.70235945  0.69524670  1  0  0.153709  0  3.666652  0  0  0.123094  0  3.921316  0  0  0.131159  0  3.937885  0  0  0.068337  0.117933  0  3.910049  0
C  C46  1  0.97483958  0.59573679  0.12336617  1  0  0.140214  0  3.770859  0  0  0.133186  0  4.024284  0  0  0.137869  0  4.043573  0  0  0.126468  0.129992  0  4.011302  0
C  C47  1  0.02518666  0.40429180  0.87664631  1  0  0.14037  0  3.770634  0  0  0.133369  0  4.023929  0  0  0.138054  0  4.043207  0  0  0.126501  0.130168  0  4.010949  0
C  C48  1  0.18195687  0.69587210  0.12191206  1  0  0.144464  0  3.772683  0  0  0.140047  0  4.02159  0  0  0.145046  0  4.040324  0  0  0.127332  0.136626  0  4.008959  0
C  C49  1  0.81805210  0.30417558  0.87810731  1  0  0.144416  0  3.772791  0  0  0.140148  0  4.021512  0  0  0.145156  0  4.040233  0  0  0.12737  0.136733  0  4.008871  0
C  C50  1  0.10386876  0.78803546  0.00877844  1  0  0.164061  0  3.803661  0  0  0.165224  0  4.047849  0  0  0.168533  0  4.069496  0  0  0.113557  0.162878  0  4.03335  0
C  C51  1  0.89613019  0.21198697  0.99123962  1  0  0.164187  0  3.803318  0  0  0.164871  0  4.04805  0  0  0.168177  0  4.069702  0  0  0.113421  0.162521  0  4.033558  0
C  C52  1  0.89535260  0.69139973  0.01105988  1  0  0.162657  0  3.794378  0  0  0.164735  0  4.038119  0  0  0.167642  0  4.060415  0  0  0.112351  0.162584  0  4.023174  0
C  C53  1  0.10462410  0.30861739  0.98895711  1  0  0.162722  0  3.794445  0  0  0.165204  0  4.037819  0  0  0.168111  0  4.060109  0  0  0.112251  0.163055  0  4.022878  0
C  C54  1  0.75136487  0.69810860  0.95215257  1  0  -0.134327  0  3.702745  0  0  -0.154692  0  3.957606  0  0  -0.158781  0  3.978487  0  0  -0.084271  -0.151774  0  3.943464  0
C  C55  1  0.24859276  0.30193108  0.04786741  1  0  -0.134548  0  3.703177  0  0  -0.154946  0  3.958019  0  0  -0.159048  0  3.978928  0  0  -0.084321  -0.152028  0  3.94388  0
C  C56  1  0.16188168  0.88709958  0.94750336  1  0  -0.133265  0  3.712482  0  0  -0.152155  0  3.96265  0  0  -0.156371  0  3.98445  0  0  -0.083395  -0.149165  0  3.947908  0
C  C57  1  0.83807965  0.11291918  0.05250325  1  0  -0.13326  0  3.712666  0  0  -0.15212  0  3.9629  0  0  -0.156342  0  3.984721  0  0  -0.083318  -0.149128  0  3.948166  0
C  C58  1  0.01850694  0.89080856  0.89138546  1  0  -0.046172  0  3.755921  0  0  -0.064329  0  4.010981  0  0  -0.066396  0  4.034813  0  0  -0.084034  -0.062818  0  3.99465  0
C  C59  1  0.98146723  0.10918612  0.10861520  1  0  -0.046143  0  3.755568  0  0  -0.064217  0  4.010617  0  0  -0.06629  0  4.034451  0  0  -0.08397  -0.062708  0  3.994285  0
C  C60  1  0.81290446  0.79623733  0.89369836  1  0  -0.049739  0  3.748109  0  0  -0.068968  0  4.004697  0  0  -0.070757  0  4.027505  0  0  -0.083947  -0.067637  0  3.989094  0
C  C61  1  0.18708834  0.20375512  0.10630371  1  0  -0.049826  0  3.748052  0  0  -0.069095  0  4.004655  0  0  -0.070893  0  4.027464  0  0  -0.08408  -0.067772  0  3.989065  0
C  C62  1  0.56257520  0.80821241  0.54332784  1  0  0.670493  0  3.938814  0  0  0.625884  0  4.224382  0  0  0.660179  0  4.219455  0  0  0.200213  0.60264  0  4.226658  0
C  C63  1  0.43745262  0.19174848  0.45662848  1  0  0.670245  0  3.938752  0  0  0.625426  0  4.224605  0  0  0.659726  0  4.219677  0  0  0.200055  0.602177  0  4.226877  0
C  C64  1  0.95614805  0.21198371  0.54261713  1  0  0.66819  0  3.94724  0  0  0.624096  0  4.233966  0  0  0.658112  0  4.228811  0  0  0.199128  0.601043  0  4.236421  0
C  C65  1  0.04382725  0.78790827  0.45734743  1  0  0.667668  0  3.948449  0  0  0.624102  0  4.234473  0  0  0.658117  0  4.229313  0  0  0.199461  0.601043  0  4.236937  0
C  C66  1  0.00533303  0.04501507  0.53348586  1  0  -0.149917  0  3.6552  0  0  -0.170819  0  3.914848  0  0  -0.175708  0  3.928271  0  0  -0.084138  -0.167707  0  3.905971  0
C  C67  1  0.99475180  0.95490886  0.46648979  1  0  -0.14911  0  3.655651  0  0  -0.170308  0  3.915163  0  0  -0.1752  0  3.928639  0  0  -0.084209  -0.167197  0  3.906283  0
C  C68  1  0.50814254  0.97049569  0.53372898  1  0  -0.144781  0  3.638549  0  0  -0.16568  0  3.898738  0  0  -0.170451  0  3.911975  0  0  -0.083264  -0.162661  0  3.890018  0
C  C69  1  0.49193121  0.02945940  0.46622744  1  0  -0.145024  0  3.638547  0  0  -0.165676  0  3.898541  0  0  -0.17045  0  3.911818  0  0  -0.083071  -0.162652  0  3.889801  0
N  N70  1  0.01240881  0.39113741  0.30182003  1  0  -0.337924  0  3.171721  0  0  -0.273818  0  3.421529  0  0  -0.291923  0  3.439997  0  0  -0.287041  -0.261496  0  3.408816  0
N  N71  1  0.98761347  0.60879463  0.69817387  1  0  -0.337652  0  3.172538  0  0  -0.273561  0  3.42239  0  0  -0.291661  0  3.440865  0  0  -0.286965  -0.261244  0  3.409687  0
N  N72  1  0.39904486  0.59923170  0.30408034  1  0  -0.336297  0  3.175989  0  0  -0.272043  0  3.427755  0  0  -0.290978  0  3.447112  0  0  -0.284842  -0.259135  0  3.414521  0
N  N73  1  0.60097667  0.40074279  0.69592971  1  0  -0.336413  0  3.176236  0  0  -0.272168  0  3.428111  0  0  -0.291105  0  3.447467  0  0  -0.284967  -0.259246  0  3.414883  0
N  N74  1  0.24378566  0.78858417  0.06493638  1  0  -0.328014  0  3.027515  0  0  -0.301734  0  3.291424  0  0  -0.309736  0  3.304095  0  0  -0.294917  -0.296085  0  3.282781  0
N  N75  1  0.75619863  0.21145413  0.93507783  1  0  -0.328051  0  3.027008  0  0  -0.301679  0  3.291006  0  0  -0.309672  0  3.30366  0  0  -0.294882  -0.296027  0  3.282361  0
N  N76  1  0.83519681  0.59532775  0.06864044  1  0  -0.326303  0  3.022206  0  0  -0.299584  0  3.28884  0  0  -0.307891  0  3.303255  0  0  -0.293524  -0.293725  0  3.279019  0
N  N77  1  0.16481058  0.40469180  0.93137094  1  0  -0.326517  0  3.022035  0  0  -0.299875  0  3.288516  0  0  -0.30818  0  3.302922  0  0  -0.293536  -0.294013  0  3.278692  0
O  O78  1  0.56680104  0.70663977  0.48442038  1  0  -0.716389  0  2.019904  0  0  -0.636325  0  2.252288  0  0  -0.670123  0  2.247944  0  0  -0.311678  -0.612348  0  2.254419  0
O  O79  1  0.43316998  0.29329177  0.51555514  1  0  -0.716603  0  2.019541  0  0  -0.636389  0  2.251859  0  0  -0.670189  0  2.247507  0  0  -0.311757  -0.612407  0  2.253995  0
O  O80  1  0.60763349  0.77882208  0.61016484  1  0  -0.643137  0  1.887815  0  0  -0.587126  0  2.112877  0  0  -0.614594  0  2.104505  0  0  -0.313908  -0.56754  0  2.117799  0
O  O81  1  0.39239149  0.22115019  0.38979337  1  0  -0.64264  0  1.888199  0  0  -0.586596  0  2.113354  0  0  -0.614058  0  2.104993  0  0  -0.313642  -0.567012  0  2.118268  0
O  O82  1  0.92560679  0.28458622  0.48307584  1  0  -0.717933  0  2.011936  0  0  -0.63792  0  2.244481  0  0  -0.671422  0  2.239764  0  0  -0.313274  -0.614205  0  2.246891  0
O  O83  1  0.07426142  0.71523985  0.51687521  1  0  -0.717622  0  2.012486  0  0  -0.637818  0  2.244984  0  0  -0.671323  0  2.240265  0  0  -0.313185  -0.614107  0  2.247409  0
O  O84  1  0.94298393  0.27475420  0.60959499  1  0  -0.636922  0  1.902396  0  0  -0.585185  0  2.127023  0  0  -0.612095  0  2.120981  0  0  -0.316834  -0.56598  0  2.130345  0
O  O85  1  0.05696889  0.72515236  0.39036612  1  0  -0.636745  0  1.90297  0  0  -0.585253  0  2.127453  0  0  -0.612153  0  2.121385  0  0  -0.317027  -0.566043  0  2.130775  0
