# generated using pymatgen
data_ZnH13C18Br2N7O4
_symmetry_space_group_name_H-M   'P 1'
_cell_length_a   11.09744833
_cell_length_b   16.12247140
_cell_length_c   17.27745022
_cell_angle_alpha   96.03683264
_cell_angle_beta   90.07573596
_cell_angle_gamma   92.21596470
_symmetry_Int_Tables_number   1
_chemical_formula_structural   ZnH13C18Br2N7O4
_chemical_formula_sum   'Zn2 H26 C36 Br4 N14 O8'
_cell_volume   3071.76531428
_cell_formula_units_Z   2
loop_
 _symmetry_equiv_pos_site_id
 _symmetry_equiv_pos_as_xyz
  1  'x, y, z'
loop_
 _atom_site_type_symbol
 _atom_site_label
 _atom_site_symmetry_multiplicity
 _atom_site_fract_x
 _atom_site_fract_y
 _atom_site_fract_z
 _atom_site_occupancy
 _atom_site_pbe_bader_charge
 _atom_site_pbe_bader_spin_density
 _atom_site_pbe_cm5_charge
 _atom_site_pbe_ddec_charge
 _atom_site_pbe_ddec_spin_density
 _atom_site_pbe_ddec_sum_bond_order
 _atom_site_pbe_magmom
Zn  Zn0  1  0.49846307  0.40846744  0.49810333  1  1.293141  0  0.678275  0.855963  0  2.331285  0
Zn  Zn1  1  0.50521166  0.59321000  0.50493893  1  1.293206  0  0.678502  0.838153  0  2.388295  0
H  H2  1  0.39471751  0.71462051  0.42108527  1  0.107211  0  0.119964  0.101623  0  0.987835  0
H  H3  1  0.38226714  0.87060217  0.42481677  1  0.105772  0  0.111633  0.126063  0  1.01273  0
H  H4  1  0.31420495  0.11086596  0.41564268  1  0.071871  0  0.108797  0.133553  0  1.005108  0
H  H5  1  0.62910071  0.11848579  0.56263021  1  0.058448  0  0.098177  0.11854  0  1.043897  0
H  H6  1  0.51212504  0.61779303  0.26587758  1  0.084674  0  0.094612  0.103094  0  1.01849  0
H  H7  1  0.51446764  0.61612395  0.12025770  1  0.073722  0  0.098596  0.106864  0  1.02233  0
H  H8  1  0.52563907  0.66006803  0.90442990  1  0.06553  0  0.098759  0.113965  0  1.016995  0
H  H9  1  0.48443869  0.39306212  0.88955702  1  0.042233  0  0.092447  0.103471  0  1.048766  0
H  H10  1  0.77160688  0.57330355  0.39196974  1  0.091488  0  0.108346  0.135475  0  1.007797  0
H  H11  1  0.21963490  0.57627280  0.37793190  1  0.121091  0  0.108351  0.132953  0  1.004956  0
H  H12  1  0.69224569  0.66795147  0.58841430  1  0.479951  0  0.303768  0.324424  0  0.973705  0
H  H13  1  0.69655049  0.75476917  0.65540210  1  0.424296  0  0.312302  0.30654  0  0.938953  0
H  H14  1  0.68375777  0.96431471  0.60649634  1  0.438844  0  0.307254  0.294982  0  0.965005  0
H  H15  1  0.76069218  0.87642195  0.62073220  1  0.44987  0  0.312048  0.301868  0  0.941412  0
H  H16  1  0.29898505  0.33772637  0.43401399  1  0.521733  0  0.301881  0.324804  0  0.989533  0
H  H17  1  0.24256360  0.24251186  0.38990442  1  0.451932  0  0.322302  0.319094  0  0.914811  0
H  H18  1  0.67714419  0.34134434  0.56321894  1  0.504601  0  0.287913  0.300429  0  1.031836  0
H  H19  1  0.71901767  0.25202341  0.59930621  1  0.431032  0  0.310328  0.307948  0  0.931196  0
H  H20  1  0.50892281  0.33355860  0.30550398  1  0.484797  0  0.292191  0.306675  0  0.995951  0
H  H21  1  0.54189846  0.28401797  0.21462616  1  0.439499  0  0.299483  0.288335  0  0.961922  0
H  H22  1  0.48515674  0.33602202  0.03252538  1  0.475566  0  0.295188  0.28142  0  0.988705  0
H  H23  1  0.44168116  0.28516872  0.11023919  1  0.427702  0  0.298851  0.285555  0  0.958025  0
H  H24  1  0.49601061  0.66976964  0.69785882  1  0.484058  0  0.29148  0.302544  0  1.009234  0
H  H25  1  0.50355854  0.72420104  0.79047396  1  0.426461  0  0.303319  0.297188  0  0.9448  0
H  H26  1  0.48826252  0.36229104  0.68051303  1  0.514796  0  0.288308  0.303297  0  1.016514  0
H  H27  1  0.48076135  0.31731039  0.76797134  1  0.423744  0  0.303107  0.298047  0  0.94163  0
C  C28  1  0.50913540  0.48972686  0.35043387  1  1.518524  0  0.212829  0.603104  0  4.142355  0
C  C29  1  0.26596703  0.50901318  0.49937897  1  1.639755  0  0.218954  0.613908  0  4.17972  0
C  C30  1  0.49564376  0.51514333  0.65416467  1  1.506815  0  0.204925  0.60334  0  4.151236  0
C  C31  1  0.74085191  0.49885131  0.51197427  1  1.552428  0  0.219504  0.612851  0  4.186141  0
C  C32  1  0.45123624  0.75739035  0.45987273  1  0.401329  0  0.027066  0.078366  0  3.997505  0
C  C33  1  0.44426120  0.84239283  0.46217142  1  0.02441  0  -0.100988  -0.220581  0  4.028915  0
C  C34  1  0.52173636  0.89379305  0.51352102  1  0.429463  0  0.087242  0.096324  0  4.062673  0
C  C35  1  0.60259505  0.85657072  0.56105494  1  0.40224  0  0.115447  0.123901  0  4.016395  0
C  C36  1  0.60265417  0.76723470  0.55566282  1  1.089454  0  0.231316  0.357682  0  4.040487  0
C  C37  1  0.38618759  0.14613217  0.44878750  1  0.070889  0  -0.114312  -0.35588  0  3.922134  0
C  C38  1  0.47060890  0.10458939  0.48843091  1  0.308555  0  0.088375  0.23972  0  4.135501  0
C  C39  1  0.56187469  0.14996633  0.53193024  1  0.009504  0  -0.135996  -0.386322  0  3.975378  0
C  C40  1  0.56604032  0.23706661  0.53437739  1  0.919559  0  0.220424  0.481062  0  4.082171  0
C  C41  1  0.39403864  0.23403615  0.45412872  1  0.927037  0  0.228276  0.478384  0  4.091442  0
C  C42  1  0.50601451  0.48415107  0.26428223  1  -0.015206  0  -0.039325  -0.160573  0  3.967927  0
C  C43  1  0.50926391  0.55929799  0.22806816  1  0.020325  0  -0.105677  -0.104001  0  4.085351  0
C  C44  1  0.51088294  0.55878070  0.14841623  1  -0.03673  0  -0.111466  -0.178353  0  4.050728  0
C  C45  1  0.50578388  0.48163143  0.10089309  1  0.48388  0  0.076954  0.083407  0  4.051117  0
C  C46  1  0.50081598  0.40582796  0.13511436  1  0.344403  0  0.098586  0.143901  0  4.001799  0
C  C47  1  0.50305839  0.40646829  0.21774833  1  0.445446  0  0.097597  0.202854  0  4.027491  0
C  C48  1  0.51457535  0.60060788  0.86822490  1  0.039162  0  -0.121037  -0.315347  0  3.955982  0
C  C49  1  0.50563003  0.52718659  0.90447057  1  0.298861  0  0.080337  0.21736  0  4.133459  0
C  C50  1  0.49201402  0.44968040  0.86030089  1  0.034199  0  -0.137081  -0.339168  0  3.987918  0
C  C51  1  0.48752943  0.44450423  0.77885980  1  0.440785  0  0.102057  0.332129  0  4.086636  0
C  C52  1  0.49776977  0.51927485  0.73975636  1  -0.028278  0  -0.048266  -0.288336  0  3.852944  0
C  C53  1  0.51036524  0.59800601  0.78679474  1  0.412705  0  0.102138  0.329163  0  4.070112  0
C  C54  1  0.87644887  0.50380242  0.51175027  1  0.096133  0  -0.016022  -0.108667  0  3.942866  0
C  C55  1  0.93508621  0.53867913  0.44848294  1  0.081069  0  -0.002615  0.076392  0  3.968088  0
C  C56  1  0.94363338  0.47518705  0.57026405  1  -0.090838  0  -0.023278  0.028755  0  3.97452  0
C  C57  1  0.86955812  0.57271075  0.38953328  1  0.06627  0  -0.093099  -0.165584  0  3.929478  0
C  C58  1  0.92823858  0.60771292  0.32977438  1  -0.076874  0  -0.023584  0.06433  0  3.989239  0
C  C59  1  0.13056521  0.50722597  0.50448058  1  0.07701  0  -0.015942  -0.106295  0  3.929347  0
C  C60  1  0.07160313  0.47632861  0.56673248  1  -0.078256  0  -0.022354  0.030781  0  3.974379  0
C  C61  1  0.06390756  0.54017036  0.44480031  1  -0.028456  0  -0.001657  0.076938  0  3.970779  0
C  C62  1  0.12176807  0.57474296  0.38170987  1  0.012379  0  -0.094851  -0.171286  0  3.943099  0
C  C63  1  0.05607815  0.60834995  0.32563922  1  -0.106047  0  -0.023792  0.065122  0  3.988275  0
Br  Br64  1  0.16266445  0.43855700  0.64830945  1  -0.009103  0  0.038923  -0.023259  0  1.508607  0
Br  Br65  1  0.86213428  0.43884646  0.65821570  1  -0.038791  0  0.043166  -0.029312  0  1.499737  0
Br  Br66  1  0.83426966  0.65375132  0.25460289  1  -0.031294  0  0.02671  -0.049251  0  1.421217  0
Br  Br67  1  0.14113012  0.65515377  0.24452998  1  -0.044665  0  0.017259  -0.061934  0  1.387663  0
N  N68  1  0.52773432  0.72029038  0.50653034  1  -1.244354  0  -0.338328  -0.310983  0  3.489224  0
N  N69  1  0.53173922  0.98079385  0.51978463  1  -0.5243  0  -0.151364  -0.121432  0  3.336491  0
N  N70  1  0.45502419  0.01634681  0.48120139  1  -0.438176  0  -0.14932  -0.134234  0  3.21153  0
N  N71  1  0.48366911  0.27908307  0.49571260  1  -1.217722  0  -0.342923  -0.429832  0  3.300935  0
N  N72  1  0.50103200  0.47218877  0.01962226  1  -0.601832  0  -0.157727  -0.126685  0  3.35045  0
N  N73  1  0.51204244  0.53903731  0.98675519  1  -0.502357  0  -0.157596  -0.14392  0  3.249123  0
N  N74  1  0.68569774  0.73127097  0.59881442  1  -1.199931  0  -0.583104  -0.625714  0  3.299584  0
N  N75  1  0.68008359  0.90215313  0.61248490  1  -1.210693  0  -0.5834  -0.576981  0  3.344153  0
N  N76  1  0.31262590  0.27610609  0.41635166  1  -1.289857  0  -0.577334  -0.623409  0  3.295645  0
N  N77  1  0.65128812  0.28368168  0.57840292  1  -1.241937  0  -0.589872  -0.640798  0  3.336811  0
N  N78  1  0.49758954  0.32974680  0.24655483  1  -1.23979  0  -0.60183  -0.612164  0  3.334931  0
N  N79  1  0.49779191  0.32936569  0.08998091  1  -1.238063  0  -0.59771  -0.59915  0  3.33609  0
N  N80  1  0.52282159  0.67266764  0.75461642  1  -1.253651  0  -0.605666  -0.630304  0  3.328719  0
N  N81  1  0.46877542  0.36722146  0.73831737  1  -1.266476  0  -0.603335  -0.619383  0  3.345561  0
O  O82  1  0.50771497  0.42143546  0.38286774  1  -1.173186  0  -0.315954  -0.54851  0  2.384127  0
O  O83  1  0.51382035  0.56228612  0.38850238  1  -1.169527  0  -0.322281  -0.555919  0  2.349122  0
O  O84  1  0.31866534  0.58019995  0.50281719  1  -1.153477  0  -0.302242  -0.519785  0  2.30848  0
O  O85  1  0.31556082  0.43878080  0.49050802  1  -1.185336  0  -0.30896  -0.566817  0  2.398668  0
O  O86  1  0.49042065  0.58313529  0.62173034  1  -1.176525  0  -0.318626  -0.552578  0  2.388486  0
O  O87  1  0.50002509  0.44340871  0.61379303  1  -1.172865  0  -0.32173  -0.565065  0  2.424559  0
O  O88  1  0.68991498  0.42698866  0.49924297  1  -1.171979  0  -0.30505  -0.540874  0  2.343615  0
O  O89  1  0.68845866  0.56773087  0.52091975  1  -1.183286  0  -0.298574  -0.543951  0  2.372914  0
