# generated using pymatgen
data_CoH22C22N3ClO2
_symmetry_space_group_name_H-M   'P 1'
_cell_length_a   9.33901375
_cell_length_b   10.71721359
_cell_length_c   11.36100000
_cell_angle_alpha   109.62408567
_cell_angle_beta   102.44193221
_cell_angle_gamma   98.50256724
_symmetry_Int_Tables_number   1
_chemical_formula_structural   CoH22C22N3ClO2
_chemical_formula_sum   'Co2 H44 C44 N6 Cl2 O4'
_cell_volume   1015.48378052
_cell_formula_units_Z   2
loop_
 _symmetry_equiv_pos_site_id
 _symmetry_equiv_pos_as_xyz
  1  'x, y, z'
loop_
 _atom_site_type_symbol
 _atom_site_label
 _atom_site_symmetry_multiplicity
 _atom_site_fract_x
 _atom_site_fract_y
 _atom_site_fract_z
 _atom_site_occupancy
 _atom_site_hle17_ddec_charge
 _atom_site_hle17_ddec_spin_density
 _atom_site_hle17_ddec_sum_bond_order
 _atom_site_hle17_magmom
 _atom_site_hse06_10hf_ddec_charge
 _atom_site_hse06_10hf_ddec_spin_density
 _atom_site_hse06_10hf_ddec_sum_bond_order
 _atom_site_hse06_10hf_magmom
 _atom_site_hse06_ddec_charge
 _atom_site_hse06_ddec_spin_density
 _atom_site_hse06_ddec_sum_bond_order
 _atom_site_hse06_magmom
 _atom_site_pbe_bader_charge
 _atom_site_pbe_bader_spin_density
 _atom_site_pbe_cm5_charge
 _atom_site_pbe_ddec_charge
 _atom_site_pbe_ddec_spin_density
 _atom_site_pbe_ddec_sum_bond_order
 _atom_site_pbe_magmom
Co  Co0  1  0.06576902  0.36462088  0.90542306  1  0.957453  2.793191  2.098223  2.502  0.913027  2.809599  2.578252  2.567  1.009736  2.860443  2.481358  2.663  1.164156  2.538449  0.60458  0.836657  2.760999  2.651947  2.479
Co  Co1  1  0.93423140  0.63537920  0.09457801  1  0.957432  2.79319  2.098216  2.502  0.912983  2.809603  2.578242  2.567  1.009693  2.860445  2.48135  2.663  1.164136  2.538471  0.604581  0.836635  2.76104  2.651915  2.479
H  H2  1  0.17644841  0.57248549  0.66540849  1  0.116277  5.4e-05  0.950956  0.0  0.127294  -1.5e-05  1.010245  0.0  0.1312  -5.2e-05  1.007849  0.0  0.068911  0.000271  0.105972  0.124239  1.9e-05  1.012506  0.0
H  H3  1  0.82354982  0.42751459  0.33458778  1  0.116259  5.3e-05  0.950953  0.0  0.127265  -1.5e-05  1.010248  0.0  0.131172  -5.1e-05  1.007852  0.0  0.068884  0.000269  0.105942  0.124209  1.9e-05  1.012512  0.0
H  H4  1  0.07627827  0.24088016  0.62612013  1  0.10715  3.1e-05  0.960726  0.0  0.11465  0.000272  1.026268  0.0  0.117595  0.000179  1.025237  0.0  0.087476  0.000753  0.101623  0.112836  0.000351  1.026603  0.0
H  H5  1  0.92372352  0.75912094  0.37387710  1  0.107154  2.3e-05  0.960685  0.0  0.114655  0.000272  1.026224  0.0  0.117599  0.00018  1.025195  0.0  0.087479  0.000751  0.101633  0.112844  0.000351  1.026561  0.0
H  H6  1  0.21122353  0.78761456  0.47001861  1  0.261261  0.000179  0.9325  0.0  0.248863  0.000202  0.996706  0.0  0.254711  0.000107  0.99309  0.0  0.442153  0.000654  0.290014  0.244238  0.000299  1.000001  0.0
H  H7  1  0.78877827  0.21238653  0.52998038  1  0.261261  0.00018  0.932543  0.0  0.248852  0.000202  0.996757  0.0  0.2547  0.000107  0.993142  0.0  0.442178  0.000655  0.290011  0.244227  0.0003  1.000051  0.0
H  H8  1  0.62319577  0.23532979  0.07897464  1  0.076688  -5.6e-05  0.948158  0.0  0.092877  -2.8e-05  1.011023  0.0  0.092838  -3.7e-05  1.01262  0.0  0.06197  0.000129  0.110812  0.092837  3e-06  1.010136  0.0
H  H9  1  0.37680356  0.76467029  0.92102447  1  0.076726  -5.2e-05  0.948119  0.0  0.0929  -2.8e-05  1.010964  0.0  0.092861  -3.5e-05  1.012561  0.0  0.061962  0.00013  0.110805  0.092862  3e-06  1.010078  0.0
H  H10  1  0.66923830  0.18868725  0.92958541  1  0.081979  -0.000125  0.939111  0.0  0.095103  -7e-05  1.005574  0.0  0.09624  -0.000117  1.005034  0.0  0.095282  0.000446  0.103389  0.09469  4e-05  1.005273  0.0
H  H11  1  0.33075802  0.81130977  0.07041396  1  0.082003  -0.000122  0.939089  0.0  0.095076  -7e-05  1.005568  0.0  0.09621  -0.000116  1.005033  0.0  0.09531  0.000446  0.103386  0.094667  4e-05  1.005272  0.0
H  H12  1  0.97888343  0.85112657  0.91475794  1  0.101213  -0.00034  0.954252  0.0  0.112185  -0.00025  1.01355  0.0  0.115321  -0.000272  1.012008  0.0  0.084097  -2.1e-05  0.100914  0.110016  -0.000221  1.014488  0.0
H  H13  1  0.02111399  0.14887045  0.08523987  1  0.1012  -0.000343  0.954292  0.0  0.112191  -0.00025  1.013568  0.0  0.115326  -0.000272  1.01203  0.0  0.083941  -2e-05  0.100914  0.110021  -0.00022  1.014503  0.0
H  H14  1  0.54472214  0.06104086  0.69353648  1  0.103216  0.000529  0.971409  0.0  0.114478  0.000489  1.032212  0.0  0.118048  0.000352  1.029395  0.0  0.04701  0.001469  0.098172  0.112213  0.000712  1.033615  0.0
H  H15  1  0.45527719  0.93895921  0.30646351  1  0.103221  0.000531  0.971381  0.0  0.114484  0.000489  1.032174  0.0  0.118054  0.000351  1.029357  0.0  0.047009  0.001468  0.098173  0.112224  0.000712  1.033579  0.0
H  H16  1  0.02241574  0.01338722  0.80198995  1  0.090242  -0.000136  0.964692  0.0  0.096474  -9.9e-05  1.032811  0.0  0.099177  -0.000133  1.031519  0.0  0.105511  0.000153  0.094451  0.094491  -7.9e-05  1.033901  0.0
H  H17  1  0.97757511  0.98660980  0.19800757  1  0.090212  -0.000136  0.964684  0.0  0.096441  -9.9e-05  1.032812  0.0  0.099143  -0.000134  1.031522  0.0  0.105041  0.000152  0.094449  0.094457  -8e-05  1.033905  0.0
H  H18  1  0.44182789  0.27479153  0.16626167  1  0.084121  -0.000191  0.946714  0.0  0.100236  -7.4e-05  1.008469  0.0  0.102194  -6e-05  1.008052  0.0  0.066667  -0.000116  0.098252  0.098856  -8.5e-05  1.008842  0.0
H  H19  1  0.55817173  0.72520549  0.83373653  1  0.084126  -0.000191  0.946717  0.0  0.100228  -7.4e-05  1.008472  0.0  0.102185  -6.1e-05  1.008057  0.0  0.06667  -0.000117  0.098258  0.098852  -8.5e-05  1.008844  0.0
H  H20  1  0.27514148  0.33351429  0.14079785  1  0.110527  -0.000429  0.955034  0.0  0.126928  -0.000335  1.012323  0.0  0.128957  -0.000339  1.012025  0.0  0.100882  -5.9e-05  0.104314  0.125726  -0.000274  1.012283  0.0
H  H21  1  0.72485677  0.66648171  0.85920330  1  0.110557  -0.00043  0.955043  0.0  0.126911  -0.000335  1.012373  0.0  0.128936  -0.00034  1.012086  0.0  0.100915  -6e-05  0.104299  0.125712  -0.000275  1.012334  0.0
H  H22  1  0.19638776  0.57866742  0.34095649  1  0.077061  -0.000224  0.932096  0.0  0.096183  -0.000201  0.990026  0.0  0.096164  -0.000212  0.990574  0.0  0.070061  8.4e-05  0.105359  0.096016  -0.000197  0.989932  0.0
H  H23  1  0.80361513  0.42133367  0.65904446  1  0.077019  -0.000224  0.932136  0.0  0.09617  -0.000201  0.990031  0.0  0.096153  -0.000213  0.990576  0.0  0.07007  8.4e-05  0.105337  0.095999  -0.000196  0.989942  0.0
H  H24  1  0.12446869  0.51290772  0.44526245  1  0.05473  -1.4e-05  0.952906  0.0  0.068534  -6e-06  1.024108  0.0  0.06809  -6e-06  1.025106  0.0  0.04665  7.5e-05  0.097925  0.06928  -6e-06  1.022515  0.0
H  H25  1  0.87553118  0.48709440  0.55473740  1  0.054757  -1.5e-05  0.952851  0.0  0.068516  -6e-06  1.024095  0.0  0.06807  -7e-06  1.025097  0.0  0.046616  7.6e-05  0.097941  0.06926  -6e-06  1.022503  0.0
H  H26  1  0.25477159  0.32826898  0.39016007  1  0.08739  -1e-06  0.961591  0.0  0.099661  -1e-06  1.022503  0.0  0.101441  -1e-06  1.023437  0.0  0.038043  1.8e-05  0.096168  0.097828  3e-06  1.022726  0.0
H  H27  1  0.74522911  0.67173212  0.60984225  1  0.087338  2e-06  0.961611  0.0  0.099632  -2e-06  1.022497  0.0  0.101412  -0.0  1.023432  0.0  0.038026  1.8e-05  0.096171  0.097801  3e-06  1.022717  0.0
H  H28  1  0.13201228  0.94999671  0.61766318  1  0.089196  -0.000224  1.005797  0.0  0.100538  -6.2e-05  1.069316  0.0  0.102323  -5.8e-05  1.071122  0.0  0.093853  2.2e-05  0.096638  0.099021  -6.5e-05  1.068625  0.0
H  H29  1  0.86798267  0.05000337  0.38233604  1  0.089151  -0.000225  1.005838  0.0  0.100495  -6.2e-05  1.069353  0.0  0.102297  -5.7e-05  1.071141  0.0  0.094019  2.2e-05  0.096628  0.098976  -6.5e-05  1.068665  0.0
H  H30  1  0.50675924  0.95105781  0.85806581  1  0.069828  -3.1e-05  0.932912  0.0  0.08976  -1.8e-05  0.991822  0.0  0.090366  -1.3e-05  0.992403  0.0  0.00117  -2e-06  0.092537  0.08925  -2.2e-05  0.991641  0.0
H  H31  1  0.49324559  0.04893819  0.14193827  1  0.069869  -3e-05  0.9329  0.0  0.089807  -1.9e-05  0.991799  0.0  0.090394  -1.4e-05  0.992404  0.0  0.0007  -1e-06  0.092563  0.089301  -2.2e-05  0.99162  0.0
H  H32  1  0.66387856  0.99837986  0.99683326  1  0.076597  2e-05  0.938016  0.0  0.095676  2.7e-05  0.997117  0.0  0.095514  1.4e-05  0.999107  0.0  0.050179  0.000143  0.094277  0.095805  4.5e-05  0.995595  0.0
H  H33  1  0.33612597  0.00162328  0.00317303  1  0.076644  2.1e-05  0.938052  0.0  0.095694  2.7e-05  0.997164  0.0  0.095534  1.4e-05  0.999148  0.0  0.049778  0.000144  0.094315  0.095828  4.6e-05  0.995641  0.0
H  H34  1  0.39040468  0.02508586  0.46921684  1  0.082256  6.9e-05  0.988503  0.0  0.094723  0.000218  1.050156  0.0  0.097243  0.000158  1.048957  0.0  0.040554  0.000638  0.094084  0.092546  0.000321  1.051702  0.0
H  H35  1  0.60960066  0.97492034  0.53078352  1  0.08226  6.4e-05  0.988515  0.0  0.094749  0.000218  1.050149  0.0  0.097268  0.000158  1.048949  0.0  0.04066  0.000639  0.094077  0.092575  0.000322  1.051695  0.0
H  H36  1  0.16396323  0.11435405  0.43712694  1  0.085806  3e-06  0.982929  0.0  0.096984  2e-05  1.044903  0.0  0.099108  2e-06  1.044864  0.0  0.065583  0.000151  0.095055  0.095422  5.6e-05  1.045064  0.0
H  H37  1  0.83604021  0.88564908  0.56287211  1  0.085815  5e-06  0.982947  0.0  0.097031  2e-05  1.044876  0.0  0.099155  2e-06  1.044837  0.0  0.06579  0.000152  0.095075  0.095473  5.6e-05  1.045035  0.0
H  H38  1  0.50574556  0.74687440  0.56912846  1  0.088186  -1.1e-05  0.964614  0.0  0.096822  -1.5e-05  1.029911  0.0  0.099896  -1.1e-05  1.028668  0.0  0.0706  8e-06  0.094298  0.094419  -1.7e-05  1.031132  0.0
H  H39  1  0.49425596  0.25312568  0.43087368  1  0.088208  -6e-06  0.964587  0.0  0.096849  -1.4e-05  1.029878  0.0  0.09992  -1.1e-05  1.028634  0.0  0.070599  8e-06  0.094296  0.094443  -1.7e-05  1.031098  0.0
H  H40  1  0.49988824  0.52774885  0.27962270  1  0.105725  -7.1e-05  0.974449  0.0  0.125724  -5e-05  1.03666  0.0  0.126419  -4e-05  1.039565  0.0  0.046409  -5e-05  0.087628  0.125229  -5.4e-05  1.034709  0.0
H  H41  1  0.50011137  0.47224816  0.72037814  1  0.105739  -7.4e-05  0.974433  0.0  0.125717  -5e-05  1.036671  0.0  0.126413  -4.1e-05  1.039575  0.0  0.046408  -5e-05  0.087649  0.125226  -5.4e-05  1.034718  0.0
H  H42  1  0.41923073  0.54496522  0.13087941  1  0.099315  3.7e-05  0.944596  0.0  0.118715  0.00014  1.006826  0.0  0.119811  7.2e-05  1.007278  0.0  0.044821  0.000456  0.085253  0.117853  0.000217  1.006547  0.0
H  H43  1  0.58076696  0.45503282  0.86912053  1  0.099297  3.5e-05  0.944617  0.0  0.118697  0.00014  1.006844  0.0  0.119799  7.2e-05  1.007286  0.0  0.044802  0.000455  0.085249  0.11784  0.000217  1.006557  0.0
H  H44  1  0.58872229  0.48707909  0.15257644  1  0.102887  -0.000109  0.958415  0.0  0.121394  -0.000178  1.023513  0.0  0.123082  -0.000195  1.02341  0.0  0.024384  7.7e-05  0.084191  0.120373  -0.00017  1.023243  0.0
H  H45  1  0.41127597  0.51291690  0.84742207  1  0.102898  -0.000111  0.95837  0.0  0.121398  -0.000178  1.023478  0.0  0.123078  -0.000196  1.023386  0.0  0.024355  7.8e-05  0.084201  0.120379  -0.000169  1.023208  0.0
C  C46  1  0.14201273  0.66863146  0.69271729  1  -0.202156  -0.001841  3.690302  -0.001  -0.227943  0.000935  3.937774  0.001  -0.230194  0.00096  3.954393  0.001  -0.020176  0.001374  -0.104046  -0.227242  0.000495  3.927149  0.001
C  C47  1  0.85798577  0.33136964  0.30728200  1  -0.202129  -0.001803  3.690177  -0.001  -0.227862  0.000935  3.937656  0.001  -0.230113  0.000961  3.954275  0.001  -0.020555  0.001374  -0.103992  -0.227165  0.000495  3.927032  0.001
C  C48  1  0.26124212  0.21907555  0.76496721  1  0.147972  -0.00365  3.841309  -0.003  0.14816  0.000656  4.088746  0.001  0.152483  1.3e-05  4.114639  0.0  0.380026  0.001423  0.087439  0.145514  0.000829  4.070149  0.001
C  C49  1  0.73875775  0.78092656  0.23503176  1  0.148021  -0.003727  3.841226  -0.003  0.148157  0.000656  4.088729  0.001  0.152478  1.4e-05  4.114627  0.0  0.380022  0.001422  0.08752  0.145516  0.000828  4.070131  0.001
C  C50  1  0.17737570  0.20205508  0.64038403  1  -0.138706  0.003324  3.726708  0.004  -0.156075  0.001884  3.973566  0.002  -0.160042  0.001467  3.994544  0.002  -0.023293  0.003659  -0.090683  -0.153557  0.001909  3.95924  0.002
C  C51  1  0.82262636  0.79794704  0.35961533  1  -0.138669  0.003389  3.726491  0.004  -0.156024  0.001884  3.97338  0.002  -0.159991  0.001467  3.99436  0.002  -0.02335  0.003657  -0.090704  -0.153505  0.001908  3.959057  0.002
C  C52  1  0.07444509  0.70338966  0.79463127  1  -0.063864  0.005383  3.825806  0.008  -0.041194  0.002339  4.058406  0.004  -0.048516  0.000874  4.080323  0.002  -0.028568  0.007568  -0.026434  -0.035557  0.003827  4.044189  0.006
C  C53  1  0.92555644  0.29661042  0.20536823  1  -0.063816  0.005359  3.825765  0.008  -0.041179  0.002339  4.058364  0.004  -0.048499  0.000875  4.080278  0.002  -0.028049  0.007567  -0.026416  -0.035537  0.003827  4.044141  0.006
C  C54  1  0.39174350  0.16785600  0.78221689  1  0.106614  0.002427  3.798779  0.004  0.098196  0.001337  4.038928  0.002  0.101765  0.000972  4.060899  0.002  0.316172  0.004503  0.095995  0.095849  0.002287  4.024003  0.003
C  C55  1  0.60825692  0.83214408  0.21778506  1  0.106569  0.002465  3.798857  0.004  0.098156  0.001336  4.039077  0.002  0.101728  0.000971  4.061046  0.002  0.316154  0.004502  0.095924  0.095811  0.002286  4.024152  0.003
C  C56  1  0.35408947  0.27088688  0.97535665  1  0.37722  -0.010329  3.633877  -0.006  0.348265  0.00029  3.910864  0.001  0.36999  0.000134  3.923155  0.001  0.99957  0.00295  0.242263  0.334052  0.002074  3.901244  0.003
C  C57  1  0.64590796  0.72911014  0.02464204  1  0.377121  -0.010339  3.633934  -0.006  0.34818  0.000291  3.910914  0.001  0.369906  0.000136  3.923202  0.001  0.999549  0.002948  0.242249  0.333968  0.002073  3.901296  0.003
C  C58  1  0.16102661  0.75631718  0.62552420  1  0.249185  -0.000734  3.84677  0.0  0.243533  -0.000679  4.098351  0.0  0.252762  -0.001004  4.118488  -0.001  0.394108  -9.2e-05  0.097197  0.237537  -0.000326  4.08437  0.0
C  C59  1  0.83897217  0.24368494  0.37447546  1  0.249235  -0.000759  3.846658  0.0  0.243487  -0.00068  4.098344  0.0  0.252713  -0.001006  4.118487  -0.001  0.394157  -9.2e-05  0.097166  0.237492  -0.000325  4.08436  0.0
C  C60  1  0.58190982  0.16689897  0.97598568  1  0.008408  0.000604  3.617114  0.001  -0.052288  0.00054  3.874371  0.001  -0.048173  0.000376  3.885914  0.001  0.295329  0.001141  -0.053299  -0.055121  0.000655  3.866412  0.001
C  C61  1  0.41808788  0.83309907  0.02401426  1  0.008289  0.000595  3.617247  0.001  -0.052258  0.000539  3.874354  0.001  -0.048139  0.000374  3.885886  0.001  0.295403  0.001141  -0.053271  -0.0551  0.000656  3.866418  0.001
C  C62  1  0.03054631  0.82696815  0.83517910  1  -0.119495  0.003061  3.767183  0.004  -0.146333  0.002336  4.018845  0.003  -0.147618  0.001808  4.038631  0.002  -0.06821  0.005922  -0.108307  -0.145194  0.002988  4.005456  0.004
C  C63  1  0.96945139  0.17302989  0.16481996  1  -0.119566  0.003086  3.767405  0.004  -0.146418  0.002336  4.019073  0.003  -0.147704  0.001809  4.038861  0.002  -0.068101  0.005922  -0.108338  -0.145279  0.002988  4.00568  0.004
C  C64  1  0.04625586  0.60849763  0.86111319  1  0.66306  -0.006553  3.863808  -0.005  0.620412  0.007579  4.158131  0.008  0.662254  0.006135  4.150255  0.007  1.50281  0.007942  0.225736  0.588289  0.006992  4.163968  0.007
C  C65  1  0.95374484  0.39150347  0.13888649  1  0.663104  -0.006543  3.863693  -0.005  0.620508  0.00758  4.15795  0.008  0.66235  0.006135  4.150073  0.007  1.502668  0.007943  0.22579  0.588379  0.006992  4.163788  0.007
C  C66  1  0.44261586  0.09808656  0.67797300  1  -0.14288  -0.00042  3.764697  0.0  -0.165246  0.000454  4.022302  0.001  -0.167027  1.2e-05  4.040225  0.0  -0.041788  0.001515  -0.095738  -0.164008  0.000873  4.009601  0.001
C  C67  1  0.55738484  0.90191454  0.32202668  1  -0.142884  -0.000519  3.764612  0.0  -0.165238  0.000454  4.02223  0.001  -0.16702  1.2e-05  4.040152  0.0  -0.041912  0.001515  -0.095739  -0.163994  0.000873  4.009522  0.001
C  C68  1  0.05556470  0.91654039  0.77243120  1  -0.063163  -0.002043  3.811392  -0.001  -0.074721  -0.001067  4.067672  -0.001  -0.074362  -0.001516  4.086289  -0.001  -0.108007  -0.000496  -0.099403  -0.075229  -0.000655  4.055384  -0.001
C  C69  1  0.94442970  0.08345765  0.22756551  1  -0.0631  -0.002074  3.811406  -0.001  -0.074649  -0.001066  4.06766  -0.001  -0.07429  -0.001511  4.086281  -0.001  -0.107526  -0.000497  -0.099394  -0.07516  -0.000656  4.055374  -0.001
C  C70  1  0.38407963  0.33495902  0.11906240  1  -0.182864  -7.1e-05  3.735665  0.001  -0.221456  0.000129  3.990338  0.001  -0.225727  4.6e-05  4.000639  0.0  -0.036266  0.000842  -0.158662  -0.218543  0.0003  3.982714  0.001
C  C71  1  0.61591726  0.66503596  0.88093643  1  -0.18285  -7.1e-05  3.735765  0.001  -0.221384  0.000129  3.990433  0.001  -0.225657  4.7e-05  4.000732  0.0  -0.036233  0.00084  -0.158654  -0.218471  0.000299  3.982808  0.001
C  C72  1  0.21883052  0.58611146  0.44266061  1  0.01197  -0.000139  3.704084  0.0  -0.050539  -6.5e-05  3.958906  0.0  -0.045108  -8.4e-05  3.97035  0.0  0.330337  6e-06  -0.05804  -0.054205  -7.4e-05  3.95078  0.0
C  C73  1  0.78117128  0.41388964  0.55733838  1  0.011953  -0.000134  3.704076  0.0  -0.050538  -6.5e-05  3.958917  0.0  -0.045105  -8.2e-05  3.970357  0.0  0.330343  7e-06  -0.058054  -0.054204  -7.4e-05  3.950788  0.0
C  C74  1  0.36250021  0.40405915  0.43852599  1  -0.121054  1.9e-05  3.765027  0.0  -0.137753  -1.1e-05  4.008953  0.0  -0.14087  -1.5e-05  4.031791  0.0  -0.049927  1.4e-05  -0.094958  -0.135756  -1.1e-05  3.994543  0.0
C  C75  1  0.63750158  0.59594195  0.56147829  1  -0.120975  -7.7e-05  3.765076  0.0  -0.137679  -1.1e-05  4.009028  0.0  -0.140796  -1.4e-05  4.031867  0.0  -0.050079  1.3e-05  -0.09496  -0.135686  -1.1e-05  3.994626  0.0
C  C76  1  0.36450136  0.54316339  0.47766350  1  0.057103  -4.2e-05  3.744945  0.0  0.078214  -1.4e-05  3.981204  0.0  0.07744  -1.1e-05  4.005324  0.0  -0.051863  2.3e-05  -0.016011  0.078444  1.6e-05  3.965191  0.0
C  C77  1  0.63549824  0.45683771  0.52233950  1  0.057069  4.1e-05  3.744943  0.0  0.078136  -1.5e-05  3.981262  0.0  0.077359  -1.3e-05  4.005384  0.0  -0.051863  2.3e-05  -0.016047  0.078369  1.6e-05  3.965247  0.0
C  C78  1  0.11848972  0.88168730  0.66913065  1  -0.16223  0.003448  3.721137  0.004  -0.183192  0.002432  3.970671  0.003  -0.187343  0.001922  3.991213  0.002  -0.035506  0.005906  -0.098884  -0.180536  0.003069  3.957215  0.003
C  C79  1  0.88150413  0.11831278  0.33086750  1  -0.162213  0.003465  3.72106  0.004  -0.183147  0.002432  3.970609  0.003  -0.187309  0.00192  3.99114  0.002  -0.035743  0.005907  -0.098871  -0.18049  0.003069  3.957152  0.003
C  C80  1  0.55295528  0.01753062  0.96210854  1  -0.125821  0.000145  3.672405  0.0  -0.169309  0.000154  3.93753  0.0  -0.17047  9.2e-05  3.951277  0.0  0.007032  0.000321  -0.164071  -0.168207  0.000176  3.927956  0.0
C  C81  1  0.44704735  0.98246946  0.03789644  1  -0.125939  0.000143  3.672547  0.0  -0.169415  0.000154  3.937639  0.0  -0.170564  9.2e-05  3.951387  0.0  -0.015804  0.000322  -0.164154  -0.168325  0.000176  3.92808  0.0
C  C82  1  0.35737941  0.08066715  0.55435166  1  -0.077564  0.002623  3.791461  0.003  -0.094451  0.001358  4.047602  0.002  -0.095955  0.001038  4.068109  0.001  0.003493  0.002414  -0.099025  -0.093675  0.001303  4.03478  0.001
C  C83  1  0.64262429  0.91933701  0.44564864  1  -0.077498  0.00268  3.791297  0.003  -0.094405  0.001358  4.047431  0.002  -0.095906  0.001038  4.067934  0.001  0.003505  0.002415  -0.098953  -0.093624  0.001304  4.034604  0.001
C  C84  1  0.22737611  0.13166837  0.53579896  1  -0.075404  -0.002981  3.788984  -0.002  -0.090755  -0.00051  4.041034  0.0  -0.092119  -0.000702  4.062613  0.0  0.005954  -0.000538  -0.099227  -0.090176  -0.000674  4.02723  0.0
C  C85  1  0.77262732  0.86833477  0.46419921  1  -0.075505  -0.003103  3.788867  -0.002  -0.090888  -0.00051  4.040935  0.0  -0.092255  -0.000702  4.062514  0.0  0.005856  -0.000538  -0.099297  -0.090307  -0.000673  4.02713  0.0
C  C86  1  0.50353883  0.63854414  0.53975264  1  -0.115386  3.6e-05  3.770842  0.0  -0.133977  4e-06  4.017181  0.0  -0.136224  -2e-06  4.038258  0.0  -0.039653  6e-06  -0.098211  -0.132548  -1e-05  4.003328  0.0
C  C87  1  0.49646269  0.36145594  0.46025038  1  -0.115416  -4.4e-05  3.770812  0.0  -0.133993  4e-06  4.01716  0.0  -0.136235  -3e-06  4.038234  0.0  -0.039823  6e-06  -0.098205  -0.132561  -1e-05  4.003299  0.0
C  C88  1  0.47916669  0.48267552  0.17364097  1  -0.266336  -0.000712  3.655861  -0.001  -0.337925  3e-06  3.896565  0.0  -0.340135  -4.1e-05  3.907091  0.0  -0.058953  0.000394  -0.243801  -0.336029  0.000193  3.888849  0.0
C  C89  1  0.52083183  0.51732149  0.82635879  1  -0.266329  -0.000694  3.655878  -0.001  -0.337897  3e-06  3.896598  0.0  -0.340106  -3.7e-05  3.907119  0.0  -0.05899  0.000393  -0.243796  -0.336004  0.000193  3.888878  0.0
N  N90  1  0.44767301  0.20245912  0.91544847  1  -0.16544  0.002278  3.464702  0.004  -0.079619  0.002273  3.683013  0.004  -0.096567  0.001596  3.705126  0.003  -1.208394  0.005439  -0.238783  -0.068508  0.002458  3.668104  0.004
N  N91  1  0.55232332  0.79753790  0.08455090  1  -0.165391  0.002277  3.464688  0.004  -0.079659  0.002273  3.683056  0.004  -0.096612  0.001596  3.705168  0.003  -1.208354  0.005439  -0.238759  -0.068543  0.002458  3.668146  0.004
N  N92  1  0.24035404  0.28176010  0.88698507  1  -0.48324  0.045739  3.243608  0.071  -0.448989  0.033219  3.560442  0.043  -0.484504  0.026297  3.572303  0.034  -1.219101  0.074901  -0.366046  -0.422812  0.039544  3.55088  0.051
N  N93  1  0.75964556  0.71824099  0.11301441  1  -0.483204  0.045743  3.24357  0.071  -0.448914  0.033216  3.560405  0.043  -0.484428  0.026296  3.572265  0.034  -1.219021  0.074891  -0.366044  -0.422743  0.039541  3.550849  0.051
N  N94  1  0.21740891  0.72430356  0.51959762  1  -0.405304  6.9e-05  3.346526  0.0  -0.348912  -0.000146  3.592416  0.0  -0.367969  -0.000326  3.605291  0.0  -1.192651  0.000436  -0.443479  -0.335244  0.000143  3.583527  0.0
N  N95  1  0.78259206  0.27569856  0.48040243  1  -0.405301  6.2e-05  3.346529  0.0  -0.34885  -0.000145  3.592406  0.0  -0.367908  -0.000324  3.605282  0.0  -1.192706  0.000437  -0.443457  -0.335183  0.000144  3.583513  0.0
Cl  Cl96  1  0.84699752  0.22265677  0.77172570  1  -0.567575  0.075868  0.892098  0.111  -0.547728  0.058126  1.156901  0.075  -0.58377  0.041914  1.128112  0.053  -0.643759  0.142433  -0.297809  -0.517424  0.07356  1.176154  0.095
Cl  Cl97  1  0.15300565  0.77734127  0.22827432  1  -0.567578  0.075868  0.892117  0.111  -0.547711  0.058125  1.156893  0.075  -0.583752  0.041911  1.128106  0.053  -0.643736  0.14243  -0.297798  -0.517404  0.073559  1.176143  0.095
O  O98  1  0.11777194  0.51387088  0.85013106  1  -0.606236  0.050412  2.11362  0.083  -0.568578  0.040221  2.403007  0.059  -0.609946  0.030462  2.387096  0.044  -1.146502  0.097206  -0.312285  -0.536464  0.0499  2.414006  0.073
O  O99  1  0.88222712  0.48612818  0.14986680  1  -0.606244  0.050408  2.113619  0.083  -0.568591  0.04022  2.402974  0.059  -0.609958  0.03046  2.387065  0.044  -1.146371  0.09721  -0.312307  -0.536478  0.049903  2.413973  0.073
O  O100  1  0.94864170  0.62559666  0.92498678  1  -0.645889  0.042044  2.222729  0.07  -0.606608  0.036661  2.527695  0.052  -0.649508  0.027798  2.510024  0.038  -1.166699  0.088941  -0.317346  -0.573502  0.046171  2.54005  0.067
O  O101  1  0.05136283  0.37440648  0.07501511  1  -0.645929  0.042042  2.222637  0.07  -0.606685  0.036662  2.527608  0.052  -0.649581  0.027801  2.509922  0.038  -1.16672  0.088943  -0.317378  -0.573574  0.046172  2.539966  0.067
