# generated using pymatgen
data_CdH14C22N3ClO2
_symmetry_space_group_name_H-M   'P 1'
_cell_length_a   13.54111670
_cell_length_b   13.54120525
_cell_length_c   14.70865744
_cell_angle_alpha   105.36061680
_cell_angle_beta   108.82142566
_cell_angle_gamma   111.22582600
_symmetry_Int_Tables_number   1
_chemical_formula_structural   CdH14C22N3ClO2
_chemical_formula_sum   'Cd4 H56 C88 N12 Cl4 O8'
_cell_volume   2145.43325251
_cell_formula_units_Z   4
loop_
 _symmetry_equiv_pos_site_id
 _symmetry_equiv_pos_as_xyz
  1  'x, y, z'
loop_
 _atom_site_type_symbol
 _atom_site_label
 _atom_site_symmetry_multiplicity
 _atom_site_fract_x
 _atom_site_fract_y
 _atom_site_fract_z
 _atom_site_occupancy
 _atom_site_pbe_bader_charge
 _atom_site_pbe_bader_spin_density
 _atom_site_pbe_cm5_charge
 _atom_site_pbe_ddec_charge
 _atom_site_pbe_ddec_spin_density
 _atom_site_pbe_ddec_sum_bond_order
 _atom_site_pbe_magmom
Cd  Cd0  1  0.49374645  0.58847298  0.32421702  1  1.183549  0  0.708459  0.759461  0  2.330205  0
Cd  Cd1  1  0.76443612  0.16957926  0.17591742  1  1.183331  0  0.708392  0.760577  0  2.329892  0
Cd  Cd2  1  0.50625556  0.41152837  0.67578407  1  1.18351  0  0.708456  0.759455  0  2.33015  0
Cd  Cd3  1  0.23556430  0.83042130  0.82408207  1  1.183302  0  0.708379  0.760522  0  2.329948  0
H  H4  1  0.69530022  0.31851224  0.38391293  1  0.121199  0  0.097427  0.116767  0  1.065141  0
H  H5  1  0.43469629  0.31129078  0.11630101  1  0.117765  0  0.097529  0.11761  0  1.063881  0
H  H6  1  0.30470043  0.68148777  0.61608679  1  0.121218  0  0.09743  0.116808  0  1.065118  0
H  H7  1  0.56530535  0.68871054  0.88369883  1  0.117783  0  0.097519  0.117601  0  1.063885  0
H  H8  1  0.36400874  0.20626719  0.40242112  1  0.100525  0  0.108597  0.119566  0  1.036767  0
H  H9  1  0.30395732  0.96141436  0.09759756  1  0.118136  0  0.10833  0.118266  0  1.038161  0
H  H10  1  0.63599100  0.79373270  0.59757769  1  0.100509  0  0.108605  0.119573  0  1.036766  0
H  H11  1  0.69603615  0.03858407  0.90239670  1  0.118141  0  0.10831  0.118273  0  1.038169  0
H  H12  1  0.83250584  0.45510158  0.39350772  1  0.150368  0  0.092647  0.115683  0  1.065831  0
H  H13  1  0.56148786  0.43873439  0.10620578  1  0.153491  0  0.092526  0.114887  0  1.065969  0
H  H14  1  0.16749394  0.54490012  0.60648847  1  0.15031  0  0.092659  0.115697  0  1.065778  0
H  H15  1  0.43850846  0.56126785  0.89379485  1  0.153643  0  0.092514  0.114842  0  1.066033  0
H  H16  1  0.98995253  0.62578076  0.39938288  1  0.092624  0  0.105237  0.106895  0  0.98886  0
H  H17  1  0.72628055  0.59035235  0.10040289  1  0.079903  0  0.105303  0.107286  0  0.987477  0
H  H18  1  0.01004828  0.37422217  0.60061787  1  0.09262  0  0.105251  0.106909  0  0.988937  0
H  H19  1  0.27371811  0.40965308  0.89960184  1  0.079958  0  0.105333  0.107331  0  0.987516  0
H  H20  1  0.95250442  0.79122631  0.38278034  1  0.073395  0  0.11117  0.114682  0  0.981757  0
H  H21  1  0.90837821  0.56963640  0.11708009  1  0.0833  0  0.111617  0.115923  0  0.980564  0
H  H22  1  0.04749970  0.20877879  0.61722462  1  0.073457  0  0.111155  0.114643  0  0.981801  0
H  H23  1  0.09162186  0.43036690  0.88292522  1  0.083316  0  0.111629  0.115913  0  0.980578  0
H  H24  1  0.75359902  0.77445363  0.36054927  1  0.121104  0  0.116088  0.092984  0  1.002336  0
H  H25  1  0.91409261  0.39316527  0.13962359  1  0.101906  0  0.116386  0.093448  0  1.002107  0
H  H26  1  0.24640213  0.22554985  0.63945535  1  0.121103  0  0.116112  0.092995  0  1.002322  0
H  H27  1  0.08590113  0.60683486  0.86037534  1  0.101802  0  0.116355  0.093408  0  1.002076  0
H  H28  1  0.22377992  0.23391759  0.38802938  1  0.082108  0  0.112521  0.124284  0  0.991509  0
H  H29  1  0.34612888  0.83567368  0.11201369  1  0.082027  0  0.112301  0.124142  0  0.989743  0
H  H30  1  0.77621946  0.76607940  0.61196556  1  0.081962  0  0.112515  0.124273  0  0.991525  0
H  H31  1  0.65387018  0.16432553  0.88798444  1  0.081701  0  0.112297  0.124116  0  0.989689  0
H  H32  1  0.05811340  0.28062728  0.37092702  1  0.138371  0  0.09957  0.109976  0  1.025033  0
H  H33  1  0.40987626  0.68712556  0.12917078  1  0.136825  0  0.100037  0.111056  0  1.023921  0
H  H34  1  0.94188681  0.71937097  0.62906963  1  0.138351  0  0.099569  0.109975  0  1.025003  0
H  H35  1  0.59012511  0.31287450  0.87083145  1  0.136454  0  0.100047  0.111066  0  1.023916  0
H  H36  1  0.07406638  0.45928881  0.34587882  1  0.087915  0  0.105187  0.109134  0  1.009522  0
H  H37  1  0.61350446  0.72798450  0.15417842  1  0.10351  0  0.104812  0.109311  0  1.010303  0
H  H38  1  0.92593473  0.54070956  0.65411873  1  0.087827  0  0.105166  0.109138  0  1.009499  0
H  H39  1  0.38649679  0.27201732  0.84582278  1  0.103498  0  0.104808  0.109294  0  1.010315  0
H  H40  1  0.25814857  0.58611706  0.33540081  1  0.112254  0  0.117768  0.100872  0  0.99947  0
H  H41  1  0.75089109  0.92250180  0.16460097  1  0.124908  0  0.117115  0.099397  0  0.997261  0
H  H42  1  0.74185437  0.41388389  0.66459856  1  0.112245  0  0.117784  0.10088  0  0.999504  0
H  H43  1  0.24910803  0.07749913  0.83539898  1  0.124992  0  0.117137  0.09943  0  0.997192  0
H  H44  1  0.72035612  0.20903739  0.45577741  1  0.09636  0  0.091638  0.101367  0  1.045554  0
H  H45  1  0.25323144  0.26453947  0.04419676  1  0.088659  0  0.091261  0.101434  0  1.046023  0
H  H46  1  0.27964528  0.79096215  0.54422220  1  0.096348  0  0.091637  0.101335  0  1.045528  0
H  H47  1  0.74676535  0.73546113  0.95580171  1  0.088785  0  0.091289  0.101471  0  1.046018  0
H  H48  1  0.71558405  0.02365033  0.45257789  1  0.090336  0  0.10254  0.105594  0  0.995908  0
H  H49  1  0.07113012  0.26300355  0.04765151  1  0.091244  0  0.102695  0.105945  0  0.998024  0
H  H50  1  0.28442000  0.97635305  0.54742524  1  0.090372  0  0.102531  0.105598  0  0.995886  0
H  H51  1  0.92886670  0.73699409  0.95234879  1  0.091186  0  0.102732  0.105966  0  0.998039  0
H  H52  1  0.33411834  0.85287316  0.32578283  1  0.07947  0  0.103519  0.108011  0  0.996321  0
H  H53  1  0.02712806  0.00813667  0.17410627  1  0.08321  0  0.103255  0.107823  0  0.995334  0
H  H54  1  0.66588410  0.14712708  0.67421872  1  0.079444  0  0.103519  0.108011  0  0.996332  0
H  H55  1  0.97287211  0.99185690  0.82589038  1  0.083112  0  0.103294  0.107876  0  0.995319  0
H  H56  1  0.33628108  0.03843028  0.33175813  1  0.029457  0  0.099759  0.097815  0  1.022713  0
H  H57  1  0.20673660  0.00443597  0.16815181  1  0.039266  0  0.099116  0.09678  0  1.022776  0
H  H58  1  0.66371964  0.96156858  0.66824079  1  0.02941  0  0.099757  0.097848  0  1.022732  0
H  H59  1  0.79326622  0.99556100  0.83184131  1  0.039303  0  0.099139  0.096779  0  1.022792  0
C  C60  1  0.61318587  0.42886709  0.37674756  1  0.542153  0  0.12202  0.182969  0  3.995418  0
C  C61  1  0.55217540  0.23631180  0.12323504  1  0.526321  0  0.12248  0.185386  0  3.995259  0
C  C62  1  0.38681469  0.57113406  0.62325296  1  0.542019  0  0.122094  0.183188  0  3.995361  0
C  C63  1  0.44782302  0.76368898  0.87676685  1  0.526034  0  0.122511  0.185451  0  3.995202  0
C  C64  1  0.62036549  0.33085541  0.38508781  1  -0.03067  0  -0.076218  -0.190083  0  3.855824  0
C  C65  1  0.44581347  0.23511778  0.11491268  1  -0.032712  0  -0.076537  -0.192436  0  3.855618  0
C  C66  1  0.37963462  0.66914451  0.61491226  1  -0.030648  0  -0.076269  -0.190289  0  3.855793  0
C  C67  1  0.55418497  0.76488248  0.88508659  1  -0.032742  0  -0.07651  -0.192435  0  3.85554  0
C  C68  1  0.52816536  0.24621158  0.39134091  1  0.007887  0  0.016452  0.130462  0  3.951273  0
C  C69  1  0.35486193  0.13656186  0.10849796  1  0.027041  0  0.016092  0.129916  0  3.950436  0
C  C70  1  0.47183628  0.75378975  0.60865892  1  0.007935  0  0.016504  0.130595  0  3.95116  0
C  C71  1  0.64513720  0.86343907  0.89150198  1  0.027005  0  0.016075  0.129919  0  3.950381  0
C  C72  1  0.43323678  0.26603758  0.39124595  1  -0.036879  0  -0.077318  -0.206359  0  3.895801  0
C  C73  1  0.37485030  0.04176607  0.10862332  1  -0.056947  0  -0.076328  -0.201925  0  3.895871  0
C  C74  1  0.56676377  0.73396122  0.60875457  1  -0.036931  0  -0.07735  -0.206466  0  3.895886  0
C  C75  1  0.62514800  0.95823360  0.89137493  1  -0.057099  0  -0.076351  -0.202003  0  3.89596  0
C  C76  1  0.42889899  0.36298234  0.37775938  1  0.529088  0  0.123683  0.186934  0  4.007217  0
C  C77  1  0.48530620  0.05094861  0.12210617  1  0.519098  0  0.122639  0.183531  0  4.008261  0
C  C78  1  0.57110361  0.63701849  0.62224319  1  0.529459  0  0.123731  0.187058  0  4.00703  0
C  C79  1  0.51469071  0.94905023  0.87789333  1  0.519334  0  0.122657  0.18356  0  4.008388  0
C  C80  1  0.70913118  0.52478980  0.37396322  1  0.452616  0  0.117499  0.159607  0  3.984889  0
C  C81  1  0.65088998  0.33507329  0.12605931  1  0.462118  0  0.117733  0.15985  0  3.98354  0
C  C82  1  0.29086978  0.47521085  0.62603593  1  0.452655  0  0.117457  0.159476  0  3.984898  0
C  C83  1  0.34910686  0.66492669  0.87394099  1  0.462784  0  0.117658  0.15977  0  3.983519  0
C  C84  1  0.81666903  0.52661280  0.38570538  1  -0.049936  0  -0.078255  -0.142605  0  3.908508  0
C  C85  1  0.64087453  0.43077192  0.11414365  1  -0.032392  0  -0.078868  -0.14276  0  3.906155  0
C  C86  1  0.18333066  0.47338770  0.61429161  1  -0.049947  0  -0.078275  -0.142579  0  3.908449  0
C  C87  1  0.35911972  0.56922882  0.88585755  1  -0.032729  0  -0.07885  -0.142666  0  3.906242  0
C  C88  1  0.90510415  0.62231731  0.38826247  1  0.04549  0  -0.064981  -0.011747  0  3.971972  0
C  C89  1  0.73400477  0.51667450  0.11159455  1  0.002425  0  -0.064704  -0.011069  0  3.968879  0
C  C90  1  0.09489515  0.37768368  0.61173588  1  0.045501  0  -0.064976  -0.011807  0  3.97206  0
C  C91  1  0.26599228  0.48332780  0.88840859  1  0.002427  0  -0.064694  -0.01115  0  3.96896  0
C  C92  1  0.88470708  0.71398657  0.37940973  1  -0.067056  0  -0.081833  -0.131318  0  3.983235  0
C  C93  1  0.83457469  0.50521924  0.12052037  1  -0.027218  0  -0.082846  -0.134506  0  3.982591  0
C  C94  1  0.11529395  0.28601581  0.62059124  1  -0.067212  0  -0.081801  -0.131211  0  3.983229  0
C  C95  1  0.16542069  0.49478106  0.87948198  1  -0.027335  0  -0.082864  -0.134453  0  3.982612  0
C  C96  1  0.77495680  0.70538589  0.36681292  1  0.483872  0  0.047827  0.095179  0  3.959253  0
C  C97  1  0.83868890  0.40816932  0.13327926  1  0.468731  0  0.04884  0.097255  0  3.956448  0
C  C98  1  0.22504393  0.29461818  0.63318862  1  0.484065  0  0.047763  0.095125  0  3.959289  0
C  C99  1  0.16130641  0.59182926  0.86672127  1  0.468693  0  0.048862  0.097313  0  3.956402  0
C  C100  1  0.32695443  0.38493043  0.36907003  1  0.506718  0  0.119411  0.167895  0  3.973699  0
C  C101  1  0.51603418  0.95771440  0.13080001  1  0.494598  0  0.118809  0.167146  0  3.973743  0
C  C102  1  0.67304923  0.61507058  0.63093185  1  0.506733  0  0.119345  0.167824  0  3.973628  0
C  C103  1  0.48396398  0.04228469  0.86919721  1  0.494632  0  0.118836  0.167137  0  3.973779  0
C  C104  1  0.22846258  0.31075932  0.37543584  1  -0.005936  0  -0.076305  -0.147407  0  3.922994  0
C  C105  1  0.43550280  0.85287915  0.12450299  1  0.010866  0  -0.076484  -0.147931  0  3.919284  0
C  C106  1  0.77153845  0.68924019  0.62456252  1  -0.005784  0  -0.076318  -0.147388  0  3.92301  0
C  C107  1  0.56449436  0.14711862  0.87549411  1  0.011298  0  -0.07649  -0.147924  0  3.91925  0
C  C108  1  0.13609349  0.33662974  0.36641098  1  -0.042522  0  -0.065225  -0.012836  0  3.941904  0
C  C109  1  0.47039477  0.76956060  0.13357533  1  -0.032664  0  -0.064976  -0.011114  0  3.936084  0
C  C110  1  0.86390664  0.66336965  0.63358647  1  -0.042608  0  -0.065178  -0.012796  0  3.941643  0
C  C111  1  0.52960482  0.23043870  0.86642246  1  -0.032389  0  -0.064987  -0.011134  0  3.936041  0
C  C112  1  0.14432900  0.43622304  0.35156588  1  -0.01861  0  -0.080696  -0.120565  0  3.958388  0
C  C113  1  0.58480961  0.79257483  0.14839486  1  -0.056228  0  -0.080991  -0.124358  0  3.955906  0
C  C114  1  0.85567125  0.56377459  0.64843259  1  -0.018485  0  -0.080718  -0.120641  0  3.958168  0
C  C115  1  0.41518930  0.20742379  0.85160224  1  -0.056221  0  -0.080968  -0.124296  0  3.95583  0
C  C116  1  0.24503608  0.50626741  0.34596372  1  0.476799  0  0.049206  0.095189  0  3.946575  0
C  C117  1  0.66046645  0.89886132  0.15395624  1  0.472523  0  0.050561  0.100001  0  3.942037  0
C  C118  1  0.75496578  0.49373336  0.65403634  1  0.476773  0  0.049232  0.095271  0  3.946596  0
C  C119  1  0.33953149  0.10113832  0.84604075  1  0.472384  0  0.05052  0.099923  0  3.941948  0
C  C120  1  0.52838480  0.13815338  0.39427832  1  -0.01813  0  -0.007657  0.06047  0  3.969859  0
C  C121  1  0.24377104  0.13378536  0.10541735  1  -0.041927  0  -0.008383  0.060812  0  3.967788  0
C  C122  1  0.47161577  0.86184776  0.60572220  1  -0.018327  0  -0.007713  0.060405  0  3.969878  0
C  C123  1  0.75622833  0.86621449  0.89458021  1  -0.042011  0  -0.008399  0.06073  0  3.967843  0
C  C124  1  0.63501190  0.13229092  0.42857366  1  -0.004236  0  -0.087701  -0.117192  0  3.947184  0
C  C125  1  0.20364663  0.20621226  0.07124652  1  -0.035707  0  -0.087727  -0.118582  0  3.948237  0
C  C126  1  0.36499155  0.86771065  0.57142799  1  -0.004059  0  -0.087657  -0.11711  0  3.947145  0
C  C127  1  0.79635067  0.79378610  0.92875161  1  -0.035792  0  -0.087719  -0.11855  0  3.948213  0
C  C128  1  0.63300872  0.02822143  0.42641952  1  -0.033814  0  -0.081703  -0.082155  0  3.963459  0
C  C129  1  0.10179140  0.20642047  0.07350620  1  -0.006581  0  -0.08198  -0.082909  0  3.96566  0
C  C130  1  0.36699312  0.97177986  0.57358316  1  -0.033941  0  -0.081724  -0.08221  0  3.963312  0
C  C131  1  0.89820717  0.79357803  0.92649410  1  -0.006609  0  -0.082042  -0.083004  0  3.965776  0
C  C132  1  0.52463716  0.92687054  0.38909378  1  0.022165  0  -0.01374  -0.022759  0  3.968629  0
C  C133  1  0.03774446  0.13532528  0.11075556  1  -0.031554  0  -0.013368  -0.021844  0  3.965576  0
C  C134  1  0.47536892  0.07313253  0.61091140  1  0.022459  0  -0.013734  -0.022706  0  3.968602  0
C  C135  1  0.96225341  0.86467021  0.88924405  1  -0.031677  0  -0.013241  -0.021628  0  3.965522  0
C  C136  1  0.41816020  0.93215875  0.35520270  1  -0.043084  0  -0.083717  -0.089313  0  3.989641  0
C  C137  1  0.07688064  0.06268219  0.14456763  1  -0.035723  0  -0.082859  -0.087914  0  3.988119  0
C  C138  1  0.58184140  0.06784076  0.64479976  1  -0.043183  0  -0.083743  -0.089347  0  3.989767  0
C  C139  1  0.92311908  0.93731249  0.85542857  1  -0.035548  0  -0.082972  -0.088148  0  3.988219  0
C  C140  1  0.42018246  0.03638759  0.35861427  1  -0.089028  0  -0.089791  -0.128039  0  3.981126  0
C  C141  1  0.17768687  0.06128356  0.14110888  1  -0.015697  0  -0.08871  -0.127238  0  3.980272  0
C  C142  1  0.57982075  0.96361219  0.64138715  1  -0.08898  0  -0.089749  -0.12805  0  3.981075  0
C  C143  1  0.82231212  0.93871392  0.85888743  1  -0.015552  0  -0.088715  -0.127112  0  3.980266  0
C  C144  1  0.52090610  0.81268134  0.38024167  1  1.546206  0  0.184437  0.548921  0  4.245383  0
C  C145  1  0.93254974  0.14074445  0.11968875  1  1.535739  0  0.184963  0.54934  0  4.24425  0
C  C146  1  0.47909825  0.18732034  0.61976089  1  1.54605  0  0.184404  0.548891  0  4.245239  0
C  C147  1  0.06745038  0.85925016  0.88031314  1  1.535376  0  0.184835  0.549175  0  4.244503  0
N  N148  1  0.51783149  0.44158248  0.37098159  1  -1.24741  0  -0.328111  -0.310878  0  3.511246  0
N  N149  1  0.57065970  0.14668975  0.12887828  1  -1.250384  0  -0.327214  -0.309937  0  3.511103  0
N  N150  1  0.48216944  0.55841869  0.62902018  1  -1.247537  0  -0.328212  -0.311048  0  3.511171  0
N  N151  1  0.42934055  0.85331075  0.87112281  1  -1.250468  0  -0.327223  -0.309919  0  3.511209  0
N  N152  1  0.68946455  0.61305415  0.36380287  1  -1.23056  0  -0.323713  -0.268862  0  3.507746  0
N  N153  1  0.74941942  0.32569698  0.13634760  1  -1.207788  0  -0.324141  -0.270395  0  3.505649  0
N  N154  1  0.31053594  0.38694814  0.63619844  1  -1.230613  0  -0.323657  -0.268777  0  3.507733  0
N  N155  1  0.25057644  0.67430403  0.86365258  1  -1.207776  0  -0.32411  -0.270422  0  3.505545  0
N  N156  1  0.33354073  0.48089212  0.35421913  1  -1.224303  0  -0.324852  -0.266305  0  3.487516  0
N  N157  1  0.62684733  0.97913064  0.14566044  1  -1.223255  0  -0.325044  -0.268449  0  3.488927  0
N  N158  1  0.66646308  0.51910947  0.64578378  1  -1.224268  0  -0.324825  -0.26631  0  3.487454  0
N  N159  1  0.37314992  0.02086833  0.85433586  1  -1.223213  0  -0.325028  -0.26839  0  3.488906  0
Cl  Cl160  1  0.41210962  0.49387143  0.12508461  1  -0.681054  0  -0.332537  -0.537385  0  1.112285  0
Cl  Cl161  1  0.86899793  0.28704855  0.37507247  1  -0.68066  0  -0.332465  -0.537178  0  1.112669  0
Cl  Cl162  1  0.58789019  0.50613018  0.87491602  1  -0.681008  0  -0.33254  -0.537389  0  1.112285  0
Cl  Cl163  1  0.13100449  0.71295465  0.62492724  1  -0.680679  0  -0.332456  -0.537154  0  1.112674  0
O  O164  1  0.41809160  0.71992654  0.32948763  1  -1.172909  0  -0.336386  -0.553185  0  2.215533  0
O  O165  1  0.89078960  0.08916924  0.17082866  1  -1.154072  0  -0.337279  -0.553677  0  2.214749  0
O  O166  1  0.58191368  0.28007474  0.67051323  1  -1.172927  0  -0.336361  -0.553149  0  2.215354  0
O  O167  1  0.10921266  0.91082860  0.82917448  1  -1.153929  0  -0.337221  -0.553587  0  2.214795  0
O  O168  1  0.61820333  0.81013412  0.41939698  1  -1.176622  0  -0.342026  -0.572035  0  2.155047  0
O  O169  1  0.89076323  0.19864676  0.08023996  1  -1.184726  0  -0.3418  -0.572589  0  2.155414  0
O  O170  1  0.38180233  0.18986953  0.58060512  1  -1.176563  0  -0.341976  -0.572002  0  2.154969  0
O  O171  1  0.10923759  0.80135087  0.91976261  1  -1.184469  0  -0.341787  -0.572586  0  2.155654  0
