# generated using pymatgen
data_H15Pb2C20NO9
_symmetry_space_group_name_H-M   'P 1'
_cell_length_a   10.43334949
_cell_length_b   11.11396612
_cell_length_c   12.59868490
_cell_angle_alpha   112.37796456
_cell_angle_beta   102.08111209
_cell_angle_gamma   106.11693181
_symmetry_Int_Tables_number   1
_chemical_formula_structural   H15Pb2C20NO9
_chemical_formula_sum   'H30 Pb4 C40 N2 O18'
_cell_volume   1213.46481132
_cell_formula_units_Z   2
loop_
 _symmetry_equiv_pos_site_id
 _symmetry_equiv_pos_as_xyz
  1  'x, y, z'
loop_
 _atom_site_type_symbol
 _atom_site_label
 _atom_site_symmetry_multiplicity
 _atom_site_fract_x
 _atom_site_fract_y
 _atom_site_fract_z
 _atom_site_occupancy
 _atom_site_pbe_bader_charge
 _atom_site_pbe_bader_spin_density
 _atom_site_pbe_cm5_charge
 _atom_site_pbe_ddec_charge
 _atom_site_pbe_ddec_spin_density
 _atom_site_pbe_ddec_sum_bond_order
 _atom_site_pbe_magmom
H  H0  1  0.53031711  0.98050366  0.86750961  1  0.123911  0  0.113965  0.128568  0  0.99864  0
H  H1  1  0.46969235  0.01950739  0.13249668  1  0.123897  0  0.114004  0.128573  0  0.998682  0
H  H2  1  0.03463349  0.71907285  0.16678888  1  0.084823  0  0.103694  0.108472  0  1.046904  0
H  H3  1  0.96537957  0.28092151  0.83320295  1  0.084805  0  0.103659  0.108509  0  1.046764  0
H  H4  1  0.96298729  0.27454610  0.98503594  1  0.081233  0  0.101339  0.090881  0  1.08404  0
H  H5  1  0.03703034  0.72544738  0.01496035  1  0.0813  0  0.101326  0.090894  0  1.084209  0
H  H6  1  0.72081881  0.00281890  0.60161789  1  0.066538  0  0.101339  0.090168  0  1.07565  0
H  H7  1  0.27917562  0.99717284  0.39837698  1  0.066341  0  0.101333  0.090154  0  1.075642  0
H  H8  1  0.02240713  0.48185594  0.36644657  1  0.122694  0  0.113097  0.117708  0  1.025081  0
H  H9  1  0.97758432  0.51813568  0.63354457  1  0.122743  0  0.113102  0.117654  0  1.025173  0
H  H10  1  0.30317568  0.01605058  0.56317739  1  0.057058  0  0.104541  0.100741  0  1.04817  0
H  H11  1  0.69682900  0.98396346  0.43682748  1  0.057005  0  0.10453  0.100704  0  1.04812  0
H  H12  1  0.64178394  0.67712323  0.67112802  1  0.094241  0  0.107457  0.127946  0  1.032904  0
H  H13  1  0.35822017  0.32288661  0.32887773  1  0.094373  0  0.107424  0.127912  0  1.032911  0
H  H14  1  0.71935462  0.60936744  0.76353229  1  0.025581  0  0.094562  0.090166  0  1.038044  0
H  H15  1  0.28064593  0.39063811  0.23647221  1  0.025766  0  0.094547  0.09016  0  1.038126  0
H  H16  1  0.53250958  0.52640595  0.67883699  1  0.077904  0  0.106126  0.124052  0  0.991447  0
H  H17  1  0.46748738  0.47360578  0.32117053  1  0.077949  0  0.106101  0.123921  0  0.991471  0
H  H18  1  0.76742684  0.48362562  0.34067502  1  0.055694  0  0.100305  0.157588  0  1.000144  0
H  H19  1  0.23257650  0.51637690  0.65933213  1  0.055763  0  0.100321  0.157589  0  1.000117  0
H  H20  1  0.63220008  0.33439003  0.32858159  1  0.08199  0  0.102976  0.157876  0  0.991623  0
H  H21  1  0.36779692  0.66561125  0.67142484  1  0.08198  0  0.102968  0.157868  0  0.991612  0
H  H22  1  0.81059547  0.39249592  0.42392247  1  0.11015  0  0.105822  0.169498  0  1.00303  0
H  H23  1  0.18939699  0.60750104  0.57608411  1  0.109879  0  0.105838  0.169495  0  1.003032  0
H  H24  1  0.66266467  0.28309816  0.48816388  1  0.082535  0  0.105939  0.121535  0  1.038416  0
H  H25  1  0.33731805  0.71690162  0.51183879  1  0.082293  0  0.10595  0.121473  0  1.038546  0
H  H26  1  0.51119055  0.28972991  0.53145899  1  0.058192  0  0.09877  0.116466  0  1.017729  0
H  H27  1  0.48879968  0.71027954  0.46855057  1  0.088535  0  0.09877  0.11639  0  1.017816  0
H  H28  1  0.68051121  0.34797327  0.64505476  1  0.045688  0  0.100907  0.116146  0  0.996016  0
H  H29  1  0.31947804  0.65203090  0.35495129  1  0.045663  0  0.10086  0.116041  0  0.996099  0
Pb  Pb30  1  0.95028099  0.88110278  0.59221421  1  1.482364  0  0.667281  1.168637  0  1.946274  0
Pb  Pb31  1  0.04970274  0.11888125  0.40776592  1  1.482275  0  0.667242  1.168602  0  1.946335  0
Pb  Pb32  1  0.14473829  0.10822715  0.95468172  1  1.408851  0  0.65228  1.068822  0  1.940612  0
Pb  Pb33  1  0.85525971  0.89176889  0.04531838  1  1.408864  0  0.652278  1.06877  0  1.940634  0
C  C34  1  0.50698474  0.00175125  0.56070384  1  -0.004483  0  -0.005215  0.065354  0  3.964082  0
C  C35  1  0.49301800  0.99825228  0.43930195  1  -0.03755  0  -0.005197  0.065426  0  3.963824  0
C  C36  1  0.29700388  0.02151580  0.77700144  1  1.545095  0  0.217844  0.575075  0  4.187429  0
C  C37  1  0.70300185  0.97848259  0.22300316  1  1.54519  0  0.217777  0.574932  0  4.187362  0
C  C38  1  0.52494705  0.98866429  0.78339148  1  -0.007599  0  -0.071809  -0.100246  0  3.91684  0
C  C39  1  0.47505767  0.01133928  0.21660991  1  -0.007622  0  -0.071871  -0.100273  0  3.916979  0
C  C40  1  0.02340074  0.61793259  0.16546755  1  -0.051573  0  -0.072208  -0.119148  0  3.870073  0
C  C41  1  0.97661528  0.38206711  0.83452815  1  -0.051768  0  -0.072137  -0.119226  0  3.870057  0
C  C42  1  0.00339887  0.49812756  0.05884073  1  0.038129  0  -0.008032  0.067215  0  3.981639  0
C  C43  1  0.99662214  0.50186709  0.94115971  1  0.007039  0  -0.007933  0.067281  0  3.981763  0
C  C44  1  0.98705414  0.37215768  0.06634991  1  -0.093762  0  -0.080071  -0.147877  0  3.945576  0
C  C45  1  0.01295496  0.62783659  0.93364755  1  -0.093737  0  -0.080198  -0.148066  0  3.945842  0
C  C46  1  0.40838076  0.00477326  0.72125396  1  -0.025524  0  -0.017891  -0.032252  0  3.982884  0
C  C47  1  0.59162237  0.99523131  0.27874986  1  -0.025458  0  -0.017907  -0.032318  0  3.983001  0
C  C48  1  0.62909299  0.99811374  0.63068001  1  -0.015048  0  -0.074922  -0.129742  0  3.90899  0
C  C49  1  0.37090658  0.00188654  0.36932256  1  -0.014871  0  -0.074933  -0.129746  0  3.908834  0
C  C50  1  0.98259967  0.23263184  0.18405847  1  1.563756  0  0.23246  0.592919  0  4.158672  0
C  C51  1  0.01740169  0.76736534  0.81593941  1  1.563726  0  0.232397  0.592888  0  4.158877  0
C  C52  1  0.01757530  0.48683208  0.28132292  1  -0.002608  0  -0.072183  -0.100418  0  3.933609  0
C  C53  1  0.98243238  0.51317155  0.71867424  1  -0.002747  0  -0.072198  -0.100322  0  3.933954  0
C  C54  1  0.99661710  0.36663786  0.17662692  1  -0.060893  0  -0.019448  -0.04  0  4.002858  0
C  C55  1  0.00338762  0.63336045  0.82336795  1  -0.061115  0  -0.019391  -0.039936  0  4.002989  0
C  C56  1  0.03733955  0.73589320  0.38608236  1  1.554684  0  0.206816  0.562786  0  4.221688  0
C  C57  1  0.96264813  0.26409621  0.61390580  1  1.554809  0  0.206757  0.562711  0  4.221758  0
C  C58  1  0.63642440  0.98699991  0.73853223  1  -0.03715  0  -0.017573  -0.035178  0  3.980731  0
C  C59  1  0.36358248  0.01300687  0.26147219  1  -0.037088  0  -0.017548  -0.03517  0  3.980606  0
C  C60  1  0.39853305  0.00842830  0.61005816  1  -0.000655  0  -0.07416  -0.121252  0  3.892502  0
C  C61  1  0.60146985  0.99158359  0.38994727  1  -0.001125  0  -0.074149  -0.121212  0  3.892353  0
C  C62  1  0.02835700  0.61193190  0.27516716  1  0.008283  0  -0.016794  -0.026625  0  3.971457  0
C  C63  1  0.97164395  0.38806418  0.72482235  1  0.008547  0  -0.016829  -0.026663  0  3.971368  0
C  C64  1  0.76145947  0.97072990  0.80789079  1  1.565422  0  0.223467  0.601019  0  4.16866  0
C  C65  1  0.23854425  0.02927363  0.19211041  1  1.565307  0  0.223427  0.601002  0  4.168688  0
C  C66  1  0.63696729  0.58096220  0.67746354  1  0.267896  0  -0.138373  -0.267881  0  3.91126  0
C  C67  1  0.36302710  0.41904525  0.32253973  1  0.267737  0  -0.138363  -0.267819  0  3.911414  0
C  C68  1  0.70435171  0.53083375  0.49609658  1  1.367237  0  0.243815  0.522077  0  4.049595  0
C  C69  1  0.29564667  0.46916861  0.50390965  1  1.36754  0  0.243837  0.522209  0  4.049643  0
C  C70  1  0.73021499  0.42906573  0.39134056  1  -0.132706  0  -0.238515  -0.516041  0  3.88981  0
C  C71  1  0.26978300  0.57093558  0.60866605  1  -0.132625  0  -0.238504  -0.516038  0  3.889962  0
C  C72  1  0.62701284  0.34374271  0.55793030  1  0.285803  0  -0.138962  -0.275465  0  3.911309  0
C  C73  1  0.37297641  0.65626146  0.44207417  1  0.255568  0  -0.13892  -0.275221  0  3.911494  0
N  N74  1  0.66070753  0.48680258  0.57346667  1  -1.207298  0  -0.280785  -0.02098  0  3.650585  0
N  N75  1  0.33928885  0.51320495  0.42654015  1  -1.207313  0  -0.280805  -0.020959  0  3.650719  0
O  O76  1  0.19442464  0.04542092  0.72421618  1  -1.188514  0  -0.305546  -0.603597  0  2.282951  0
O  O77  1  0.80557598  0.95456370  0.27578136  1  -1.188655  0  -0.305452  -0.603481  0  2.282855  0
O  O78  1  0.96675861  0.12563761  0.08509026  1  -1.174256  0  -0.281509  -0.559886  0  2.388344  0
O  O79  1  0.03324474  0.87435965  0.91491037  1  -1.174153  0  -0.281474  -0.559911  0  2.38842  0
O  O80  1  0.98683538  0.23241220  0.28444796  1  -1.16579  0  -0.275557  -0.522311  0  2.292543  0
O  O81  1  0.01316637  0.76758604  0.71554955  1  -1.165796  0  -0.27553  -0.522272  0  2.292574  0
O  O82  1  0.05082622  0.72276448  0.48447952  1  -1.155158  0  -0.302452  -0.546807  0  2.203437  0
O  O83  1  0.94916225  0.27722706  0.51551108  1  -1.155289  0  -0.302403  -0.546791  0  2.203494  0
O  O84  1  0.02472680  0.84264328  0.37802597  1  -1.192426  0  -0.31125  -0.613732  0  2.237525  0
O  O85  1  0.97525891  0.15734081  0.62195611  1  -1.192241  0  -0.311248  -0.613671  0  2.237459  0
O  O86  1  0.31228346  0.01791757  0.87858146  1  -1.146466  0  -0.289122  -0.516402  0  2.178403  0
O  O87  1  0.68771891  0.98207967  0.12142297  1  -1.146472  0  -0.289088  -0.516271  0  2.178538  0
O  O88  1  0.73319326  0.90438831  0.86866731  1  -1.177606  0  -0.297549  -0.548764  0  2.277423  0
O  O89  1  0.26680889  0.09561099  0.13133301  1  -1.177786  0  -0.297494  -0.548683  0  2.277507  0
O  O90  1  0.88259770  0.02185174  0.79973794  1  -1.195968  0  -0.301027  -0.614984  0  2.296127  0
O  O91  1  0.11740127  0.97814431  0.20025598  1  -1.195547  0  -0.301041  -0.615012  0  2.296089  0
O  O92  1  0.72101355  0.65355278  0.50954812  1  -1.188009  0  -0.313832  -0.582053  0  2.227697  0
O  O93  1  0.27898760  0.34645174  0.49045772  1  -1.188201  0  -0.313845  -0.582168  0  2.22771  0
