# generated using pymatgen
data_CuH10C12(NO3)2
_symmetry_space_group_name_H-M   'P 1'
_cell_length_a   7.16380376
_cell_length_b   7.16481681
_cell_length_c   12.25704701
_cell_angle_alpha   86.13143771
_cell_angle_beta   86.12790198
_cell_angle_gamma   71.39825504
_symmetry_Int_Tables_number   1
_chemical_formula_structural   CuH10C12(NO3)2
_chemical_formula_sum   'Cu2 H20 C24 N4 O12'
_cell_volume   594.19234009
_cell_formula_units_Z   2
loop_
 _symmetry_equiv_pos_site_id
 _symmetry_equiv_pos_as_xyz
  1  'x, y, z'
loop_
 _atom_site_type_symbol
 _atom_site_label
 _atom_site_symmetry_multiplicity
 _atom_site_fract_x
 _atom_site_fract_y
 _atom_site_fract_z
 _atom_site_occupancy
 _atom_site_hle17_bader_spin_density
 _atom_site_hle17_ddec_charge
 _atom_site_hle17_ddec_spin_density
 _atom_site_hle17_ddec_sum_bond_order
 _atom_site_hle17_magmom
 _atom_site_hse06_10hf_bader_charge
 _atom_site_hse06_10hf_bader_spin_density
 _atom_site_hse06_10hf_ddec_charge
 _atom_site_hse06_10hf_ddec_spin_density
 _atom_site_hse06_10hf_ddec_sum_bond_order
 _atom_site_hse06_10hf_magmom
 _atom_site_hse06_bader_spin_density
 _atom_site_hse06_ddec_charge
 _atom_site_hse06_ddec_spin_density
 _atom_site_hse06_ddec_sum_bond_order
 _atom_site_hse06_magmom
 _atom_site_pbe_bader_spin_density
 _atom_site_pbe_cm5_charge
 _atom_site_pbe_ddec_charge
 _atom_site_pbe_ddec_spin_density
 _atom_site_pbe_ddec_sum_bond_order
 _atom_site_pbe_magmom
Cu  Cu0  1  0.60221010  0.66728607  0.54200891  1  0  0.835252  0  1.820226  0  1.043744  0  0.792961  0  2.223699  0  0  0.826547  0  2.170247  0  0  0.729527  0.771411  0  2.26025  0
Cu  Cu1  1  0.66740206  0.60204554  0.04202150  1  0  0.835291  0  1.81993  0  1.044071  0  0.792914  0  2.22361  0  0  0.826665  0  2.170019  0  0  0.729421  0.771524  0  2.260099  0
H  H2  1  0.08464770  0.85689524  0.28860334  1  0  0.379289  0  0.913569  0  0.659557  0  0.346236  0  0.997212  0  0  0.357952  0  0.986232  0  0  0.298968  0.338196  0  1.004579  0
H  H3  1  0.85688514  0.08463865  0.78860416  1  0  0.379439  0  0.913436  0  0.659581  0  0.346381  0  0.997128  0  0  0.358096  0  0.986142  0  0  0.299077  0.338342  0  1.00449  0
H  H4  1  0.64150678  0.00464763  0.46147695  1  0  0.425776  0  0.864128  0  0.654786  0  0.396908  0  0.927569  0  0  0.407638  0  0.911958  0  0  0.304913  0.389383  0  0.938501  0
H  H5  1  0.00475946  0.64156064  0.96144181  1  0  0.425795  0  0.863969  0  0.654647  0  0.396979  0  0.927437  0  0  0.407712  0  0.911826  0  0  0.304912  0.38946  0  0.938373  0
H  H6  1  0.73240831  0.97988135  0.57967409  1  0  0.435576  0  0.861993  0  0.671692  0  0.407683  0  0.919229  0  0  0.419069  0  0.902924  0  0  0.295897  0.399708  0  0.930625  0
H  H7  1  0.97997937  0.73246477  0.07967299  1  0  0.435588  0  0.861874  0  0.671483  0  0.407655  0  0.91921  0  0  0.419051  0  0.902896  0  0  0.295819  0.399672  0  0.930633  0
H  H8  1  0.95949957  0.56150101  0.47056931  1  0  0.084355  0  0.973013  0  0.095388  0  0.086662  0  1.051087  0  0  0.091392  0  1.04482  0  0  0.096867  0.082992  0  1.055791  0
H  H9  1  0.56149780  0.95951794  0.97055495  1  0  0.084525  0  0.972904  0  0.095714  0  0.086911  0  1.050861  0  0  0.091659  0  1.044584  0  0  0.096992  0.083242  0  1.055552  0
H  H10  1  0.31521963  0.37066658  0.48538866  1  0  0.119925  0  0.946192  0  0.100045  0  0.127448  0  1.010907  0  0  0.131195  0  1.009277  0  0  0.105852  0.124785  0  1.012216  0
H  H11  1  0.37068945  0.31520435  0.98537224  1  0  0.119983  0  0.946362  0  0.056812  0  0.127457  0  1.011103  0  0  0.131199  0  1.009482  0  0  0.105889  0.124796  0  1.012405  0
H  H12  1  0.32599701  0.15807131  0.16369149  1  0  0.10574  0  0.966448  0  0.102548  0  0.11694  0  1.027875  0  0  0.119255  0  1.028081  0  0  0.103477  0.115333  0  1.027775  0
H  H13  1  0.15807479  0.32598385  0.66369469  1  0  0.105813  0  0.966379  0  0.102422  0  0.116972  0  1.027872  0  0  0.119279  0  1.028082  0  0  0.103496  0.115367  0  1.027767  0
H  H14  1  0.97473552  0.33567804  0.15109227  1  0  0.105651  0  0.985861  0  0.136108  0  0.109638  0  1.057214  0  0  0.113189  0  1.053561  0  0  0.103685  0.106987  0  1.060025  0
H  H15  1  0.33565674  0.97477781  0.65109623  1  0  0.105538  0  0.985967  0  0.136555  0  0.109586  0  1.057301  0  0  0.113136  0  1.05365  0  0  0.103614  0.10694  0  1.0601  0
H  H16  1  0.81159395  0.07501597  0.26128629  1  0  0.112101  0  0.951854  0  0.077069  0  0.129551  0  1.012442  0  0  0.130546  0  1.011944  0  0  0.11037  0.128751  0  1.012927  0
H  H17  1  0.07502739  0.81156043  0.76129812  1  0  0.112162  0  0.951916  0  0.077184  0  0.129648  0  1.012438  0  0  0.130633  0  1.011962  0  0  0.110452  0.128848  0  1.012917  0
H  H18  1  0.62274855  0.21672363  0.17414225  1  0  0.091893  0  0.960741  0  0.091776  0  0.103846  0  1.034504  0  0  0.104196  0  1.034208  0  0  0.098458  0.103497  0  1.03484  0
H  H19  1  0.21672031  0.62278432  0.67411928  1  0  0.092043  0  0.960616  0  0.092148  0  0.104  0  1.034368  0  0  0.104351  0  1.034067  0  0  0.098482  0.103651  0  1.034705  0
H  H20  1  0.64302654  0.96450685  0.21214684  1  0  0.081681  0  0.963275  0  0.050291  0  0.095241  0  1.034675  0  0  0.094945  0  1.035495  0  0  0.093492  0.09541  0  1.034183  0
H  H21  1  0.96445656  0.64307083  0.71214704  1  0  0.081702  0  0.963202  0  0.050251  0  0.095202  0  1.034692  0  0  0.094908  0  1.035507  0  0  0.09346  0.095369  0  1.034193  0
C  C22  1  0.41900377  0.73187913  0.34055397  1  0  -0.019377  0  3.831541  0  0.471125  0  -0.029976  0  4.095057  0  0  -0.031804  0  4.115508  0  0  0.071089  -0.028987  0  4.081805  0
C  C23  1  0.73186242  0.41903448  0.84054711  1  0  -0.019519  0  3.831312  0  0.470587  0  -0.03013  0  4.094685  0  0  -0.031976  0  4.115146  0  0  0.07101  -0.029112  0  4.081448  0
C  C24  1  0.43916404  0.69911800  0.22978353  1  0  -0.025378  0  3.851579  0  0.368231  0  -0.03787  0  4.121645  0  0  -0.039374  0  4.140914  0  0  0.0616  -0.036876  0  4.108927  0
C  C25  1  0.69915022  0.43916364  0.72975653  1  0  -0.025658  0  3.851772  0  0.367956  0  -0.038103  0  4.121736  0  0  -0.039617  0  4.141027  0  0  0.061541  -0.037138  0  4.108993  0
C  C26  1  0.73225786  0.57458176  0.29860818  1  0  0.367709  0  3.673514  0  0.936725  0  0.344355  0  3.940096  0  0  0.360817  0  3.953857  0  0  0.22834  0.333692  0  3.930534  0
C  C27  1  0.57461843  0.73225759  0.79859256  1  0  0.367662  0  3.673271  0  0.936611  0  0.344461  0  3.939782  0  0  0.360905  0  3.953546  0  0  0.228379  0.333826  0  3.930186  0
C  C28  1  0.93985968  0.46376915  0.30948528  1  0  -0.01968  0  3.772589  0  0.019932  0  -0.014864  0  4.022984  0  0  -0.020463  0  4.045776  0  0  -0.018873  -0.011704  0  4.007997  0
C  C29  1  0.46378493  0.93985795  0.80947302  1  0  -0.019695  0  3.772164  0  0.020553  0  -0.015059  0  4.022848  0  0  -0.020653  0  4.045647  0  0  -0.018732  -0.011906  0  4.007857  0
C  C30  1  0.03787806  0.46759594  0.40481873  1  0  -0.044505  0  3.727484  0  -0.088148  0  -0.070501  0  3.989286  0  0  -0.067834  0  4.007226  0  0  -0.083623  -0.071686  0  3.976979  0
C  C31  1  0.46759549  0.03789970  0.90480488  1  0  -0.044717  0  3.727144  0  -0.088556  0  -0.070717  0  3.989011  0  0  -0.068069  0  4.006947  0  0  -0.083821  -0.071914  0  3.976724  0
C  C32  1  0.23635695  0.36309016  0.41364175  1  0  -0.179655  0  3.721124  0  0.027655  0  -0.202956  0  3.98383  0  0  -0.210276  0  4.00424  0  0  -0.104678  -0.198132  0  3.969864  0
C  C33  1  0.36309819  0.23636000  0.91363468  1  0  -0.179692  0  3.721225  0  0.070581  0  -0.202937  0  3.983934  0  0  -0.210257  0  4.004362  0  0  -0.104718  -0.198114  0  3.969977  0
C  C34  1  0.34279450  0.25461431  0.32580582  1  0  0.283246  0  3.788408  0  0.421546  0  0.263951  0  4.059911  0  0  0.276411  0  4.076824  0  0  0.081961  0.255638  0  4.048265  0
C  C35  1  0.25461533  0.34280183  0.82580716  1  0  0.283253  0  3.788581  0  0.421565  0  0.264005  0  4.0601  0  0  0.276465  0  4.07702  0  0  0.081955  0.255693  0  4.048453  0
C  C36  1  0.24702732  0.24583498  0.23133001  1  0  -0.205933  0  3.763021  0  -0.072307  0  -0.229401  0  4.029457  0  0  -0.237133  0  4.050834  0  0  -0.113031  -0.224379  0  4.015042  0
C  C37  1  0.24582486  0.24702205  0.73134299  1  0  -0.206201  0  3.762764  0  -0.072231  0  -0.229567  0  4.029244  0  0  -0.237301  0  4.05063  0  0  -0.1131  -0.224544  0  4.014821  0
C  C38  1  0.04717331  0.34828035  0.22414091  1  0  -0.045798  0  3.713279  0  0.019725  0  -0.074347  0  3.976821  0  0  -0.070717  0  3.993657  0  0  -0.083941  -0.076498  0  3.965468  0
C  C39  1  0.34827700  0.04717849  0.72414852  1  0  -0.045583  0  3.713095  0  0.018888  0  -0.07419  0  3.976774  0  0  -0.070566  0  3.993612  0  0  -0.084004  -0.076337  0  3.965405  0
C  C40  1  0.24781749  0.82150379  0.41329743  1  0  0.636523  0  3.875337  0  1.614079  0  0.587253  0  4.176863  0  0  0.620792  0  4.168074  0  0  0.227426  0.564479  0  4.182436  0
C  C41  1  0.82147973  0.24786467  0.91327879  1  0  0.636435  0  3.875104  0  1.616019  0  0.587408  0  4.17624  0  0  0.620953  0  4.167473  0  0  0.227619  0.564635  0  4.181809  0
C  C42  1  0.29721894  0.72507622  0.14542559  1  0  0.618808  0  3.935918  0  1.611437  0  0.570328  0  4.232379  0  0  0.605434  0  4.225111  0  0  0.210653  0.546549  0  4.236724  0
C  C43  1  0.72507736  0.29722320  0.64540006  1  0  0.619222  0  3.936722  0  1.612615  0  0.570715  0  4.23317  0  0  0.605816  0  4.225886  0  0  0.210808  0.546934  0  4.237451  0
C  C44  1  0.66015791  0.10073191  0.23954313  1  0  -0.070644  0  3.569175  0  0.375031  0  -0.165223  0  3.825828  0  0  -0.157877  0  3.829707  0  0  -0.144041  -0.170008  0  3.822888  0
C  C45  1  0.10072900  0.66015821  0.73953845  1  0  -0.070912  0  3.568947  0  0.374441  0  -0.16538  0  3.825691  0  0  -0.158035  0  3.82957  0  0  -0.144146  -0.170156  0  3.82274  0
N  N46  1  0.60233177  0.65440505  0.38200185  1  0  -0.37387  0  3.214048  0  -1.16341  0  -0.324684  0  3.502762  0  0  -0.340721  0  3.512777  0  0  -0.359127  -0.314542  0  3.49646  0
N  N47  1  0.65440128  0.60235786  0.88200539  1  0  -0.373677  0  3.213667  0  -1.162898  0  -0.324598  0  3.502453  0  0  -0.340569  0  3.512408  0  0  -0.358876  -0.314496  0  3.496189  0
N  N48  1  0.63491134  0.60448888  0.20355007  1  0  -0.427312  0  3.229676  0  -1.197427  0  -0.384  0  3.535813  0  0  -0.400493  0  3.543864  0  0  -0.368925  -0.37349  0  3.530751  0
N  N49  1  0.60457225  0.63487854  0.70354664  1  0  -0.427142  0  3.230278  0  -1.197954  0  -0.38382  0  3.53629  0  0  -0.400335  0  3.544384  0  0  -0.368963  -0.373301  0  3.531187  0
O  O50  1  0.26868253  0.82822115  0.51285201  1  0  -0.548713  0  1.979219  0  -1.168755  0  -0.508489  0  2.220303  0  0  -0.529534  0  2.206986  0  0  -0.285291  -0.494091  0  2.229088  0
O  O51  1  0.82819113  0.26873488  0.01283156  1  0  -0.548552  0  1.97941  0  -1.169942  0  -0.508414  0  2.220427  0  0  -0.529442  0  2.207051  0  0  -0.28534  -0.49402  0  2.229211  0
O  O52  1  0.07391539  0.89165620  0.37017802  1  0  -0.512263  0  2.124251  0  -1.185592  0  -0.457998  0  2.339587  0  0  -0.480577  0  2.328895  0  0  -0.315282  -0.442463  0  2.346362  0
O  O53  1  0.89165317  0.07397948  0.87016239  1  0  -0.512266  0  2.124078  0  -1.185738  0  -0.458111  0  2.339432  0  0  -0.480662  0  2.328663  0  0  -0.315421  -0.442581  0  2.346205  0
O  O54  1  0.11286271  0.79629371  0.16936700  1  0  -0.577846  0  2.016155  0  -1.188337  0  -0.509653  0  2.218153  0  0  -0.537018  0  2.211823  0  0  -0.283083  -0.490775  0  2.221957  0
O  O55  1  0.79622691  0.11293414  0.66932111  1  0  -0.577939  0  2.016905  0  -1.18842  0  -0.509825  0  2.219021  0  0  -0.53717  0  2.212675  0  0  -0.283172  -0.49097  0  2.222808  0
O  O56  1  0.36960736  0.66659129  0.05068149  1  0  -0.545174  0  2.01235  0  -1.108161  0  -0.508017  0  2.279281  0  0  -0.534603  0  2.267164  0  0  -0.296515  -0.4902  0  2.287213  0
O  O57  1  0.66660030  0.36965710  0.55068809  1  0  -0.545326  0  2.012945  0  -1.108648  0  -0.508139  0  2.279983  0  0  -0.534743  0  2.267846  0  0  -0.296737  -0.490334  0  2.287841  0
O  O58  1  0.54046600  0.16386920  0.33775880  1  0  -0.256185  0  2.349812  0  -1.115501  0  -0.177008  0  2.58194  0  0  -0.196762  0  2.585331  0  0  -0.178533  -0.163057  0  2.579034  0
O  O59  1  0.16388624  0.54045951  0.83774751  1  0  -0.25603  0  2.349892  0  -1.11511  0  -0.1771  0  2.582244  0  0  -0.196851  0  2.585624  0  0  -0.178421  -0.163155  0  2.579351  0
O  O60  1  0.69086895  0.90917339  0.52278542  1  0  -0.831231  0  1.983239  0  -1.261101  0  -0.783965  0  2.206551  0  0  -0.804253  0  2.16795  0  0  -0.587542  -0.769935  0  2.233134  0
O  O61  1  0.90922385  0.69087512  0.02277415  1  0  -0.831497  0  1.982617  0  -1.260937  0  -0.784253  0  2.205952  0  0  -0.804523  0  2.167271  0  0  -0.587563  -0.770212  0  2.232522  0
