# generated using pymatgen
data_Zn2H14C22N2O9
_symmetry_space_group_name_H-M   'P 1'
_cell_length_a   9.78439009
_cell_length_b   11.13763737
_cell_length_c   16.08031615
_cell_angle_alpha   91.42075119
_cell_angle_beta   90.76978382
_cell_angle_gamma   92.28197670
_symmetry_Int_Tables_number   1
_chemical_formula_structural   Zn2H14C22N2O9
_chemical_formula_sum   'Zn2 H14 C22 N2 O9'
_cell_volume   1750.24186103
_cell_formula_units_Z   1
loop_
 _symmetry_equiv_pos_site_id
 _symmetry_equiv_pos_as_xyz
  1  'x, y, z'
loop_
 _atom_site_type_symbol
 _atom_site_label
 _atom_site_symmetry_multiplicity
 _atom_site_fract_x
 _atom_site_fract_y
 _atom_site_fract_z
 _atom_site_occupancy
 _atom_site_pbe_bader_charge
 _atom_site_pbe_bader_spin_density
 _atom_site_pbe_cm5_charge
 _atom_site_pbe_ddec_charge
 _atom_site_pbe_ddec_spin_density
 _atom_site_pbe_ddec_sum_bond_order
 _atom_site_pbe_magmom
Zn  Zn0  1  0.63860822  0.50457096  0.50343305  1  1.280643  0  0.659974  0.845987  0  2.439147  0
Zn  Zn1  1  0.35745997  0.49431799  0.49414749  1  1.293831  0  0.661405  0.845639  0  2.439737  0
H  H2  1  0.86872933  0.36127194  0.57588986  1  0.184622  0  0.14654  0.120948  0  0.941175  0
H  H3  1  0.90150819  0.58674646  0.48714396  1  0.440482  0  0.322809  0.290842  0  0.901207  0
H  H4  1  0.59048582  0.32392902  0.92839664  1  0.080726  0  0.103887  0.105303  0  0.987079  0
H  H5  1  0.82344421  0.49032005  0.00275512  1  0.577507  0  0.329077  0.356248  0  0.893624  0
H  H6  1  0.61331970  0.09776897  0.53772705  1  0.078935  0  0.104738  0.120819  0  0.996205  0
H  H7  1  0.30402105  0.88437767  0.50914137  1  0.086922  0  0.106247  0.10465  0  0.985022  0
H  H8  1  0.12630445  0.42340531  0.60760716  1  0.180051  0  0.146108  0.12249  0  0.944627  0
H  H9  1  0.09496323  0.49487190  0.43457018  1  0.447319  0  0.323847  0.293297  0  0.899193  0
H  H10  1  0.61915011  0.68349230  0.95805714  1  0.089455  0  0.103865  0.105836  0  0.986505  0
H  H11  1  0.25297299  0.51031762  0.95936624  1  0.063232  0  0.099647  0.086158  0  0.992809  0
H  H12  1  0.37041746  0.31516264  0.04145082  1  0.08527  0  0.104551  0.093731  0  0.986407  0
H  H13  1  0.30879250  0.10624745  0.48881765  1  0.098738  0  0.106213  0.105019  0  0.985553  0
H  H14  1  0.39874554  0.67249657  0.07065946  1  0.076322  0  0.105534  0.095419  0  0.983739  0
H  H15  1  0.61067163  0.90639188  0.46927449  1  0.053188  0  0.10579  0.122041  0  0.992328  0
C  C16  1  0.50552739  0.73208372  0.48572047  1  1.525994  0  0.205754  0.633247  0  4.182896  0
C  C17  1  0.51549125  0.13452923  0.52048104  1  -0.091179  0  -0.094187  -0.229377  0  3.890383  0
C  C18  1  0.40208684  0.93209900  0.49922163  1  -0.075127  0  -0.07466  -0.030188  0  3.994373  0
C  C19  1  0.50239980  0.47264452  0.33712563  1  1.651211  0  0.216339  0.673216  0  4.239614  0
C  C20  1  0.51105461  0.86502796  0.48352863  1  0.045971  0  -0.089476  -0.21953  0  3.881075  0
C  C21  1  0.92199199  0.43737094  0.54650888  1  0.67911  0  0.12868  0.175082  0  3.844304  0
C  C22  1  0.07337559  0.44585636  0.54973217  1  0.668193  0  0.127967  0.174887  0  3.840699  0
C  C23  1  0.51354418  0.26722955  0.51731833  1  1.560793  0  0.205907  0.635584  0  4.184917  0
C  C24  1  0.47198447  0.52163776  0.66162142  1  1.609191  0  0.213105  0.671742  0  4.245797  0
C  C25  1  0.56395359  0.60152826  0.97698614  1  -0.068864  0  -0.080794  -0.167592  0  3.63046  0
C  C26  1  0.44107785  0.59559913  0.03789823  1  -0.024606  0  -0.067405  -0.062428  0  3.639374  0
C  C27  1  0.50601361  0.48704777  0.08452226  1  0.146003  0  0.005835  0.066185  0  3.783841  0
C  C28  1  0.50943700  0.47058473  0.24749757  1  0.164139  0  -0.055836  -0.202678  0  3.994357  0
C  C29  1  0.47225944  0.52351901  0.75150656  1  0.141347  0  -0.0635  -0.208652  0  4.014311  0
C  C30  1  0.62858594  0.49248952  0.02138566  1  0.573206  0  0.085663  0.280095  0  3.744656  0
C  C31  1  0.54795689  0.40118977  0.96075695  1  -0.055085  0  -0.07949  -0.164271  0  3.628186  0
C  C32  1  0.48342122  0.51047342  0.91485649  1  0.093771  0  0.004338  0.134808  0  3.816777  0
C  C33  1  0.42519205  0.39677029  0.02175082  1  -0.044594  0  -0.06832  -0.063913  0  3.643911  0
C  C34  1  0.36040698  0.50496298  0.97791720  1  -0.034729  0  -0.071556  -0.077935  0  3.637148  0
C  C35  1  0.51171921  0.47670769  0.17194867  1  -0.470938  0  -0.035293  -0.035119  0  4.09079  0
C  C36  1  0.47589362  0.51918453  0.82722909  1  -0.37908  0  -0.043065  -0.063358  0  4.111998  0
C  C37  1  0.40460105  0.06248722  0.50188001  1  -0.013746  0  -0.073369  -0.025312  0  3.995035  0
N  N38  1  0.84852831  0.51490808  0.51197396  1  -1.167789  0  -0.427075  -0.371674  0  3.248576  0
N  N39  1  0.14737265  0.47809992  0.48862550  1  -1.186218  0  -0.427106  -0.373903  0  3.243614  0
O  O40  1  0.62095551  0.68248013  0.48020489  1  -1.147711  0  -0.330247  -0.55727  0  2.261534  0
O  O41  1  0.38975799  0.67706177  0.49381201  1  -1.16571  0  -0.324366  -0.560186  0  2.297235  0
O  O42  1  0.61423335  0.46407612  0.37774452  1  -1.150197  0  -0.32121  -0.551116  0  2.244089  0
O  O43  1  0.38381427  0.48466553  0.36771414  1  -1.147148  0  -0.323987  -0.550773  0  2.240913  0
O  O44  1  0.62906972  0.32401857  0.52843083  1  -1.163653  0  -0.328141  -0.567108  0  2.276224  0
O  O45  1  0.39988577  0.31548845  0.50300190  1  -1.177008  0  -0.323868  -0.566156  0  2.313822  0
O  O46  1  0.58782290  0.53758449  0.62743119  1  -1.150719  0  -0.319453  -0.554726  0  2.25128  0
O  O47  1  0.35673156  0.50286177  0.62445533  1  -1.16173  0  -0.320264  -0.560851  0  2.2575  0
O  O48  1  0.76214476  0.48506082  0.04994031  1  -1.100343  0  -0.381155  -0.495157  0  2.22749  0
