# generated using pymatgen
data_Zn4H40C65N5O13F5
_symmetry_space_group_name_H-M   'P 1'
_cell_length_a   17.79486866
_cell_length_b   17.81798079
_cell_length_c   17.78278213
_cell_angle_alpha   68.00205617
_cell_angle_beta   63.42974094
_cell_angle_gamma   86.55970424
_symmetry_Int_Tables_number   1
_chemical_formula_structural   Zn4H40C65N5O13F5
_chemical_formula_sum   'Zn4 H40 C65 N5 O13 F5'
_cell_volume   4636.26076023
_cell_formula_units_Z   1
loop_
 _symmetry_equiv_pos_site_id
 _symmetry_equiv_pos_as_xyz
  1  'x, y, z'
loop_
 _atom_site_type_symbol
 _atom_site_label
 _atom_site_symmetry_multiplicity
 _atom_site_fract_x
 _atom_site_fract_y
 _atom_site_fract_z
 _atom_site_occupancy
 _atom_site_pbe_bader_charge
 _atom_site_pbe_bader_spin_density
 _atom_site_pbe_cm5_charge
 _atom_site_pbe_ddec_charge
 _atom_site_pbe_ddec_spin_density
 _atom_site_pbe_ddec_sum_bond_order
 _atom_site_pbe_magmom
Zn  Zn0  1  0.56572407  0.43282431  0.43365092  1  1.315812  0  0.673644  0.965998  0  2.377052  0
Zn  Zn1  1  0.46205024  0.58569422  0.43068688  1  1.315077  0  0.672199  0.973177  0  2.338177  0
Zn  Zn2  1  0.56307177  0.52599048  0.54991384  1  1.315634  0  0.670269  0.957893  0  2.408506  0
Zn  Zn3  1  0.39128469  0.42355382  0.61517154  1  1.325839  0  0.681003  0.98571  0  2.32363  0
H  H4  1  0.26759918  0.96003628  0.60358821  1  0.082614  0  0.104176  0.10725  0  1.009602  0
H  H5  1  0.25732714  0.46461428  0.13472017  1  0.023686  0  0.098203  0.111754  0  1.00963  0
H  H6  1  0.69919032  0.63092983  0.11622422  1  0.083742  0  0.110254  0.115611  0  0.978178  0
H  H7  1  0.69891489  0.63117253  0.84794635  1  0.060618  0  0.098569  0.097853  0  1.007295  0
H  H8  1  0.23590042  0.39737226  0.04435748  1  0.103379  0  0.107929  0.134553  0  0.986451  0
H  H9  1  0.52323782  0.52320728  0.79241976  1  0.087612  0  0.104877  0.109663  0  1.025093  0
H  H10  1  0.60119690  0.57087240  0.81672099  1  0.053761  0  0.103096  0.10647  0  1.009516  0
H  H11  1  0.71564105  0.76947277  0.37461527  1  0.081481  0  0.105285  0.110827  0  0.993128  0
H  H12  1  0.73542432  0.65219732  0.95637193  1  0.053779  0  0.10073  0.102533  0  1.002605  0
H  H13  1  0.72228813  0.04800041  0.34293452  1  0.055173  0  0.101469  0.102522  0  0.994925  0
H  H14  1  0.37073516  0.87033887  0.55250899  1  0.036355  0  0.102447  0.103379  0  1.010132  0
H  H15  1  0.75974720  0.91422375  0.33968933  1  0.079553  0  0.101972  0.101195  0  0.996231  0
H  H16  1  0.61775501  0.13101333  0.40812313  1  0.10143  0  0.106001  0.108116  0  1.033722  0
H  H17  1  0.83165484  0.61036520  0.67813439  1  0.42011  0  0.300827  0.244625  0  0.956562  0
H  H18  1  0.92133161  0.74061473  0.61090577  1  0.048657  0  0.093616  0.094787  0  0.985259  0
H  H19  1  0.98427183  0.68657924  0.66289188  1  0.068674  0  0.104686  0.113416  0  1.010383  0
H  H20  1  0.87766864  0.69460300  0.73274437  1  0.011009  0  0.100705  0.106328  0  0.987865  0
H  H21  1  0.72360820  0.43159289  0.59055162  1  0.509918  0  0.307375  0.269707  0  0.986327  0
H  H22  1  0.80956744  0.43969295  0.68085797  1  0.051769  0  0.093795  0.097635  0  1.010246  0
H  H23  1  0.87889660  0.38904346  0.61228901  1  0.067818  0  0.105983  0.114486  0  0.994878  0
H  H24  1  0.77208915  0.34430602  0.69090077  1  0.050198  0  0.109543  0.116366  0  0.970277  0
H  H25  1  0.27640407  0.53259833  0.20947295  1  0.432528  0  0.299123  0.244791  0  0.981354  0
H  H26  1  0.11123439  0.52132147  0.25153362  1  0.058622  0  0.106794  0.129831  0  0.999272  0
H  H27  1  0.35335926  0.61980178  0.23784858  1  0.049059  0  0.104426  0.119857  0  0.980372  0
H  H28  1  0.33049020  0.67771928  0.14570210  1  0.026363  0  0.096499  0.101217  0  0.980618  0
H  H29  1  0.43291500  0.64842572  0.12326853  1  0.071387  0  0.104417  0.113388  0  1.024337  0
H  H30  1  0.17764616  0.12793861  0.64143555  1  0.410984  0  0.297579  0.24474  0  0.953734  0
H  H31  1  0.12349378  0.07147839  0.57106596  1  0.009834  0  0.099132  0.105739  0  0.985249  0
H  H32  1  0.22690525  0.05190128  0.50691368  1  0.018533  0  0.098386  0.105801  0  1.00703  0
H  H33  1  0.20472301  0.15453576  0.48454927  1  0.041549  0  0.087615  0.085587  0  0.996473  0
H  H34  1  0.56397577  0.22928184  0.51544230  1  0.48713  0  0.296894  0.261332  0  1.004901  0
H  H35  1  0.65194218  0.13228735  0.55327287  1  0.031953  0  0.10379  0.109512  0  0.978925  0
H  H36  1  0.58404546  0.05183660  0.57128864  1  0.053967  0  0.099387  0.107451  0  1.027741  0
H  H37  1  0.21591264  0.53495713  0.43737048  1  0.120092  0  0.100967  0.112772  0  1.047261  0
H  H38  1  0.54924523  0.10092804  0.64988971  1  0.021427  0  0.091697  0.090816  0  0.991174  0
H  H39  1  0.15387558  0.53749374  0.69813163  1  0.086734  0  0.110407  0.116647  0  0.986129  0
H  H40  1  0.98799558  0.50429049  0.22741743  1  0.055413  0  0.098367  0.106285  0  1.00389  0
H  H41  1  0.83079536  0.48659474  0.28680573  1  0.100616  0  0.106919  0.115438  0  0.993288  0
H  H42  1  0.45438399  0.80490961  0.49643116  1  0.085725  0  0.104214  0.107839  0  1.018595  0
H  H43  1  0.00688478  0.56273588  0.72289901  1  0.075085  0  0.10628  0.107674  0  1.003128  0
C  C44  1  0.28308584  0.52938271  0.54562993  1  1.575871  0  0.229925  0.611674  0  4.149185  0
C  C45  1  0.59753925  0.06856535  0.42284810  1  -0.081897  0  -0.09307  -0.126934  0  4.026746  0
C  C46  1  0.65572761  0.02225256  0.38660628  1  0.023742  0  -0.095295  -0.142796  0  4.037552  0
C  C47  1  0.71157434  0.46178674  0.45148639  1  1.475783  0  0.208102  0.59385  0  4.172777  0
C  C48  1  0.63156379  0.94015160  0.40509278  1  -0.090759  0  -0.008852  0.07813  0  4.032106  0
C  C49  1  0.54336247  0.90928365  0.45402104  1  0.045897  0  -0.00327  0.035484  0  3.946748  0
C  C50  1  0.69283294  0.88936280  0.37589752  1  -0.083369  0  -0.092743  -0.136766  0  4.01609  0
C  C51  1  0.66892455  0.80991465  0.39400753  1  -0.027744  0  -0.089367  -0.102625  0  4.012696  0
C  C52  1  0.52057594  0.83011448  0.46431813  1  -0.041482  0  -0.080801  -0.138705  0  3.937779  0
C  C53  1  0.80252509  0.47657826  0.42079871  1  -0.008499  0  -0.046737  -0.190689  0  3.994144  0
C  C54  1  0.19373251  0.54007019  0.56282871  1  -0.06335  0  -0.017246  -0.022441  0  3.990925  0
C  C55  1  0.32778059  0.18750265  0.57480819  1  0.407159  0  0.090232  0.185406  0  4.064882  0
C  C56  1  0.94516343  0.49985689  0.29632092  1  -0.013734  0  -0.120242  -0.197938  0  4.055653  0
C  C57  1  0.85874948  0.48890152  0.32941516  1  -0.082188  0  -0.087515  -0.06381  0  4.057366  0
C  C58  1  0.83615835  0.47496876  0.48111458  1  0.517078  0  0.127839  0.212262  0  3.981509  0
C  C59  1  0.55441615  0.54245716  0.27097396  1  1.595431  0  0.234331  0.641067  0  4.15555  0
C  C60  1  0.92471599  0.50489953  0.44119747  1  0.046638  0  -0.01682  -0.080185  0  3.900821  0
C  C61  1  0.97932452  0.50821509  0.35142393  1  -0.013143  0  -0.006894  0.131168  0  4.067139  0
C  C62  1  0.96143636  0.53134352  0.48641874  1  0.0346  0  -0.005302  -0.021115  0  4.015498  0
C  C63  1  0.05086691  0.53595960  0.45782481  1  0.01229  0  -0.019505  -0.090429  0  3.996168  0
C  C64  1  0.10015150  0.52896502  0.37264483  1  0.338389  0  0.09492  0.248246  0  4.062144  0
C  C65  1  0.06816842  0.52043440  0.31891377  1  0.051297  0  -0.112936  -0.287823  0  4.033681  0
C  C66  1  0.47267345  0.15641046  0.53183506  1  0.463361  0  0.112561  0.201935  0  3.963498  0
C  C67  1  0.91415659  0.56312173  0.55398475  1  0.394569  0  0.079899  0.113224  0  4.047141  0
C  C68  1  0.94328316  0.58047336  0.60649679  1  0.466372  0  0.081152  0.062148  0  4.113921  0
C  C69  1  0.02697477  0.56281605  0.59380388  1  -0.013858  0  -0.007012  0.01385  0  3.97975  0
C  C70  1  0.08381035  0.54829465  0.51415434  1  0.035294  0  -0.006305  0.051366  0  3.970111  0
C  C71  1  0.43739837  0.45913939  0.74016550  1  1.558118  0  0.220347  0.621706  0  4.167018  0
C  C72  1  0.05328119  0.55838319  0.65941043  1  0.011041  0  -0.09298  -0.128181  0  4.014579  0
C  C73  1  0.13453075  0.54456788  0.64599946  1  -0.046284  0  -0.087143  -0.101524  0  4.003326  0
C  C74  1  0.16888934  0.54200579  0.49852000  1  -0.004086  0  -0.084667  -0.144545  0  3.928186  0
C  C75  1  0.40778177  0.45674683  0.83331260  1  0.0339  0  -0.041619  -0.179841  0  4.008574  0
C  C76  1  0.57627583  0.56364887  0.17280182  1  0.090565  0  -0.024193  -0.135986  0  4.012065  0
C  C77  1  0.44886347  0.08485851  0.52405588  1  0.025588  0  -0.010032  -0.067266  0  3.903032  0
C  C78  1  0.29993128  0.42436663  0.99085801  1  -0.031568  0  -0.115961  -0.293445  0  3.997907  0
C  C79  1  0.32650908  0.42016483  0.90738671  1  0.466948  0  0.101349  0.289159  0  4.07091  0
C  C80  1  0.46134399  0.49541361  0.84993958  1  -0.07138  0  -0.077206  -0.098455  0  3.960998  0
C  C81  1  0.43823524  0.49975135  0.93441195  1  0.028152  0  -0.020633  -0.010577  0  3.988782  0
C  C82  1  0.35405771  0.46550810  0.00635983  1  -0.040295  0  -0.004643  0.136954  0  4.077601  0
C  C83  1  0.55599133  0.69582580  0.45351265  1  1.531175  0  0.227672  0.610903  0  4.148655  0
C  C84  1  0.49517747  0.53628415  0.95288437  1  0.000605  0  0.00086  0.054295  0  3.968358  0
C  C85  1  0.46703075  0.53932040  0.04003129  1  0.033277  0  -0.006061  -0.042134  0  3.885641  0
C  C86  1  0.37620407  0.52471284  0.10013321  1  0.437055  0  0.111468  0.211965  0  4.07196  0
C  C87  1  0.32471121  0.48076415  0.08626959  1  0.016122  0  -0.121198  -0.291438  0  3.998925  0
C  C88  1  0.36092935  0.06009253  0.55837426  1  0.017388  0  -0.005717  0.035249  0  4.009193  0
C  C89  1  0.58030453  0.56977842  0.88482301  1  -0.052596  0  -0.092473  -0.130615  0  4.022063  0
C  C90  1  0.63541793  0.60254016  0.90211596  1  -0.069902  0  -0.093727  -0.133003  0  4.032666  0
C  C91  1  0.61353682  0.59572842  0.99207155  1  0.024726  0  -0.010188  0.087049  0  4.038593  0
C  C92  1  0.53010178  0.55778214  0.06316401  1  0.022631  0  -0.008962  -0.061625  0  3.962691  0
C  C93  1  0.67313643  0.62213624  0.01223968  1  -0.007526  0  -0.098871  -0.154854  0  4.029618  0
C  C94  1  0.65392209  0.60926280  0.10080916  1  -0.044551  0  -0.089146  -0.09019  0  4.030935  0
C  C95  1  0.43427241  0.28789989  0.55672380  1  1.539828  0  0.221619  0.630093  0  4.132967  0
C  C96  1  0.51875377  0.53672323  0.15295349  1  0.40044  0  0.10355  0.214239  0  4.018462  0
C  C97  1  0.41168167  0.21053285  0.55399875  1  0.035242  0  -0.042261  -0.266566  0  3.986623  0
C  C98  1  0.58174340  0.78087697  0.43647158  1  0.006458  0  -0.021186  -0.033978  0  4.005949  0
C  C99  1  0.50974102  0.03716213  0.48123058  1  -0.022726  0  -0.000504  0.050101  0  3.935209  0
C  C100  1  0.29955034  0.11344765  0.58155423  1  0.440034  0  0.062838  0.032003  0  4.099892  0
C  C101  1  0.92023952  0.68729191  0.66901043  1  0.277908  0  -0.137278  -0.213926  0  3.964006  0
C  C102  1  0.81340624  0.40226593  0.64230917  1  0.294793  0  -0.131751  -0.213782  0  3.986865  0
C  C103  1  0.36532223  0.62838689  0.16877712  1  0.306895  0  -0.137271  -0.223592  0  3.976561  0
C  C104  1  0.19127447  0.09317539  0.53892808  1  0.304481  0  -0.143518  -0.215337  0  3.991847  0
C  C105  1  0.58565469  0.11066358  0.57712120  1  0.296708  0  -0.13902  -0.215324  0  3.983295  0
C  C106  1  0.48186549  0.95905239  0.49159580  1  -0.018287  0  -0.008357  0.020525  0  3.962049  0
C  C107  1  0.39331828  0.93142655  0.53986926  1  0.02038  0  -0.090694  -0.123753  0  4.027945  0
C  C108  1  0.33524653  0.98104871  0.56900166  1  -0.115857  0  -0.093245  -0.128273  0  4.022363  0
N  N109  1  0.89119783  0.61013367  0.67235678  1  -1.125915  0  -0.453517  -0.300892  0  3.522101  0
N  N110  1  0.78655244  0.44048179  0.57259196  1  -1.245997  0  -0.42931  -0.255639  0  3.624177  0
N  N111  1  0.33899457  0.55297351  0.16843389  1  -1.155389  0  -0.440537  -0.27615  0  3.628137  0
N  N112  1  0.21331375  0.09180080  0.60979383  1  -1.099571  0  -0.472084  -0.329408  0  3.498562  0
N  N113  1  0.55318846  0.17137248  0.52096460  1  -1.19357  0  -0.454264  -0.307156  0  3.537785  0
O  O114  1  0.49311870  0.49146330  0.50680692  1  -1.236289  0  -0.579096  -1.03709  0  2.559984  0
O  O115  1  0.48925366  0.68219246  0.44782224  1  -1.165779  0  -0.319987  -0.552484  0  2.290622  0
O  O116  1  0.37660417  0.31913826  0.60617333  1  -1.156152  0  -0.308531  -0.531327  0  2.318302  0
O  O117  1  0.60340869  0.64277010  0.47264323  1  -1.178556  0  -0.322201  -0.555703  0  2.304193  0
O  O118  1  0.51316485  0.31899019  0.50834873  1  -1.196663  0  -0.32552  -0.572441  0  2.377473  0
O  O119  1  0.56515680  0.47114047  0.31421769  1  -1.158149  0  -0.307661  -0.534045  0  2.294847  0
O  O120  1  0.39408542  0.41521584  0.72708525  1  -1.16103  0  -0.318994  -0.552089  0  2.34484  0
O  O121  1  0.34127528  0.56689685  0.46388216  1  -1.170578  0  -0.319409  -0.550709  0  2.292682  0
O  O122  1  0.65874762  0.46012045  0.53161854  1  -1.199357  0  -0.33364  -0.584399  0  2.350586  0
O  O123  1  0.29394453  0.48417004  0.61410196  1  -1.177593  0  -0.313767  -0.548305  0  2.300173  0
O  O124  1  0.68664799  0.45193662  0.39787983  1  -1.163772  0  -0.31932  -0.544083  0  2.309477  0
O  O125  1  0.52727852  0.59839491  0.30106061  1  -1.161628  0  -0.31303  -0.547197  0  2.276257  0
O  O126  1  0.50638849  0.50687059  0.67829049  1  -1.183522  0  -0.328984  -0.560187  0  2.340263  0
F  F127  1  0.18689047  0.53557467  0.33739756  1  -0.638224  0  -0.078436  -0.130617  0  1.4053  0
F  F128  1  0.83502007  0.58305910  0.56559409  1  -0.63275  0  -0.097023  -0.134824  0  1.391432  0
F  F129  1  0.44874879  0.48602395  0.22531334  1  -0.631509  0  -0.0916  -0.126846  0  1.39237  0
F  F130  1  0.27087483  0.38128703  0.89668863  1  -0.633793  0  -0.108159  -0.14469  0  1.339705  0
F  F131  1  0.26906684  0.24026085  0.59013518  1  -0.634065  0  -0.104727  -0.135873  0  1.365631  0
