# generated using pymatgen
data_Sn3H8C16O9
_symmetry_space_group_name_H-M   'P 1'
_cell_length_a   6.96248563
_cell_length_b   7.21009020
_cell_length_c   19.12436563
_cell_angle_alpha   83.66226329
_cell_angle_beta   88.92642467
_cell_angle_gamma   63.79116992
_symmetry_Int_Tables_number   1
_chemical_formula_structural   Sn3H8C16O9
_chemical_formula_sum   'Sn6 H16 C32 O18'
_cell_volume   855.59470153
_cell_formula_units_Z   2
loop_
 _symmetry_equiv_pos_site_id
 _symmetry_equiv_pos_as_xyz
  1  'x, y, z'
loop_
 _atom_site_type_symbol
 _atom_site_label
 _atom_site_symmetry_multiplicity
 _atom_site_fract_x
 _atom_site_fract_y
 _atom_site_fract_z
 _atom_site_occupancy
 _atom_site_hle17_bader_spin_density
 _atom_site_hle17_ddec_charge
 _atom_site_hle17_ddec_spin_density
 _atom_site_hle17_ddec_sum_bond_order
 _atom_site_hle17_magmom
 _atom_site_hse06_10hf_bader_spin_density
 _atom_site_hse06_10hf_ddec_charge
 _atom_site_hse06_10hf_ddec_spin_density
 _atom_site_hse06_10hf_ddec_sum_bond_order
 _atom_site_hse06_10hf_magmom
 _atom_site_hse06_bader_spin_density
 _atom_site_hse06_ddec_charge
 _atom_site_hse06_ddec_spin_density
 _atom_site_hse06_ddec_sum_bond_order
 _atom_site_hse06_magmom
 _atom_site_pbe_bader_spin_density
 _atom_site_pbe_cm5_charge
 _atom_site_pbe_ddec_charge
 _atom_site_pbe_ddec_spin_density
 _atom_site_pbe_ddec_sum_bond_order
 _atom_site_pbe_magmom
Sn  Sn0  1  0.98586868  0.65050937  0.25950390  1  0  1.044932  0  1.920906  0  0  0.880055  0  2.332733  0  0  0.920139  0  2.309508  0  0  0.532522  0.850921  0  2.349405  0
Sn  Sn1  1  0.01413680  0.34948405  0.74050766  1  0  1.044915  0  1.920873  0  0  0.880094  0  2.332588  0  0  0.920154  0  2.309452  0  0  0.532511  0.85096  0  2.349252  0
Sn  Sn2  1  0.31334460  0.06585110  0.27213234  1  0  1.110706  0  1.911598  0  0  0.93979  0  2.345119  0  0  0.982662  0  2.316269  0  0  0.544396  0.908731  0  2.365846  0
Sn  Sn3  1  0.68666129  0.93415155  0.72786315  1  0  1.110747  0  1.911599  0  0  0.939736  0  2.345242  0  0  0.982653  0  2.316332  0  0  0.544388  0.908667  0  2.365968  0
Sn  Sn4  1  0.54993854  0.41718522  0.22706911  1  0  1.036368  0  1.923823  0  0  0.871268  0  2.340823  0  0  0.914928  0  2.315919  0  0  0.510184  0.839883  0  2.358296  0
Sn  Sn5  1  0.45005793  0.58282215  0.77293145  1  0  1.036386  0  1.923773  0  0  0.87127  0  2.340788  0  0  0.914949  0  2.315888  0  0  0.510191  0.839878  0  2.358255  0
H  H6  1  0.18069854  0.43247982  0.51809667  1  0  0.110892  0  0.970495  0  0  0.115953  0  1.039118  0  0  0.119684  0  1.036607  0  0  0.105349  0.113245  0  1.041041  0
H  H7  1  0.81928409  0.56750427  0.48190335  1  0  0.11095  0  0.970679  0  0  0.115964  0  1.0393  0  0  0.119695  0  1.036796  0  0  0.105389  0.113258  0  1.041221  0
H  H8  1  0.55070860  0.66379830  0.38417189  1  0  0.070199  0  0.998043  0  0  0.074454  0  1.077879  0  0  0.076825  0  1.078108  0  0  0.097531  0.072695  0  1.077974  0
H  H9  1  0.44928557  0.33617950  0.61582363  1  0  0.070234  0  0.998225  0  0  0.074517  0  1.077974  0  0  0.076872  0  1.078216  0  0  0.097576  0.072781  0  1.078047  0
H  H10  1  0.13287578  0.65785569  0.07339994  1  0  0.111699  0  0.953673  0  0  0.119273  0  1.015445  0  0  0.123384  0  1.012341  0  0  0.107674  0.116288  0  1.017848  0
H  H11  1  0.86712874  0.34216253  0.92659858  1  0  0.111734  0  0.953703  0  0  0.119275  0  1.015519  0  0  0.123389  0  1.01241  0  0  0.107679  0.116292  0  1.01792  0
H  H12  1  0.97952327  0.30858585  0.05272098  1  0  0.102697  0  0.934835  0  0  0.115209  0  0.990995  0  0  0.118547  0  0.989166  0  0  0.107866  0.112805  0  0.992401  0
H  H13  1  0.02048114  0.69141993  0.94727753  1  0  0.102733  0  0.934707  0  0  0.115177  0  0.990957  0  0  0.118501  0  0.989135  0  0  0.107856  0.112769  0  0.992366  0
H  H14  1  0.63565043  0.80195346  0.11791881  1  0  0.073001  0  0.980284  0  0  0.078207  0  1.058894  0  0  0.080861  0  1.058354  0  0  0.097914  0.076237  0  1.059551  0
H  H15  1  0.36436171  0.19804456  0.88208574  1  0  0.072984  0  0.980214  0  0  0.078208  0  1.058818  0  0  0.080857  0  1.058278  0  0  0.097919  0.07626  0  1.059453  0
H  H16  1  0.41532288  0.37530025  0.98030843  1  0  0.113791  0  0.957907  0  0  0.119304  0  1.024505  0  0  0.123134  0  1.021996  0  0  0.106914  0.116541  0  1.026404  0
H  H17  1  0.58468063  0.62469468  0.01969471  1  0  0.113802  0  0.957826  0  0  0.119374  0  1.02437  0  0  0.123208  0  1.021851  0  0  0.106922  0.116607  0  1.026266  0
H  H18  1  0.69146917  0.96901328  0.44857645  1  0  0.100413  0  0.940473  0  0  0.112207  0  0.999535  0  0  0.115529  0  0.997838  0  0  0.105657  0.10982  0  1.000864  0
H  H19  1  0.30851941  0.03099566  0.55142356  1  0  0.100431  0  0.94043  0  0  0.112217  0  0.999517  0  0  0.115527  0  0.997849  0  0  0.105672  0.109842  0  1.00081  0
H  H20  1  0.18827815  0.17008832  0.42646383  1  0  0.097818  0  0.971145  0  0  0.105463  0  1.03827  0  0  0.108999  0  1.035778  0  0  0.103961  0.10284  0  1.040274  0
H  H21  1  0.81171330  0.82991750  0.57353526  1  0  0.097923  0  0.971073  0  0  0.105535  0  1.038235  0  0  0.109068  0  1.035746  0  0  0.104005  0.102916  0  1.040227  0
C  C22  1  0.19270999  0.60418892  0.38621993  1  0  0.63266  0  3.862412  0  0  0.581785  0  4.148232  0  0  0.61664  0  4.140309  0  0  0.217081  0.558183  0  4.152594  0
C  C23  1  0.80729590  0.39581684  0.61377648  1  0  0.632585  0  3.861293  0  0  0.581621  0  4.1472  0  0  0.616468  0  4.139288  0  0  0.217085  0.558013  0  4.151563  0
C  C24  1  0.35035744  0.55240147  0.44495191  1  0  -0.051387  0  3.750259  0  0  -0.028999  0  3.979999  0  0  -0.036307  0  4.003242  0  0  -0.010701  -0.02419  0  3.964252  0
C  C25  1  0.64961547  0.44759812  0.55503705  1  0  -0.051422  0  3.750646  0  0  -0.028862  0  3.980084  0  0  -0.036143  0  4.003324  0  0  -0.010753  -0.024052  0  3.964337  0
C  C26  1  0.32197200  0.45915997  0.51003476  1  0  -0.0623  0  3.697991  0  0  -0.083665  0  3.943816  0  0  -0.084707  0  3.964098  0  0  -0.078235  -0.082886  0  3.930096  0
C  C27  1  0.67804137  0.54081941  0.48997212  1  0  -0.062314  0  3.698618  0  0  -0.08362  0  3.944267  0  0  -0.08467  0  3.964532  0  0  -0.078218  -0.08284  0  3.930541  0
C  C28  1  0.52890130  0.59290555  0.43515632  1  0  -0.062031  0  3.724054  0  0  -0.084611  0  3.972329  0  0  -0.085726  0  3.993466  0  0  -0.080023  -0.083688  0  3.958003  0
C  C29  1  0.47110277  0.40707851  0.56485041  1  0  -0.06208  0  3.724581  0  0  -0.084667  0  3.972782  0  0  -0.085787  0  3.993936  0  0  -0.080071  -0.083762  0  3.958428  0
C  C30  1  0.12586166  0.95996358  0.14551460  1  0  0.664475  0  3.833106  0  0  0.607274  0  4.12513  0  0  0.644037  0  4.114717  0  0  0.233779  0.582352  0  4.131345  0
C  C31  1  0.87413133  0.04004532  0.85448121  1  0  0.664705  0  3.83331  0  0  0.60752  0  4.125233  0  0  0.644288  0  4.1148  0  0  0.233864  0.582592  0  4.131454  0
C  C32  1  0.05991873  0.98178759  0.07049830  1  0  -0.064864  0  3.753925  0  0  -0.044622  0  3.991042  0  0  -0.052627  0  4.01453  0  0  -0.012622  -0.039338  0  3.975258  0
C  C33  1  0.94007934  0.01822284  0.92949534  1  0  -0.06501  0  3.753902  0  0  -0.044649  0  3.99084  0  0  -0.05265  0  4.014312  0  0  -0.012613  -0.039357  0  3.97505  0
C  C34  1  0.07142296  0.80738404  0.04108829  1  0  -0.060187  0  3.705849  0  0  -0.083743  0  3.959539  0  0  -0.084477  0  3.978871  0  0  -0.077607  -0.083193  0  3.946725  0
C  C35  1  0.92857432  0.19262797  0.95890999  1  0  -0.060161  0  3.705636  0  0  -0.083738  0  3.959303  0  0  -0.084472  0  3.978635  0  0  -0.077587  -0.083188  0  3.946487  0
C  C36  1  0.98816689  0.17455733  0.02908860  1  0  -0.058988  0  3.717562  0  0  -0.08551  0  3.972351  0  0  -0.086083  0  3.992765  0  0  -0.077544  -0.085076  0  3.958537  0
C  C37  1  0.01183475  0.82545777  0.97090849  1  0  -0.059094  0  3.717524  0  0  -0.085618  0  3.972338  0  0  -0.08617  0  3.992726  0  0  -0.077579  -0.085187  0  3.958527  0
C  C38  1  0.54902216  0.21014068  0.11346907  1  0  0.637964  0  3.843951  0  0  0.584762  0  4.132759  0  0  0.619941  0  4.125154  0  0  0.219047  0.560943  0  4.136966  0
C  C39  1  0.45097855  0.78986358  0.88653422  1  0  0.63795  0  3.843833  0  0  0.584672  0  4.132756  0  0  0.619846  0  4.125149  0  0  0.219036  0.560845  0  4.136964  0
C  C40  1  0.52578167  0.09979754  0.05527824  1  0  -0.052253  0  3.744906  0  0  -0.030055  0  3.975559  0  0  -0.037269  0  3.999074  0  0  -0.010554  -0.025366  0  3.959668  0
C  C41  1  0.47421827  0.90020518  0.94472721  1  0  -0.052236  0  3.745198  0  0  -0.029941  0  3.975766  0  0  -0.037153  0  3.999278  0  0  -0.010432  -0.025236  0  3.959854  0
C  C42  1  0.57636123  0.88764091  0.06606680  1  0  -0.063338  0  3.733592  0  0  -0.086078  0  3.981494  0  0  -0.087526  0  4.003208  0  0  -0.080039  -0.084895  0  3.966848  0
C  C43  1  0.42363723  0.11235559  0.93393787  1  0  -0.063299  0  3.733756  0  0  -0.086086  0  3.981686  0  0  -0.087518  0  4.003391  0  0  -0.08012  -0.084927  0  3.967024  0
C  C44  1  0.44957831  0.21170668  0.98878236  1  0  -0.062894  0  3.692554  0  0  -0.084924  0  3.939224  0  0  -0.086003  0  3.959583  0  0  -0.075953  -0.084059  0  3.925448  0
C  C45  1  0.55042450  0.78828980  0.01122019  1  0  -0.062966  0  3.692629  0  0  -0.085062  0  3.939224  0  0  -0.086139  0  3.959585  0  0  -0.076036  -0.084188  0  3.92543  0
C  C46  1  0.86387623  0.15404145  0.35398428  1  0  0.6662  0  3.827439  0  0  0.612832  0  4.114749  0  0  0.649418  0  4.104748  0  0  0.231002  0.587891  0  4.120735  0
C  C47  1  0.13612381  0.84595813  0.64601450  1  0  0.666231  0  3.82741  0  0  0.612798  0  4.114839  0  0  0.649384  0  4.104826  0  0  0.23098  0.587852  0  4.120827  0
C  C48  1  0.93531452  0.07390068  0.42913388  1  0  -0.060975  0  3.733665  0  0  -0.03959  0  3.967125  0  0  -0.046788  0  3.989513  0  0  -0.012553  -0.034873  0  3.952054  0
C  C49  1  0.06469613  0.92607865  0.57086516  1  0  -0.06102  0  3.733552  0  0  -0.03959  0  3.96701  0  0  -0.046784  0  3.989391  0  0  -0.012551  -0.034866  0  3.951932  0
C  C50  1  0.82607411  0.98262359  0.47153686  1  0  -0.056076  0  3.701496  0  0  -0.080082  0  3.951515  0  0  -0.080684  0  3.971651  0  0  -0.077364  -0.079597  0  3.937832  0
C  C51  1  0.17392935  0.01735577  0.52846222  1  0  -0.056079  0  3.701381  0  0  -0.080106  0  3.951401  0  0  -0.080708  0  3.971533  0  0  -0.077384  -0.079622  0  3.937725  0
C  C52  1  0.10959011  0.09089300  0.45835688  1  0  -0.06701  0  3.713295  0  0  -0.091277  0  3.967532  0  0  -0.092317  0  3.987878  0  0  -0.07776  -0.090477  0  3.953895  0
C  C53  1  0.89040916  0.90909257  0.54163882  1  0  -0.067121  0  3.713228  0  0  -0.0914  0  3.96755  0  0  -0.092449  0  3.987915  0  0  -0.077805  -0.090597  0  3.953905  0
O  O54  1  0.26797089  0.37723094  0.24907821  1  0  -0.879173  0  1.827194  0  0  -0.736503  0  2.080504  0  0  -0.771765  0  2.066346  0  0  -0.438533  -0.71116  0  2.089524  0
O  O55  1  0.73203132  0.62277641  0.75092285  1  0  -0.879164  0  1.827177  0  0  -0.736486  0  2.080469  0  0  -0.771754  0  2.066315  0  0  -0.438554  -0.711143  0  2.08948  0
O  O56  1  0.05129409  0.53841130  0.38974302  1  0  -0.580279  0  1.977247  0  0  -0.511835  0  2.202574  0  0  -0.538002  0  2.197122  0  0  -0.274717  -0.493487  0  2.205735  0
O  O57  1  0.94871616  0.46160067  0.61025416  1  0  -0.580131  0  1.976873  0  0  -0.511804  0  2.202401  0  0  -0.537954  0  2.196948  0  0  -0.274701  -0.493459  0  2.205561  0
O  O58  1  0.20759074  0.71231083  0.32918398  1  0  -0.654941  0  2.130929  0  0  -0.573719  0  2.375371  0  0  -0.60349  0  2.371129  0  0  -0.279391  -0.552725  0  2.377575  0
O  O59  1  0.79242626  0.28767320  0.67082321  1  0  -0.655034  0  2.130406  0  0  -0.573741  0  2.374825  0  0  -0.603513  0  2.370585  0  0  -0.279402  -0.552742  0  2.377026  0
O  O60  1  0.17029084  0.78809239  0.18367970  1  0  -0.646879  0  2.157992  0  0  -0.560192  0  2.407019  0  0  -0.587219  0  2.397244  0  0  -0.277748  -0.541166  0  2.413027  0
O  O61  1  0.82969277  0.21191188  0.81631583  1  0  -0.646954  0  2.158072  0  0  -0.560242  0  2.407001  0  0  -0.587305  0  2.397271  0  0  -0.277745  -0.541217  0  2.413011  0
O  O62  1  0.14008708  0.11460366  0.16842611  1  0  -0.584505  0  2.030925  0  0  -0.509562  0  2.273816  0  0  -0.536297  0  2.264068  0  0  -0.26686  -0.490869  0  2.279942  0
O  O63  1  0.85990520  0.88541303  0.83157252  1  0  -0.584566  0  2.031168  0  0  -0.509661  0  2.274068  0  0  -0.536375  0  2.264293  0  0  -0.266901  -0.490961  0  2.280189  0
O  O64  1  0.62578143  0.10903164  0.17488696  1  0  -0.652652  0  2.034565  0  0  -0.573837  0  2.278051  0  0  -0.603669  0  2.273829  0  0  -0.282664  -0.552767  0  2.280174  0
O  O65  1  0.37421718  0.89097729  0.82511563  1  0  -0.652651  0  2.034559  0  0  -0.573787  0  2.278019  0  0  -0.603667  0  2.273908  0  0  -0.28268  -0.55272  0  2.280147  0
O  O66  1  0.48949564  0.40501088  0.10317031  1  0  -0.579638  0  1.990759  0  0  -0.509759  0  2.219377  0  0  -0.537054  0  2.213936  0  0  -0.273015  -0.490753  0  2.222582  0
O  O67  1  0.51050942  0.59499024  0.89682996  1  0  -0.579643  0  1.99064  0  0  -0.509781  0  2.219335  0  0  -0.537065  0  2.213887  0  0  -0.273045  -0.490779  0  2.222547  0
O  O68  1  0.68560795  0.16783922  0.33252011  1  0  -0.614287  0  2.020871  0  0  -0.545769  0  2.263567  0  0  -0.574122  0  2.25778  0  0  -0.27407  -0.526141  0  2.267478  0
O  O69  1  0.31438640  0.83216969  0.66747936  1  0  -0.614314  0  2.020862  0  0  -0.545782  0  2.263598  0  0  -0.574127  0  2.257804  0  0  -0.274084  -0.526155  0  2.267505  0
O  O70  1  0.97967762  0.21412125  0.31278564  1  0  -0.659112  0  2.137  0  0  -0.573468  0  2.38884  0  0  -0.602558  0  2.380185  0  0  -0.282881  -0.552639  0  2.393974  0
O  O71  1  0.02032245  0.78588143  0.68721301  1  0  -0.659094  0  2.136989  0  0  -0.573389  0  2.388804  0  0  -0.602495  0  2.380192  0  0  -0.282854  -0.552562  0  2.393937  0
