# generated using pymatgen
data_CdH18C28(NO)4
_symmetry_space_group_name_H-M   'P 1'
_cell_length_a   10.46979786
_cell_length_b   11.51996684
_cell_length_c   12.06966881
_cell_angle_alpha   61.76274228
_cell_angle_beta   71.63599125
_cell_angle_gamma   65.63507176
_symmetry_Int_Tables_number   1
_chemical_formula_structural   CdH18C28(NO)4
_chemical_formula_sum   'Cd2 H36 C56 N8 O8'
_cell_volume   1155.17475871
_cell_formula_units_Z   2
loop_
 _symmetry_equiv_pos_site_id
 _symmetry_equiv_pos_as_xyz
  1  'x, y, z'
loop_
 _atom_site_type_symbol
 _atom_site_label
 _atom_site_symmetry_multiplicity
 _atom_site_fract_x
 _atom_site_fract_y
 _atom_site_fract_z
 _atom_site_occupancy
 _atom_site_pbe_bader_spin_density
 _atom_site_pbe_cm5_charge
 _atom_site_pbe_ddec_charge
 _atom_site_pbe_ddec_spin_density
 _atom_site_pbe_ddec_sum_bond_order
 _atom_site_pbe_magmom
Cd  Cd0  1  0.65354896  0.38027760  0.11295850  1  0  0.784804  0.926132  0  2.171823  0
Cd  Cd1  1  0.34645246  0.61972207  0.88704200  1  0  0.784801  0.926119  0  2.17183  0
H  H2  1  0.95780987  0.10561769  0.44258555  1  0  0.103704  0.099973  0  1.043894  0
H  H3  1  0.04219222  0.89437990  0.55741569  1  0  0.103694  0.099935  0  1.043938  0
H  H4  1  0.13466020  0.38740927  0.10196807  1  0  0.104961  0.123253  0  1.028344  0
H  H5  1  0.86533921  0.61259040  0.89803296  1  0  0.104984  0.12329  0  1.028289  0
H  H6  1  0.36629728  0.12989614  0.41986116  1  0  0.103817  0.105729  0  1.015876  0
H  H7  1  0.63370212  0.87010974  0.58014042  1  0  0.103825  0.105754  0  1.015893  0
H  H8  1  0.84459426  0.02036316  0.21526415  1  0  0.106126  0.117863  0  1.047823  0
H  H9  1  0.15540817  0.97963652  0.78473441  1  0  0.106111  0.117844  0  1.047778  0
H  H10  1  0.87029319  0.63597422  0.21449566  1  0  0.114917  0.129348  0  1.012644  0
H  H11  1  0.12970657  0.36402753  0.78550270  1  0  0.114927  0.129359  0  1.012632  0
H  H12  1  0.14391092  0.51427404  0.50421250  1  0  0.095956  0.096336  0  1.001842  0
H  H13  1  0.85608850  0.48572564  0.49578687  1  0  0.095964  0.09632  0  1.00187  0
H  H14  1  0.59470945  0.05617260  0.30723313  1  0  0.104798  0.113421  0  1.037862  0
H  H15  1  0.40528998  0.94383020  0.69276402  1  0  0.104805  0.113469  0  1.03784  0
H  H16  1  0.73667353  0.60882407  0.12795908  1  0  0.13913  0.110605  0  1.004727  0
H  H17  1  0.26332556  0.39117664  0.87204075  1  0  0.139123  0.110569  0  1.004747  0
H  H18  1  0.39332077  0.74063575  0.49023609  1  0  0.108446  0.123327  0  1.000539  0
H  H19  1  0.60667697  0.25936601  0.50976281  1  0  0.108447  0.123342  0  1.000547  0
H  H20  1  0.47200616  0.89751617  0.33669668  1  0  0.106475  0.112791  0  1.03483  0
H  H21  1  0.52799393  0.10248766  0.66330066  1  0  0.106484  0.112779  0  1.034826  0
H  H22  1  0.45746092  0.80987356  0.98226210  1  0  0.105593  0.122217  0  1.009487  0
H  H23  1  0.54253951  0.19012612  0.01773700  1  0  0.105591  0.12222  0  1.009542  0
H  H24  1  0.17236681  0.02390865  0.54330567  1  0  0.100625  0.107617  0  1.029141  0
H  H25  1  0.82763393  0.97609308  0.45669740  1  0  0.100632  0.107628  0  1.02919  0
H  H26  1  0.24198820  0.02777862  0.23211914  1  0  0.093011  0.089156  0  1.060131  0
H  H27  1  0.75801289  0.97221899  0.76788071  1  0  0.093015  0.089164  0  1.060099  0
H  H28  1  0.02611104  0.96828002  0.27485970  1  0  0.105056  0.116268  0  1.039428  0
H  H29  1  0.97389038  0.03171653  0.72514218  1  0  0.105038  0.116214  0  1.039468  0
H  H30  1  0.03251180  0.68139020  0.05109752  1  0  0.140363  0.115399  0  1.012725  0
H  H31  1  0.96748796  0.31861156  0.94890000  1  0  0.140369  0.115425  0  1.012692  0
H  H32  1  0.31749919  0.44187563  0.33358788  1  0  0.102885  0.117798  0  1.02979  0
H  H33  1  0.68250156  0.55812300  0.66641325  1  0  0.102873  0.11778  0  1.029804  0
H  H34  1  0.45345662  0.95321152  0.08909788  1  0  0.0952  0.093449  0  1.042652  0
H  H35  1  0.54654547  0.04678608  0.91090252  1  0  0.095205  0.093465  0  1.042702  0
H  H36  1  0.18600696  0.65818803  0.58104928  1  0  0.093954  0.090713  0  1.05902  0
H  H37  1  0.81399079  0.34181374  0.41894878  1  0  0.093959  0.090734  0  1.058984  0
C  C38  1  0.87513208  0.82560255  0.20729799  1  0  0.100265  0.201814  0  4.013401  0
C  C39  1  0.12487037  0.17439714  0.79269891  1  0  0.100239  0.20178  0  4.013476  0
C  C40  1  0.38372217  0.32112127  0.17995097  1  0  0.199611  0.56604  0  4.239273  0
C  C41  1  0.61627858  0.67888047  0.82004961  1  0  0.199636  0.566052  0  4.23923  0
C  C42  1  0.04505375  0.14798869  0.39123974  1  0  -0.080496  -0.087682  0  3.962956  0
C  C43  1  0.95494265  0.85201409  0.60876071  1  0  -0.080493  -0.087657  0  3.963088  0
C  C44  1  0.14307919  0.30793940  0.19835972  1  0  -0.079315  -0.112759  0  3.914186  0
C  C45  1  0.85691989  0.69206130  0.80164177  1  0  -0.079337  -0.112802  0  3.914188  0
C  C46  1  0.90593629  0.29130247  0.20898051  1  0  0.185212  0.541064  0  4.259421  0
C  C47  1  0.09406413  0.70869408  0.79102164  1  0  0.185198  0.541037  0  4.25946  0
C  C48  1  0.03398298  0.24927732  0.26706267  1  0  -0.02238  -0.03772  0  3.982962  0
C  C49  1  0.96601812  0.75072029  0.73293718  1  0  -0.022372  -0.037691  0  3.982983  0
C  C50  1  0.26344545  0.26314400  0.25343173  1  0  -0.025667  -0.049658  0  3.990535  0
C  C51  1  0.73655397  0.73685878  0.74656875  1  0  -0.025684  -0.049682  0  3.990564  0
C  C52  1  0.27287347  0.16168881  0.37805778  1  0  -0.080711  -0.0832  0  3.955819  0
C  C53  1  0.72712493  0.83831395  0.62194462  1  0  -0.080693  -0.083206  0  3.955916  0
C  C54  1  0.11903593  0.85710784  0.14841995  1  0  0.092757  0.094189  0  3.958828  0
C  C55  1  0.88096549  0.14288872  0.85158027  1  0  0.092787  0.094181  0  3.95869  0
C  C56  1  0.79772242  0.94247311  0.23613470  1  0  -0.092572  -0.176573  0  3.954786  0
C  C57  1  0.20227868  0.05752761  0.76386376  1  0  -0.092569  -0.176503  0  3.954827  0
C  C58  1  0.44961980  0.55673286  0.31167687  1  0  0.09142  0.150183  0  4.037896  0
C  C59  1  0.55037929  0.44326786  0.68832296  1  0  0.091434  0.150212  0  4.03786  0
C  C60  1  0.80896001  0.73089178  0.23033870  1  0  -0.096317  -0.278122  0  3.945435  0
C  C61  1  0.19104007  0.26910893  0.76966086  1  0  -0.096328  -0.278127  0  3.945441  0
C  C62  1  0.23701336  0.54920388  0.46063841  1  0  -0.10254  -0.094789  0  4.043564  0
C  C63  1  0.76298539  0.45079788  0.53935939  1  0  -0.102539  -0.094751  0  4.043576  0
C  C64  1  0.66297018  0.75868714  0.27364480  1  0  0.101259  0.201585  0  4.029133  0
C  C65  1  0.33702857  0.24131461  0.72635382  1  0  0.101262  0.201567  0  4.029159  0
C  C66  1  0.24184926  0.81151031  0.06769172  1  0  0.088273  0.146206  0  4.050313  0
C  C67  1  0.75814982  0.18848729  0.93231034  1  0  0.088326  0.146326  0  4.050114  0
C  C68  1  0.46984249  0.64381023  0.35318072  1  0  0.094695  0.092495  0  3.966414  0
C  C69  1  0.53015658  0.35619047  0.64681995  1  0  0.094682  0.092481  0  3.966414  0
C  C70  1  0.65477473  0.96329522  0.28751044  1  0  -0.082368  -0.040563  0  3.994147  0
C  C71  1  0.34522771  0.03670445  0.71248895  1  0  -0.08243  -0.04073  0  3.994324  0
C  C72  1  0.64227744  0.60390574  0.19854643  1  0  0.160938  0.137673  0  3.922136  0
C  C73  1  0.35772165  0.39609497  0.80145339  1  0  0.160975  0.13778  0  3.922101  0
C  C74  1  0.37687692  0.67990860  0.45217270  1  0  -0.090865  -0.156223  0  3.989529  0
C  C75  1  0.62311948  0.32009419  0.54782609  1  0  -0.090869  -0.156261  0  3.989601  0
C  C76  1  0.58557374  0.87427516  0.30445067  1  0  -0.092993  -0.180446  0  3.965574  0
C  C77  1  0.41442468  0.12572764  0.69554675  1  0  -0.092966  -0.180341  0  3.965636  0
C  C78  1  0.36357192  0.84665054  0.04330458  1  0  -0.090918  -0.142346  0  3.972853  0
C  C79  1  0.63642951  0.15334603  0.95669564  1  0  -0.090883  -0.142303  0  3.973035  0
C  C80  1  0.16386995  0.10391390  0.44708047  1  0  -0.094827  -0.097742  0  4.00234  0
C  C81  1  0.83613047  0.89608577  0.55292029  1  0  -0.094829  -0.097751  0  4.002437  0
C  C82  1  0.23948432  0.96829693  0.18511217  1  0  -0.09957  -0.081132  0  4.025108  0
C  C83  1  0.76051877  0.03169755  0.81489019  1  0  -0.099611  -0.081217  0  4.025066  0
C  C84  1  0.11693368  0.93494395  0.20984760  1  0  -0.096339  -0.162067  0  3.987616  0
C  C85  1  0.88306775  0.06505572  0.79015206  1  0  -0.096331  -0.161953  0  3.987615  0
C  C86  1  0.08475118  0.73096427  0.07259358  1  0  0.158962  0.133343  0  3.900933  0
C  C87  1  0.91524924  0.26903541  0.92740469  1  0  0.158948  0.133309  0  3.901013  0
C  C88  1  0.33200350  0.50909121  0.36515226  1  0  -0.09317  -0.148355  0  3.963413  0
C  C89  1  0.66799692  0.49090846  0.63484767  1  0  -0.093166  -0.148358  0  3.9634  0
C  C90  1  0.35997286  0.92604113  0.10290799  1  0  -0.104236  -0.104326  0  4.03915  0
C  C91  1  0.64002790  0.07395752  0.89709065  1  0  -0.104254  -0.10438  0  4.039272  0
C  C92  1  0.26033789  0.63152382  0.50413855  1  0  -0.100362  -0.08374  0  4.024166  0
C  C93  1  0.73965918  0.36847690  0.49586016  1  0  -0.100337  -0.083723  0  4.024217  0
N  N94  1  0.21617913  0.73277477  0.02315394  1  0  -0.342875  -0.335711  0  3.459795  0
N  N95  1  0.78382130  0.26722491  0.97684516  1  0  -0.342931  -0.335776  0  3.459738  0
N  N96  1  0.01960280  0.80364686  0.14945659  1  0  -0.217539  -0.05144  0  3.707976  0
N  N97  1  0.98039929  0.19635073  0.85054465  1  0  -0.21751  -0.051476  0  3.707917  0
N  N98  1  0.56025970  0.53353422  0.21616678  1  0  -0.342804  -0.331289  0  3.440299  0
N  N99  1  0.43974005  0.46646442  0.78383380  1  0  -0.3428  -0.331315  0  3.440289  0
N  N100  1  0.59511353  0.67201510  0.27852055  1  0  -0.222707  -0.065386  0  3.74205  0
N  N101  1  0.40488454  0.32798562  0.72147955  1  0  -0.222755  -0.065448  0  3.742073  0
O  O102  1  0.88494992  0.39949996  0.10577145  1  0  -0.334711  -0.572697  0  2.203315  0
O  O103  1  0.11504948  0.60049659  0.89423181  1  0  -0.334671  -0.572607  0  2.203333  0
O  O104  1  0.48809756  0.27661947  0.23881391  1  0  -0.323925  -0.545372  0  2.290697  0
O  O105  1  0.51190319  0.72338227  0.76118750  1  0  -0.323962  -0.545407  0  2.29075  0
O  O106  1  0.82290646  0.21746729  0.26588877  1  0  -0.336222  -0.564249  0  2.161598  0
O  O107  1  0.17709528  0.78252821  0.73411681  1  0  -0.336258  -0.564306  0  2.161624  0
O  O108  1  0.37920797  0.40694564  0.06543819  1  0  -0.336779  -0.592401  0  2.352031  0
O  O109  1  0.62079312  0.59305507  0.93456193  1  0  -0.336762  -0.592362  0  2.351918  0
