# generated using pymatgen
data_SnH10C8NClO3
_symmetry_space_group_name_H-M   'P 1'
_cell_length_a   9.67481916
_cell_length_b   10.66617879
_cell_length_c   11.10483187
_cell_angle_alpha   89.99998040
_cell_angle_beta   90.00015950
_cell_angle_gamma   104.04686092
_symmetry_Int_Tables_number   1
_chemical_formula_structural   SnH10C8NClO3
_chemical_formula_sum   'Sn4 H40 C32 N4 Cl4 O12'
_cell_volume   1111.67824187
_cell_formula_units_Z   4
loop_
 _symmetry_equiv_pos_site_id
 _symmetry_equiv_pos_as_xyz
  1  'x, y, z'
loop_
 _atom_site_type_symbol
 _atom_site_label
 _atom_site_symmetry_multiplicity
 _atom_site_fract_x
 _atom_site_fract_y
 _atom_site_fract_z
 _atom_site_occupancy
 _atom_site_hle17_bader_spin_density
 _atom_site_hle17_ddec_charge
 _atom_site_hle17_ddec_spin_density
 _atom_site_hle17_ddec_sum_bond_order
 _atom_site_hle17_magmom
 _atom_site_hse06_10hf_bader_spin_density
 _atom_site_hse06_10hf_ddec_charge
 _atom_site_hse06_10hf_ddec_spin_density
 _atom_site_hse06_10hf_ddec_sum_bond_order
 _atom_site_hse06_10hf_magmom
 _atom_site_hse06_bader_spin_density
 _atom_site_hse06_ddec_charge
 _atom_site_hse06_ddec_spin_density
 _atom_site_hse06_ddec_sum_bond_order
 _atom_site_hse06_magmom
 _atom_site_pbe_bader_spin_density
 _atom_site_pbe_cm5_charge
 _atom_site_pbe_ddec_charge
 _atom_site_pbe_ddec_spin_density
 _atom_site_pbe_ddec_sum_bond_order
 _atom_site_pbe_magmom
Sn  Sn0  1  0.23483727  0.30892218  0.90643629  1  0  1.414145  0  2.923173  0  0  1.262129  0  3.434216  0  0  1.310025  0  3.410779  0  0  0.558872  1.228867  0  3.450491  0
Sn  Sn1  1  0.26515996  0.19108081  0.40643148  1  0  1.414119  0  2.923254  0  0  1.262175  0  3.434147  0  0  1.309998  0  3.410858  0  0  0.558894  1.228916  0  3.450424  0
Sn  Sn2  1  0.76515999  0.69107677  0.09356550  1  0  1.414181  0  2.923163  0  0  1.262228  0  3.434083  0  0  1.31007  0  3.410749  0  0  0.558909  1.228968  0  3.450351  0
Sn  Sn3  1  0.73483935  0.80892200  0.59356581  1  0  1.414088  0  2.923257  0  0  1.262115  0  3.434209  0  0  1.309973  0  3.410859  0  0  0.558877  1.228858  0  3.450479  0
H  H4  1  0.35650627  0.95558862  0.19489292  1  0  0.387824  0  0.881436  0  0  0.359357  0  0.957571  0  0  0.371068  0  0.944915  0  0  0.309286  0.351126  0  0.966373  0
H  H5  1  0.14349421  0.54441193  0.69489039  1  0  0.387758  0  0.881468  0  0  0.359271  0  0.957645  0  0  0.370979  0  0.944994  0  0  0.309267  0.35104  0  0.966446  0
H  H6  1  0.64349228  0.04441129  0.80510977  1  0  0.387787  0  0.881473  0  0  0.359293  0  0.957652  0  0  0.371006  0  0.944997  0  0  0.309264  0.351062  0  0.966455  0
H  H7  1  0.85650615  0.45558702  0.30510780  1  0  0.387749  0  0.881489  0  0  0.359269  0  0.95766  0  0  0.370978  0  0.945008  0  0  0.309258  0.351037  0  0.966462  0
H  H8  1  0.33898045  0.74918254  0.93792805  1  0  0.125776  0  0.956648  0  0  0.134852  0  1.016897  0  0  0.138838  0  1.013989  0  0  0.103376  0.131667  0  1.019567  0
H  H9  1  0.16101850  0.75081712  0.43792836  1  0  0.125777  0  0.956627  0  0  0.134851  0  1.01688  0  0  0.138837  0  1.013972  0  0  0.103384  0.131666  0  1.01955  0
H  H10  1  0.66102249  0.25081835  0.06207285  1  0  0.125752  0  0.956631  0  0  0.134839  0  1.016881  0  0  0.138825  0  1.013973  0  0  0.103377  0.131655  0  1.019553  0
H  H11  1  0.83898186  0.24918183  0.56207253  1  0  0.125799  0  0.956594  0  0  0.134849  0  1.016864  0  0  0.138836  0  1.013954  0  0  0.103368  0.131665  0  1.019537  0
H  H12  1  0.28759989  0.83166264  0.73493615  1  0  0.114598  0  0.946314  0  0  0.122225  0  1.007371  0  0  0.125613  0  1.005493  0  0  0.110353  0.119837  0  1.00889  0
H  H13  1  0.21240149  0.66834082  0.23493572  1  0  0.114679  0  0.946262  0  0  0.122296  0  1.007331  0  0  0.125687  0  1.005449  0  0  0.110376  0.119908  0  1.008848  0
H  H14  1  0.71240434  0.16833922  0.26506474  1  0  0.114637  0  0.946316  0  0  0.122269  0  1.007358  0  0  0.12566  0  1.005472  0  0  0.110386  0.119884  0  1.008875  0
H  H15  1  0.78759861  0.33166103  0.76506337  1  0  0.114608  0  0.94631  0  0  0.122226  0  1.007388  0  0  0.125614  0  1.005512  0  0  0.110355  0.11984  0  1.008906  0
H  H16  1  0.25157009  0.05600420  0.71793733  1  0  0.086981  0  0.97303  0  0  0.088155  0  1.050149  0  0  0.091622  0  1.046928  0  0  0.109024  0.085405  0  1.05322  0
H  H17  1  0.24843144  0.44399777  0.21793689  1  0  0.086963  0  0.973079  0  0  0.088151  0  1.050193  0  0  0.091607  0  1.046982  0  0  0.109014  0.085395  0  1.053279  0
H  H18  1  0.74843130  0.94399475  0.28206356  1  0  0.086947  0  0.973049  0  0  0.088119  0  1.050179  0  0  0.091588  0  1.046956  0  0  0.108997  0.085367  0  1.053253  0
H  H19  1  0.75156840  0.55600312  0.78206130  1  0  0.086987  0  0.973066  0  0  0.088165  0  1.050184  0  0  0.091623  0  1.046971  0  0  0.109026  0.085409  0  1.053271  0
H  H20  1  0.45421378  0.30873297  0.75792553  1  0  0.166825  0  0.970887  0  0  0.184209  0  1.026377  0  0  0.187436  0  1.026933  0  0  0.091052  0.181674  0  1.026209  0
H  H21  1  0.04577988  0.19126610  0.25792198  1  0  0.166831  0  0.970821  0  0  0.184201  0  1.026328  0  0  0.18743  0  1.02688  0  0  0.091023  0.181666  0  1.026161  0
H  H22  1  0.54578426  0.69126502  0.24207626  1  0  0.166868  0  0.970851  0  0  0.184245  0  1.026345  0  0  0.187473  0  1.026898  0  0  0.091062  0.181709  0  1.026176  0
H  H23  1  0.95421635  0.80873284  0.74207531  1  0  0.166862  0  0.970839  0  0  0.184222  0  1.02636  0  0  0.187449  0  1.026914  0  0  0.091048  0.181685  0  1.026193  0
H  H24  1  0.52148560  0.36716651  0.90331727  1  0  0.167036  0  0.99098  0  0  0.181081  0  1.054217  0  0  0.184327  0  1.054705  0  0  0.085139  0.178468  0  1.054503  0
H  H25  1  0.97851572  0.13283378  0.40331480  1  0  0.167033  0  0.990927  0  0  0.181074  0  1.054169  0  0  0.184323  0  1.054651  0  0  0.085129  0.178461  0  1.054455  0
H  H26  1  0.47851476  0.63283245  0.09668362  1  0  0.167064  0  0.990937  0  0  0.18111  0  1.054167  0  0  0.184357  0  1.054651  0  0  0.085138  0.178496  0  1.054453  0
H  H27  1  0.02148411  0.86716710  0.59668339  1  0  0.167054  0  0.990953  0  0  0.181096  0  1.054192  0  0  0.184344  0  1.054676  0  0  0.085142  0.178482  0  1.054479  0
H  H28  1  0.45762343  0.47229870  0.80309234  1  0  0.156258  0  0.990005  0  0  0.172461  0  1.049669  0  0  0.175662  0  1.049981  0  0  0.086307  0.17  0  1.049764  0
H  H29  1  0.04237502  0.02770233  0.30308973  1  0  0.156246  0  0.990007  0  0  0.172423  0  1.049703  0  0  0.175626  0  1.05001  0  0  0.086294  0.169972  0  1.049789  0
H  H30  1  0.54237460  0.52769928  0.19690856  1  0  0.156247  0  0.990014  0  0  0.172445  0  1.049686  0  0  0.175647  0  1.049995  0  0  0.086285  0.169983  0  1.049782  0
H  H31  1  0.95762482  0.97229856  0.69690846  1  0  0.156239  0  0.990038  0  0  0.172425  0  1.049718  0  0  0.175627  0  1.050028  0  0  0.086295  0.169971  0  1.049808  0
H  H32  1  0.99044984  0.15010261  0.83059638  1  0  0.161559  0  0.975649  0  0  0.179745  0  1.032296  0  0  0.182949  0  1.032353  0  0  0.089224  0.177376  0  1.032398  0
H  H33  1  0.50955460  0.34989862  0.33059720  1  0  0.161568  0  0.975641  0  0  0.179758  0  1.032287  0  0  0.182959  0  1.032347  0  0  0.089239  0.177388  0  1.03239  0
H  H34  1  0.00955052  0.84989634  0.16940181  1  0  0.161533  0  0.975562  0  0  0.179723  0  1.032206  0  0  0.182918  0  1.032274  0  0  0.089226  0.177356  0  1.032304  0
H  H35  1  0.49044963  0.65010324  0.66940189  1  0  0.161545  0  0.975563  0  0  0.179744  0  1.032199  0  0  0.182943  0  1.032264  0  0  0.08923  0.177373  0  1.032304  0
H  H36  1  0.95220737  0.28042539  0.91772776  1  0  0.168777  0  0.984039  0  0  0.183303  0  1.045539  0  0  0.186379  0  1.046146  0  0  0.088257  0.180972  0  1.04549  0
H  H37  1  0.54779271  0.21957394  0.41772781  1  0  0.168781  0  0.983992  0  0  0.183279  0  1.045533  0  0  0.186358  0  1.046132  0  0  0.088264  0.180948  0  1.045485  0
H  H38  1  0.04779170  0.71957260  0.08227044  1  0  0.168766  0  0.984062  0  0  0.183268  0  1.045591  0  0  0.186346  0  1.046194  0  0  0.088259  0.180935  0  1.045541  0
H  H39  1  0.45220790  0.78042598  0.58227129  1  0  0.16877  0  0.984046  0  0  0.183268  0  1.045587  0  0  0.186346  0  1.046191  0  0  0.088257  0.180935  0  1.045539  0
H  H40  1  0.99848076  0.14635398  0.99229087  1  0  0.157669  0  0.977742  0  0  0.175765  0  1.03358  0  0  0.178164  0  1.035673  0  0  0.087124  0.173989  0  1.032158  0
H  H41  1  0.50151957  0.35364537  0.49229257  1  0  0.157652  0  0.977801  0  0  0.175752  0  1.033637  0  0  0.178154  0  1.035723  0  0  0.087132  0.173983  0  1.032205  0
H  H42  1  0.00151831  0.85364400  0.00770642  1  0  0.157699  0  0.977724  0  0  0.175788  0  1.033574  0  0  0.178189  0  1.03566  0  0  0.087142  0.174014  0  1.032147  0
H  H43  1  0.49848105  0.64635455  0.50770743  1  0  0.157646  0  0.977781  0  0  0.175756  0  1.033607  0  0  0.178157  0  1.035695  0  0  0.087127  0.173984  0  1.032177  0
C  C44  1  0.31062958  0.14216498  0.11200295  1  0  0.636519  0  3.88393  0  0  0.579485  0  4.181358  0  0  0.61551  0  4.172175  0  0  0.227839  0.555189  0  4.186612  0
C  C45  1  0.18936800  0.35783501  0.61200133  1  0  0.636526  0  3.883919  0  0  0.579497  0  4.181345  0  0  0.615519  0  4.172161  0  0  0.227854  0.555201  0  4.186603  0
C  C46  1  0.68937026  0.85783591  0.88799794  1  0  0.636534  0  3.884041  0  0  0.579515  0  4.181456  0  0  0.615548  0  4.172266  0  0  0.227858  0.55522  0  4.186713  0
C  C47  1  0.81063236  0.64216394  0.38799686  1  0  0.636482  0  3.884195  0  0  0.579459  0  4.181619  0  0  0.615485  0  4.172432  0  0  0.227838  0.555162  0  4.186872  0
C  C48  1  0.30715585  0.05101836  0.01078216  1  0  -0.077784  0  3.791071  0  0  -0.077297  0  4.034633  0  0  -0.084363  0  4.055649  0  0  0.086473  -0.072283  0  4.019703  0
C  C49  1  0.19284217  0.44898064  0.51078052  1  0  -0.077758  0  3.790969  0  0  -0.077293  0  4.034545  0  0  -0.084356  0  4.055555  0  0  0.086446  -0.072279  0  4.019617  0
C  C50  1  0.69284373  0.94898156  0.98921963  1  0  -0.077758  0  3.791035  0  0  -0.07733  0  4.034628  0  0  -0.084394  0  4.055637  0  0  0.086451  -0.072315  0  4.019701  0
C  C51  1  0.80715767  0.55102025  0.48921857  1  0  -0.077755  0  3.791  0  0  -0.07729  0  4.034573  0  0  -0.084354  0  4.055586  0  0  0.08646  -0.072275  0  4.019644  0
C  C52  1  0.33048407  0.92652880  0.02814116  1  0  0.305546  0  3.807961  0  0  0.2897  0  4.078356  0  0  0.301897  0  4.094892  0  0  0.101809  0.281391  0  4.066483  0
C  C53  1  0.16951225  0.57346975  0.52813868  1  0  0.305485  0  3.807826  0  0  0.289636  0  4.078226  0  0  0.301831  0  4.094763  0  0  0.101784  0.281327  0  4.066355  0
C  C54  1  0.66951654  0.07347112  0.97186154  1  0  0.305509  0  3.807815  0  0  0.289715  0  4.078155  0  0  0.301911  0  4.094691  0  0  0.101822  0.281406  0  4.066287  0
C  C55  1  0.83048707  0.42652920  0.47185951  1  0  0.305533  0  3.807769  0  0  0.289693  0  4.07814  0  0  0.301889  0  4.094676  0  0  0.101807  0.281384  0  4.066272  0
C  C56  1  0.32403472  0.84652709  0.92651046  1  0  -0.130055  0  3.66159  0  0  -0.157182  0  3.918682  0  0  -0.160282  0  3.934613  0  0  -0.078813  -0.155275  0  3.908158  0
C  C57  1  0.17596548  0.65347354  0.42650814  1  0  -0.12996  0  3.661536  0  0  -0.157092  0  3.918629  0  0  -0.160189  0  3.934558  0  0  -0.078797  -0.155187  0  3.908105  0
C  C58  1  0.67596848  0.15347477  0.07349223  1  0  -0.129876  0  3.661483  0  0  -0.157038  0  3.918563  0  0  -0.160137  0  3.934496  0  0  -0.078759  -0.155132  0  3.908046  0
C  C59  1  0.82403410  0.34652638  0.57349275  1  0  -0.130032  0  3.661504  0  0  -0.157106  0  3.91855  0  0  -0.160203  0  3.934478  0  0  -0.078773  -0.155199  0  3.908028  0
C  C60  1  0.29512435  0.89207577  0.81493646  1  0  -0.052212  0  3.686907  0  0  -0.06758  0  3.94428  0  0  -0.067396  0  3.960019  0  0  -0.065963  -0.067722  0  3.933728  0
C  C61  1  0.20487497  0.60792675  0.31493603  1  0  -0.052382  0  3.686953  0  0  -0.067744  0  3.94434  0  0  -0.067562  0  3.960078  0  0  -0.066015  -0.067882  0  3.933781  0
C  C62  1  0.70487678  0.10792608  0.18506443  1  0  -0.052395  0  3.686941  0  0  -0.067759  0  3.944335  0  0  -0.067574  0  3.960072  0  0  -0.066034  -0.067901  0  3.933785  0
C  C63  1  0.79512487  0.39207413  0.68506396  1  0  -0.052263  0  3.68702  0  0  -0.067657  0  3.944391  0  0  -0.067475  0  3.960129  0  0  -0.065999  -0.067797  0  3.933839  0
C  C64  1  0.27335071  0.01703714  0.80471040  1  0  0.112877  0  3.689194  0  0  0.074613  0  3.952251  0  0  0.07968  0  3.967862  0  0  0.046106  0.071107  0  3.942208  0
C  C65  1  0.22665007  0.48296486  0.30470810  1  0  0.112936  0  3.689141  0  0  0.074639  0  3.952205  0  0  0.079717  0  3.967814  0  0  0.046134  0.071131  0  3.942159  0
C  C66  1  0.72665016  0.98296375  0.19529139  1  0  0.112935  0  3.689163  0  0  0.074653  0  3.952226  0  0  0.079716  0  3.967835  0  0  0.046128  0.071148  0  3.942181  0
C  C67  1  0.77335029  0.51703409  0.69529099  1  0  0.112888  0  3.689184  0  0  0.074627  0  3.952216  0  0  0.079703  0  3.967829  0  0  0.046131  0.071119  0  3.942173  0
C  C68  1  0.44374336  0.37229758  0.83298563  1  0  -0.68642  0  3.508447  0  0  -0.736643  0  3.749288  0  0  -0.752543  0  3.757347  0  0  -0.32395  -0.725073  0  3.744087  0
C  C69  1  0.05625545  0.12770442  0.33298213  1  0  -0.686396  0  3.50836  0  0  -0.73659  0  3.749271  0  0  -0.752485  0  3.75732  0  0  -0.323904  -0.725035  0  3.744058  0
C  C70  1  0.55625700  0.62770137  0.16701616  1  0  -0.686504  0  3.508441  0  0  -0.736715  0  3.749278  0  0  -0.752612  0  3.757328  0  0  -0.323944  -0.725146  0  3.744081  0
C  C71  1  0.94374361  0.87229743  0.66701606  1  0  -0.68645  0  3.508456  0  0  -0.736636  0  3.749344  0  0  -0.752532  0  3.757394  0  0  -0.323941  -0.725076  0  3.744136  0
C  C72  1  0.01569209  0.20852060  0.91243703  1  0  -0.68459  0  3.505929  0  0  -0.735455  0  3.745572  0  0  -0.750801  0  3.753581  0  0  -0.324834  -0.724823  0  3.740094  0
C  C73  1  0.48430957  0.29147951  0.41243903  1  0  -0.684581  0  3.505852  0  0  -0.735446  0  3.745547  0  0  -0.75078  0  3.753544  0  0  -0.324878  -0.724822  0  3.740064  0
C  C74  1  0.98430827  0.79147835  0.08755936  1  0  -0.684594  0  3.505777  0  0  -0.735446  0  3.745461  0  0  -0.750776  0  3.753469  0  0  -0.324882  -0.724819  0  3.739969  0
C  C75  1  0.51569027  0.70852138  0.58756006  1  0  -0.684514  0  3.505833  0  0  -0.735393  0  3.745511  0  0  -0.750728  0  3.753517  0  0  -0.324839  -0.724765  0  3.740029  0
N  N76  1  0.27923153  0.09267006  0.90086764  1  0  -0.313946  0  3.331425  0  0  -0.242048  0  3.574278  0  0  -0.255587  0  3.59785  0  0  -0.290753  -0.232577  0  3.55775  0
N  N77  1  0.22076828  0.40733101  0.40086625  1  0  -0.313967  0  3.331348  0  0  -0.242051  0  3.574203  0  0  -0.25558  0  3.597763  0  0  -0.290764  -0.232578  0  3.557675  0
N  N78  1  0.72076909  0.90732986  0.09913326  1  0  -0.313951  0  3.331407  0  0  -0.24202  0  3.574244  0  0  -0.255552  0  3.597813  0  0  -0.290767  -0.232548  0  3.557715  0
N  N79  1  0.77923131  0.59266891  0.59913285  1  0  -0.313948  0  3.331332  0  0  -0.242047  0  3.574182  0  0  -0.255579  0  3.597745  0  0  -0.290767  -0.232574  0  3.557652  0
Cl  Cl80  1  0.21280536  0.51746651  0.99093729  1  0  -0.523427  0  0.870092  0  0  -0.468989  0  1.09214  0  0  -0.481119  0  1.076299  0  0  -0.226903  -0.460259  0  1.105397  0
Cl  Cl81  1  0.28719272  0.98253704  0.49093153  1  0  -0.523432  0  0.870084  0  0  -0.46901  0  1.09212  0  0  -0.481126  0  1.076298  0  0  -0.226913  -0.46028  0  1.105376  0
Cl  Cl82  1  0.78718957  0.48253147  0.00906361  1  0  -0.523423  0  0.87008  0  0  -0.469  0  1.092127  0  0  -0.481119  0  1.076298  0  0  -0.226901  -0.460271  0  1.105384  0
Cl  Cl83  1  0.71280660  0.01746578  0.50906396  1  0  -0.52343  0  0.870102  0  0  -0.468994  0  1.092132  0  0  -0.481117  0  1.076301  0  0  -0.226912  -0.460267  0  1.105387  0
O  O84  1  0.28903792  0.25441909  0.09237902  1  0  -0.594258  0  2.027142  0  0  -0.525218  0  2.264991  0  0  -0.551503  0  2.256591  0  0  -0.267845  -0.506931  0  2.270214  0
O  O85  1  0.21096036  0.24557993  0.59237749  1  0  -0.594302  0  2.027153  0  0  -0.52526  0  2.264991  0  0  -0.55154  0  2.256597  0  0  -0.267873  -0.506975  0  2.270216  0
O  O86  1  0.71096062  0.74558082  0.90762277  1  0  -0.594272  0  2.027212  0  0  -0.525262  0  2.265077  0  0  -0.551541  0  2.256672  0  0  -0.267877  -0.506976  0  2.270299  0
O  O87  1  0.78904181  0.75441806  0.40762250  1  0  -0.594221  0  2.027289  0  0  -0.525192  0  2.265128  0  0  -0.551472  0  2.256729  0  0  -0.267846  -0.506906  0  2.270351  0
O  O88  1  0.33470418  0.10316810  0.21689607  1  0  -0.61729  0  2.075543  0  0  -0.542657  0  2.301454  0  0  -0.570254  0  2.294414  0  0  -0.26977  -0.523461  0  2.306008  0
O  O89  1  0.16529762  0.39683098  0.71689528  1  0  -0.617273  0  2.075525  0  0  -0.542619  0  2.301401  0  0  -0.570217  0  2.294357  0  0  -0.269761  -0.523423  0  2.305952  0
O  O90  1  0.66529541  0.89683182  0.78310483  1  0  -0.6173  0  2.075557  0  0  -0.54264  0  2.301443  0  0  -0.570259  0  2.294414  0  0  -0.269747  -0.523439  0  2.30598  0
O  O91  1  0.83470507  0.60316895  0.28310381  1  0  -0.617305  0  2.075596  0  0  -0.542662  0  2.301487  0  0  -0.570259  0  2.294444  0  0  -0.269777  -0.52347  0  2.306045  0
O  O92  1  0.35805333  0.88311860  0.13685964  1  0  -0.482394  0  2.094101  0  0  -0.434013  0  2.303843  0  0  -0.455312  0  2.29761  0  0  -0.331396  -0.418667  0  2.307797  0
O  O93  1  0.14194541  0.61688000  0.63685618  1  0  -0.482314  0  2.094086  0  0  -0.4339  0  2.303804  0  0  -0.455202  0  2.297583  0  0  -0.331346  -0.418546  0  2.307734  0
O  O94  1  0.64194625  0.11688132  0.86314396  1  0  -0.482396  0  2.094035  0  0  -0.433996  0  2.303742  0  0  -0.455294  0  2.297511  0  0  -0.331386  -0.418645  0  2.307686  0
O  O95  1  0.85805676  0.38311799  0.36314201  1  0  -0.482325  0  2.09413  0  0  -0.433935  0  2.303843  0  0  -0.455245  0  2.29764  0  0  -0.33137  -0.41858  0  2.307775  0
