# generated using pymatgen
data_ZnH7C11N7O5
_symmetry_space_group_name_H-M   'P 1'
_cell_length_a   6.85766904
_cell_length_b   10.74524798
_cell_length_c   18.81730940
_cell_angle_alpha   100.27509632
_cell_angle_beta   90.00010942
_cell_angle_gamma   90.00017002
_symmetry_Int_Tables_number   1
_chemical_formula_structural   ZnH7C11N7O5
_chemical_formula_sum   'Zn4 H28 C44 N28 O20'
_cell_volume   1364.36040924
_cell_formula_units_Z   4
loop_
 _symmetry_equiv_pos_site_id
 _symmetry_equiv_pos_as_xyz
  1  'x, y, z'
loop_
 _atom_site_type_symbol
 _atom_site_label
 _atom_site_symmetry_multiplicity
 _atom_site_fract_x
 _atom_site_fract_y
 _atom_site_fract_z
 _atom_site_occupancy
 _atom_site_hle17_bader_spin_density
 _atom_site_hle17_ddec_charge
 _atom_site_hle17_ddec_spin_density
 _atom_site_hle17_ddec_sum_bond_order
 _atom_site_hle17_magmom
 _atom_site_hse06_10hf_bader_spin_density
 _atom_site_hse06_10hf_ddec_charge
 _atom_site_hse06_10hf_ddec_spin_density
 _atom_site_hse06_10hf_ddec_sum_bond_order
 _atom_site_hse06_10hf_magmom
 _atom_site_hse06_bader_spin_density
 _atom_site_hse06_ddec_charge
 _atom_site_hse06_ddec_spin_density
 _atom_site_hse06_ddec_sum_bond_order
 _atom_site_hse06_magmom
 _atom_site_pbe_bader_spin_density
 _atom_site_pbe_cm5_charge
 _atom_site_pbe_ddec_charge
 _atom_site_pbe_ddec_spin_density
 _atom_site_pbe_ddec_sum_bond_order
 _atom_site_pbe_magmom
Zn  Zn0  1  0.02818653  0.57245908  0.83252876  1  0  1.016562  0  1.87226  0  0  0.823926  0  2.354305  0  0  0.869695  0  2.29884  0  0  0.714216  0.792463  0  2.391757  0
Zn  Zn1  1  0.52819356  0.92753877  0.66747063  1  0  1.01661  0  1.872167  0  0  0.823968  0  2.354234  0  0  0.869741  0  2.298765  0  0  0.71423  0.792506  0  2.39168  0
Zn  Zn2  1  0.97181269  0.42754049  0.16747098  1  0  1.016559  0  1.872232  0  0  0.823905  0  2.354309  0  0  0.869676  0  2.298841  0  0  0.714215  0.792441  0  2.391761  0
Zn  Zn3  1  0.47180420  0.07245891  0.33252892  1  0  1.016569  0  1.872169  0  0  0.823938  0  2.35422  0  0  0.869708  0  2.298749  0  0  0.714203  0.792471  0  2.391666  0
H  H4  1  0.38270239  0.19181332  0.18391915  1  0  0.136646  0  0.91631  0  0  0.142985  0  0.980537  0  0  0.146218  0  0.975135  0  0  0.15348  0.140122  0  0.984367  0
H  H5  1  0.88270088  0.30818777  0.31608086  1  0  0.136635  0  0.916311  0  0  0.14298  0  0.980547  0  0  0.146212  0  0.975146  0  0  0.153484  0.140116  0  0.984375  0
H  H6  1  0.61730120  0.80818625  0.81608059  1  0  0.136675  0  0.91621  0  0  0.143001  0  0.980446  0  0  0.146235  0  0.975043  0  0  0.153503  0.140138  0  0.984278  0
H  H7  1  0.11729687  0.69181369  0.68391907  1  0  0.13665  0  0.916208  0  0  0.14299  0  0.980433  0  0  0.146221  0  0.975031  0  0  0.153502  0.140129  0  0.98426  0
H  H8  1  0.23799389  0.83165824  0.00601537  1  0  0.126239  0  0.956374  0  0  0.12882  0  1.028566  0  0  0.133364  0  1.024234  0  0  0.112831  0.125361  0  1.032105  0
H  H9  1  0.73799266  0.66834020  0.49398388  1  0  0.126257  0  0.95635  0  0  0.128836  0  1.028545  0  0  0.133382  0  1.024209  0  0  0.112832  0.125377  0  1.032084  0
H  H10  1  0.76201116  0.16833944  0.99398418  1  0  0.126245  0  0.95638  0  0  0.128807  0  1.028587  0  0  0.133352  0  1.024253  0  0  0.112817  0.125348  0  1.032126  0
H  H11  1  0.26200510  0.33166032  0.50601701  1  0  0.126223  0  0.956394  0  0  0.128809  0  1.028572  0  0  0.133352  0  1.024241  0  0  0.11282  0.125351  0  1.03211  0
H  H12  1  0.15470508  0.07314398  0.84995174  1  0  0.12469  0  0.947621  0  0  0.129203  0  1.019748  0  0  0.132702  0  1.017633  0  0  0.111412  0.126609  0  1.021319  0
H  H13  1  0.65471202  0.42685460  0.65004819  1  0  0.124665  0  0.947547  0  0  0.129188  0  1.019669  0  0  0.132685  0  1.017557  0  0  0.111389  0.126595  0  1.02124  0
H  H14  1  0.84529121  0.92685654  0.15004862  1  0  0.124644  0  0.947578  0  0  0.129223  0  1.019641  0  0  0.132719  0  1.017526  0  0  0.11142  0.12663  0  1.02121  0
H  H15  1  0.34528866  0.57314213  0.34995126  1  0  0.124646  0  0.947529  0  0  0.129233  0  1.019579  0  0  0.13273  0  1.017465  0  0  0.111423  0.126639  0  1.021151  0
H  H16  1  0.36539923  0.81871743  0.22562660  1  0  0.105152  0  0.932092  0  0  0.112718  0  0.995326  0  0  0.115305  0  0.991777  0  0  0.136873  0.110374  0  0.998441  0
H  H17  1  0.86539692  0.68128318  0.27437402  1  0  0.105111  0  0.932153  0  0  0.11271  0  0.995348  0  0  0.115303  0  0.991792  0  0  0.13688  0.110367  0  0.998462  0
H  H18  1  0.63459998  0.18128309  0.77437429  1  0  0.10511  0  0.932157  0  0  0.112715  0  0.995353  0  0  0.115308  0  0.991796  0  0  0.136872  0.11037  0  0.998468  0
H  H19  1  0.13460667  0.31871924  0.72562707  1  0  0.105122  0  0.932128  0  0  0.11271  0  0.995345  0  0  0.115306  0  0.991784  0  0  0.136881  0.110367  0  0.99846  0
H  H20  1  0.98280912  0.27092492  0.86381000  1  0  0.117357  0  0.94029  0  0  0.122692  0  1.01079  0  0  0.125811  0  1.006787  0  0  0.146487  0.120324  0  1.013759  0
H  H21  1  0.48281346  0.22907343  0.63618855  1  0  0.117433  0  0.940262  0  0  0.122753  0  1.010779  0  0  0.125872  0  1.006777  0  0  0.14651  0.120384  0  1.01375  0
H  H22  1  0.01719156  0.72907465  0.13618867  1  0  0.117363  0  0.940282  0  0  0.122714  0  1.010762  0  0  0.125833  0  1.006759  0  0  0.146489  0.120345  0  1.013732  0
H  H23  1  0.51718283  0.77092614  0.36381065  1  0  0.117438  0  0.940299  0  0  0.122765  0  1.010801  0  0  0.125884  0  1.0068  0  0  0.1465  0.120397  0  1.01377  0
H  H24  1  0.33852117  0.57580508  0.95844159  1  0  0.109032  0  0.935114  0  0  0.112949  0  1.003249  0  0  0.116186  0  0.999158  0  0  0.139376  0.110482  0  1.006314  0
H  H25  1  0.83852462  0.92419440  0.54155711  1  0  0.109011  0  0.935098  0  0  0.11293  0  1.003231  0  0  0.116166  0  0.999142  0  0  0.139375  0.110462  0  1.006296  0
H  H26  1  0.66147804  0.42419354  0.04155646  1  0  0.109052  0  0.935089  0  0  0.112961  0  1.003229  0  0  0.116199  0  0.999139  0  0  0.139357  0.110494  0  1.006296  0
H  H27  1  0.16147897  0.07580519  0.45844528  1  0  0.109071  0  0.935069  0  0  0.112974  0  1.003211  0  0  0.116212  0  0.999119  0  0  0.139363  0.110506  0  1.006276  0
H  H28  1  0.30785898  0.23696174  0.06986024  1  0  0.142184  0  0.957578  0  0  0.147161  0  1.027206  0  0  0.151326  0  1.023429  0  0  0.119002  0.144044  0  1.030286  0
H  H29  1  0.80785786  0.26303636  0.43013941  1  0  0.142199  0  0.957636  0  0  0.147166  0  1.027268  0  0  0.151333  0  1.023486  0  0  0.119032  0.144056  0  1.030328  0
H  H30  1  0.69214315  0.76303689  0.93013940  1  0  0.142181  0  0.957569  0  0  0.147143  0  1.027214  0  0  0.151309  0  1.023433  0  0  0.119009  0.144029  0  1.030283  0
H  H31  1  0.19214136  0.73696322  0.56985979  1  0  0.142204  0  0.957653  0  0  0.147179  0  1.027273  0  0  0.151344  0  1.023495  0  0  0.119032  0.144062  0  1.03035  0
C  C32  1  0.36918150  0.08952008  0.17741122  1  0  0.223578  0  3.544173  0  0  0.144139  0  3.804721  0  0  0.172512  0  3.816927  0  0  0.189628  0.133398  0  3.79894  0
C  C33  1  0.86917759  0.41048004  0.32258814  1  0  0.223732  0  3.544079  0  0  0.144242  0  3.804674  0  0  0.17262  0  3.816882  0  0  0.189696  0.133505  0  3.798892  0
C  C34  1  0.63082063  0.91047949  0.82258851  1  0  0.223601  0  3.543956  0  0  0.14422  0  3.804492  0  0  0.172573  0  3.816692  0  0  0.189679  0.133482  0  3.798716  0
C  C35  1  0.13082162  0.58952143  0.67741231  1  0  0.223669  0  3.544022  0  0  0.144215  0  3.804564  0  0  0.172614  0  3.816778  0  0  0.18965  0.133476  0  3.798784  0
C  C36  1  0.13382515  0.82787643  0.86756998  1  0  0.626384  0  3.945851  0  0  0.579858  0  4.235303  0  0  0.613315  0  4.228901  0  0  0.196009  0.557351  0  4.238979  0
C  C37  1  0.63384393  0.67212544  0.63243147  1  0  0.626379  0  3.945685  0  0  0.57986  0  4.23513  0  0  0.613319  0  4.228726  0  0  0.195934  0.557349  0  4.238805  0
C  C38  1  0.86617261  0.17212409  0.13243038  1  0  0.626394  0  3.945807  0  0  0.579896  0  4.235218  0  0  0.613355  0  4.228814  0  0  0.196005  0.557388  0  4.238895  0
C  C39  1  0.36615237  0.32787319  0.36756976  1  0  0.626437  0  3.945646  0  0  0.579932  0  4.235067  0  0  0.613392  0  4.228659  0  0  0.195965  0.557421  0  4.238743  0
C  C40  1  0.23740317  0.92584320  0.99273896  1  0  -0.143726  0  3.706795  0  0  -0.182466  0  3.967323  0  0  -0.183821  0  3.983577  0  0  -0.082863  -0.181672  0  3.954621  0
C  C41  1  0.73740189  0.57415511  0.50726008  1  0  -0.143828  0  3.706893  0  0  -0.182584  0  3.967466  0  0  -0.183936  0  3.983714  0  0  -0.082886  -0.18179  0  3.954765  0
C  C42  1  0.76259605  0.07415542  0.00726068  1  0  -0.14377  0  3.706954  0  0  -0.1825  0  3.967508  0  0  -0.18385  0  3.983761  0  0  -0.082878  -0.181708  0  3.95481  0
C  C43  1  0.26259295  0.42584352  0.49274062  1  0  -0.1439  0  3.706977  0  0  -0.182637  0  3.967519  0  0  -0.183989  0  3.983764  0  0  -0.082915  -0.181844  0  3.954818  0
C  C44  1  0.19097034  0.94154007  0.92280595  1  0  -0.034176  0  3.778683  0  0  -0.007824  0  4.011981  0  0  -0.014739  0  4.035888  0  0  -0.016782  -0.003334  0  3.995627  0
C  C45  1  0.69097518  0.55846003  0.57719324  1  0  -0.034106  0  3.778606  0  0  -0.007748  0  4.011878  0  0  -0.014663  0  4.035785  0  0  -0.016755  -0.003255  0  3.995529  0
C  C46  1  0.80902888  0.05845950  0.07719325  1  0  -0.034207  0  3.778785  0  0  -0.007854  0  4.012078  0  0  -0.014769  0  4.035984  0  0  -0.016773  -0.003362  0  3.995727  0
C  C47  1  0.30902111  0.44153861  0.42280799  1  0  -0.034037  0  3.778566  0  0  -0.007692  0  4.011854  0  0  -0.014607  0  4.035761  0  0  -0.01674  -0.003199  0  3.995505  0
C  C48  1  0.23003001  0.16565152  0.95906148  1  0  0.186631  0  3.76763  0  0  0.165818  0  4.025946  0  0  0.169986  0  4.048029  0  0  0.102608  0.163212  0  4.011031  0
C  C49  1  0.73003157  0.33434722  0.54093746  1  0  0.18654  0  3.767667  0  0  0.165713  0  4.026019  0  0  0.169881  0  4.048102  0  0  0.102591  0.163105  0  4.011108  0
C  C50  1  0.76996920  0.83434805  0.04093878  1  0  0.186652  0  3.767588  0  0  0.165818  0  4.025934  0  0  0.169987  0  4.048015  0  0  0.102614  0.163212  0  4.011019  0
C  C51  1  0.26996618  0.66565141  0.45906165  1  0  0.186508  0  3.767691  0  0  0.165709  0  4.026022  0  0  0.169874  0  4.048111  0  0  0.102572  0.163105  0  4.011108  0
C  C52  1  0.18854031  0.06224138  0.90511640  1  0  -0.149584  0  3.692106  0  0  -0.191794  0  3.962234  0  0  -0.194041  0  3.982867  0  0  -0.083391  -0.189302  0  3.947412  0
C  C53  1  0.68854410  0.43775917  0.59488322  1  0  -0.149571  0  3.691973  0  0  -0.191779  0  3.962094  0  0  -0.194024  0  3.982728  0  0  -0.083384  -0.189287  0  3.947271  0
C  C54  1  0.81145744  0.93775914  0.09488396  1  0  -0.149516  0  3.691986  0  0  -0.191791  0  3.962138  0  0  -0.194032  0  3.982766  0  0  -0.083388  -0.189302  0  3.947316  0
C  C55  1  0.31145512  0.56223946  0.40511695  1  0  -0.14953  0  3.691937  0  0  -0.191799  0  3.962057  0  0  -0.194046  0  3.982695  0  0  -0.083377  -0.189307  0  3.947237  0
C  C56  1  0.27964769  0.03090542  0.04552251  1  0  0.178582  0  3.777354  0  0  0.162649  0  4.025469  0  0  0.177956  0  4.049029  0  0  0.102589  0.160114  0  4.010068  0
C  C57  1  0.77964181  0.46909450  0.45447624  1  0  0.178544  0  3.777512  0  0  0.162604  0  4.025607  0  0  0.177916  0  4.049167  0  0  0.102536  0.160067  0  4.010208  0
C  C58  1  0.72035736  0.96909415  0.95447616  1  0  0.178505  0  3.777535  0  0  0.162579  0  4.025641  0  0  0.177864  0  4.049205  0  0  0.102529  0.160042  0  4.010239  0
C  C59  1  0.22035594  0.53090602  0.54552412  1  0  0.178689  0  3.777479  0  0  0.162729  0  4.02558  0  0  0.178063  0  4.049137  0  0  0.1026  0.160192  0  4.010178  0
C  C60  1  0.35851800  0.89916695  0.19802722  1  0  0.225738  0  3.686844  0  0  0.17  0  3.976573  0  0  0.183059  0  3.984146  0  0  0.159025  0.16199  0  3.968988  0
C  C61  1  0.85851546  0.60083270  0.30197223  1  0  0.225804  0  3.686914  0  0  0.170035  0  3.976651  0  0  0.18309  0  3.984224  0  0  0.159025  0.162022  0  3.969067  0
C  C62  1  0.64148413  0.10083168  0.80197189  1  0  0.225808  0  3.68688  0  0  0.170033  0  3.976637  0  0  0.183086  0  3.984217  0  0  0.159019  0.162024  0  3.969052  0
C  C63  1  0.14148667  0.39916877  0.69802875  1  0  0.22581  0  3.686948  0  0  0.170041  0  3.976697  0  0  0.183094  0  3.984265  0  0  0.159022  0.162028  0  3.969116  0
C  C64  1  0.09310031  0.32901951  0.89500651  1  0  0.190791  0  3.600571  0  0  0.114675  0  3.855709  0  0  0.129889  0  3.865487  0  0  0.175017  0.105351  0  3.848767  0
C  C65  1  0.59310437  0.17097988  0.60499240  1  0  0.19069  0  3.600675  0  0  0.114578  0  3.855826  0  0  0.129794  0  3.865603  0  0  0.175008  0.105255  0  3.848881  0
C  C66  1  0.90689744  0.67098101  0.10499279  1  0  0.190847  0  3.600568  0  0  0.114701  0  3.855722  0  0  0.129918  0  3.865496  0  0  0.175021  0.105375  0  3.848779  0
C  C67  1  0.40689339  0.82901969  0.39500734  1  0  0.190626  0  3.600696  0  0  0.114514  0  3.855857  0  0  0.129727  0  3.865636  0  0  0.17499  0.105191  0  3.84891  0
C  C68  1  0.27289805  0.48265585  0.94576842  1  0  0.220397  0  3.668892  0  0  0.164773  0  3.958304  0  0  0.1765  0  3.970302  0  0  0.155342  0.15722  0  3.949587  0
C  C69  1  0.77290258  0.01734583  0.55423031  1  0  0.220252  0  3.668973  0  0  0.164635  0  3.958375  0  0  0.176361  0  3.970374  0  0  0.155252  0.157086  0  3.949652  0
C  C70  1  0.72710117  0.51734467  0.05423034  1  0  0.220243  0  3.669025  0  0  0.164633  0  3.958428  0  0  0.176358  0  3.970426  0  0  0.155299  0.157088  0  3.949712  0
C  C71  1  0.22710100  0.98265565  0.44577121  1  0  0.220283  0  3.668936  0  0  0.164699  0  3.958307  0  0  0.176424  0  3.970307  0  0  0.155337  0.157152  0  3.949586  0
C  C72  1  0.27792140  0.15286343  0.02964116  1  0  -0.189544  0  3.6366  0  0  -0.224081  0  3.902652  0  0  -0.227139  0  3.91661  0  0  -0.076378  -0.22231  0  3.89138  0
C  C73  1  0.77791795  0.34713649  0.47035811  1  0  -0.18943  0  3.63671  0  0  -0.223941  0  3.902738  0  0  -0.226999  0  3.916696  0  0  -0.076302  -0.222169  0  3.891468  0
C  C74  1  0.72208074  0.84713709  0.97035813  1  0  -0.18949  0  3.636654  0  0  -0.223987  0  3.902664  0  0  -0.227045  0  3.91663  0  0  -0.076315  -0.222216  0  3.891392  0
C  C75  1  0.22207980  0.65286403  0.52964171  1  0  -0.189442  0  3.636729  0  0  -0.223973  0  3.902756  0  0  -0.227033  0  3.916712  0  0  -0.076309  -0.222202  0  3.891483  0
N  N76  1  0.12613952  0.45163906  0.89617782  1  0  -0.400924  0  3.252868  0  0  -0.320012  0  3.556643  0  0  -0.34197  0  3.566162  0  0  -0.34575  -0.305321  0  3.549132  0
N  N77  1  0.62614301  0.04835946  0.60382102  1  0  -0.400945  0  3.252864  0  0  -0.320006  0  3.556602  0  0  -0.341961  0  3.566118  0  0  -0.345772  -0.305314  0  3.549087  0
N  N78  1  0.87386115  0.54836051  0.10382085  1  0  -0.400981  0  3.252904  0  0  -0.320042  0  3.556658  0  0  -0.341997  0  3.566172  0  0  -0.345747  -0.305351  0  3.549148  0
N  N79  1  0.37385767  0.95163917  0.39617968  1  0  -0.400929  0  3.252941  0  0  -0.319982  0  3.55665  0  0  -0.341937  0  3.566167  0  0  -0.345762  -0.305287  0  3.549133  0
N  N80  1  0.39560446  0.02182538  0.22958556  1  0  -0.399452  0  3.283626  0  0  -0.314972  0  3.593348  0  0  -0.337162  0  3.596759  0  0  -0.344146  -0.29994  0  3.587831  0
N  N81  1  0.89560496  0.47817575  0.27041393  1  0  -0.399509  0  3.283594  0  0  -0.315009  0  3.593351  0  0  -0.337194  0  3.596748  0  0  -0.344146  -0.29998  0  3.587834  0
N  N82  1  0.60439330  0.97817420  0.77041418  1  0  -0.399506  0  3.283536  0  0  -0.315065  0  3.593311  0  0  -0.337253  0  3.596724  0  0  -0.344169  -0.300038  0  3.587797  0
N  N83  1  0.10439571  0.52182572  0.72958653  1  0  -0.399538  0  3.283597  0  0  -0.315073  0  3.593384  0  0  -0.337253  0  3.596757  0  0  -0.344169  -0.300043  0  3.587867  0
N  N84  1  0.31952726  0.00887142  0.11639320  1  0  0.008843  0  3.555505  0  0  0.126718  0  3.73014  0  0  0.080485  0  3.797772  0  0  -0.11197  0.134524  0  3.713189  0
N  N85  1  0.81951966  0.49112765  0.38360549  1  0  0.008789  0  3.555584  0  0  0.126693  0  3.730222  0  0  0.080443  0  3.797867  0  0  -0.112026  0.134497  0  3.713273  0
N  N86  1  0.68047779  0.99112815  0.88360547  1  0  0.008924  0  3.555473  0  0  0.12673  0  3.730174  0  0  0.080552  0  3.797746  0  0  -0.112023  0.134534  0  3.713225  0
N  N87  1  0.18047955  0.50887382  0.61639496  1  0  0.008839  0  3.555591  0  0  0.12678  0  3.730161  0  0  0.080471  0  3.79787  0  0  -0.111965  0.134586  0  3.71321  0
N  N88  1  0.21602258  0.28885026  0.94216949  1  0  0.01998  0  3.580087  0  0  0.138459  0  3.753313  0  0  0.127975  0  3.776448  0  0  -0.110287  0.143662  0  3.740475  0
N  N89  1  0.71602657  0.21114846  0.55782997  1  0  0.019945  0  3.580175  0  0  0.138401  0  3.753463  0  0  0.127914  0  3.776604  0  0  -0.110345  0.143604  0  3.740628  0
N  N90  1  0.78397664  0.71114931  0.05782971  1  0  0.019883  0  3.580223  0  0  0.138368  0  3.753471  0  0  0.127875  0  3.776623  0  0  -0.110325  0.143573  0  3.740631  0
N  N91  1  0.28397118  0.78885017  0.44216967  1  0  0.019996  0  3.580082  0  0  0.13842  0  3.7534  0  0  0.127949  0  3.776513  0  0  -0.110327  0.143622  0  3.740562  0
N  N92  1  0.33080096  0.38610292  0.97525637  1  0  -0.24462  0  2.824232  0  0  -0.245107  0  3.088697  0  0  -0.253606  0  3.102127  0  0  -0.20791  -0.239063  0  3.079682  0
N  N93  1  0.83080433  0.11389888  0.52474348  1  0  -0.244366  0  2.824338  0  0  -0.244847  0  3.088787  0  0  -0.253345  0  3.102218  0  0  -0.207773  -0.238803  0  3.079769  0
N  N94  1  0.66919826  0.61389760  0.02474345  1  0  -0.244408  0  2.824357  0  0  -0.244905  0  3.088811  0  0  -0.253401  0  3.102243  0  0  -0.207825  -0.23887  0  3.079799  0
N  N95  1  0.16919634  0.88610070  0.47525732  1  0  -0.244483  0  2.824326  0  0  -0.244966  0  3.088785  0  0  -0.253468  0  3.102217  0  0  -0.207842  -0.238923  0  3.079769  0
N  N96  1  0.31118393  0.88721103  0.12935366  1  0  -0.262985  0  2.862632  0  0  -0.263501  0  3.134342  0  0  -0.261245  0  3.153999  0  0  -0.216593  -0.257596  0  3.124862  0
N  N97  1  0.81117743  0.61278757  0.37064512  1  0  -0.263031  0  2.862711  0  0  -0.263547  0  3.134406  0  0  -0.261289  0  3.154075  0  0  -0.216598  -0.257641  0  3.124926  0
N  N98  1  0.68881966  0.11278760  0.87064545  1  0  -0.263042  0  2.862643  0  0  -0.263527  0  3.134361  0  0  -0.261292  0  3.154018  0  0  -0.216576  -0.257621  0  3.124881  0
N  N99  1  0.18882471  0.38721390  0.62935587  1  0  -0.263069  0  2.862713  0  0  -0.263613  0  3.134427  0  0  -0.261335  0  3.154103  0  0  -0.21664  -0.257708  0  3.124948  0
N  N100  1  0.65052602  0.48575607  0.81063942  1  0  0.701288  0  4.125581  0  0  0.733097  0  4.415507  0  0  0.761998  0  4.420634  0  0  0.10542  0.713572  0  4.411664  0
N  N101  1  0.15052819  0.01424440  0.68935964  1  0  0.701411  0  4.125676  0  0  0.733237  0  4.415554  0  0  0.762139  0  4.42067  0  0  0.105456  0.713713  0  4.411706  0
N  N102  1  0.34947611  0.51424351  0.18935978  1  0  0.70145  0  4.125418  0  0  0.733223  0  4.415375  0  0  0.762124  0  4.420492  0  0  0.105441  0.713699  0  4.411532  0
N  N103  1  0.84946957  0.98575802  0.31064198  1  0  0.701591  0  4.125276  0  0  0.733413  0  4.415166  0  0  0.762313  0  4.420279  0  0  0.105471  0.71389  0  4.411321  0
O  O104  1  0.75919240  0.39335007  0.78514401  1  0  -0.485323  0  1.739771  0  0  -0.473426  0  1.952763  0  0  -0.489455  0  1.945979  0  0  -0.192611  -0.462265  0  1.957394  0
O  O105  1  0.25919513  0.10665252  0.71485427  1  0  -0.485384  0  1.739786  0  0  -0.473434  0  1.952689  0  0  -0.489473  0  1.945927  0  0  -0.192587  -0.462281  0  1.957333  0
O  O106  1  0.24080973  0.60665045  0.21485529  1  0  -0.485413  0  1.739607  0  0  -0.473492  0  1.952584  0  0  -0.489526  0  1.945809  0  0  -0.192633  -0.462328  0  1.957217  0
O  O107  1  0.74080555  0.89334989  0.28514522  1  0  -0.485481  0  1.739662  0  0  -0.473527  0  1.952574  0  0  -0.489563  0  1.945808  0  0  -0.192636  -0.462376  0  1.957222  0
O  O108  1  0.73473425  0.59127385  0.84148266  1  0  -0.510227  0  1.850076  0  0  -0.4756  0  2.110976  0  0  -0.495638  0  2.096207  0  0  -0.211569  -0.461564  0  2.120965  0
O  O109  1  0.23473809  0.90872730  0.65851826  1  0  -0.51026  0  1.850131  0  0  -0.475651  0  2.111029  0  0  -0.495688  0  2.096262  0  0  -0.211565  -0.461611  0  2.121014  0
O  O110  1  0.26526642  0.40872667  0.15851770  1  0  -0.510255  0  1.850138  0  0  -0.475625  0  2.111036  0  0  -0.495669  0  2.096287  0  0  -0.211579  -0.46159  0  2.121027  0
O  O111  1  0.76525821  0.09127606  0.34148345  1  0  -0.510273  0  1.850019  0  0  -0.475681  0  2.110942  0  0  -0.495728  0  2.096203  0  0  -0.211525  -0.461639  0  2.120924  0
O  O112  1  0.09005358  0.83941002  0.80488703  1  0  -0.589964  0  1.896486  0  0  -0.548962  0  2.114251  0  0  -0.571347  0  2.107086  0  0  -0.322104  -0.533929  0  2.118948  0
O  O113  1  0.59009451  0.66059366  0.69511670  1  0  -0.589961  0  1.896455  0  0  -0.548946  0  2.114183  0  0  -0.571331  0  2.107015  0  0  -0.322035  -0.53391  0  2.11888  0
O  O114  1  0.90994855  0.16058956  0.19511270  1  0  -0.589982  0  1.89646  0  0  -0.54899  0  2.114211  0  0  -0.571374  0  2.107045  0  0  -0.322113  -0.533956  0  2.118905  0
O  O115  1  0.40990325  0.33940497  0.30488453  1  0  -0.589979  0  1.89643  0  0  -0.549002  0  2.114194  0  0  -0.571386  0  2.107025  0  0  -0.322036  -0.533966  0  2.118892  0
O  O116  1  0.47071563  0.48063251  0.80797349  1  0  -0.398026  0  1.795393  0  0  -0.400402  0  2.014108  0  0  -0.412332  0  2.008684  0  0  -0.157202  -0.391643  0  2.017346  0
O  O117  1  0.97071943  0.01936771  0.69202577  1  0  -0.398103  0  1.795449  0  0  -0.400512  0  2.014185  0  0  -0.412439  0  2.008752  0  0  -0.157282  -0.391759  0  2.017432  0
O  O118  1  0.52928650  0.51936706  0.19202572  1  0  -0.398071  0  1.79538  0  0  -0.400421  0  2.014095  0  0  -0.412346  0  2.008668  0  0  -0.157197  -0.391662  0  2.017334  0
O  O119  1  0.02927978  0.98063567  0.30797860  1  0  -0.398105  0  1.795246  0  0  -0.400565  0  2.014026  0  0  -0.41249  0  2.008593  0  0  -0.157278  -0.391819  0  2.017282  0
O  O120  1  0.13046815  0.72338097  0.89339111  1  0  -0.651514  0  2.072513  0  0  -0.57248  0  2.345151  0  0  -0.601781  0  2.330122  0  0  -0.339755  -0.552219  0  2.354326  0
O  O121  1  0.63047270  0.77661995  0.60660812  1  0  -0.651542  0  2.07241  0  0  -0.572524  0  2.345065  0  0  -0.601826  0  2.330035  0  0  -0.339777  -0.552263  0  2.354248  0
O  O122  1  0.86952815  0.27661955  0.10660979  1  0  -0.651499  0  2.072488  0  0  -0.572481  0  2.345125  0  0  -0.601782  0  2.330096  0  0  -0.339764  -0.552214  0  2.354293  0
O  O123  1  0.36952506  0.22337963  0.39339374  1  0  -0.651577  0  2.072385  0  0  -0.572545  0  2.345008  0  0  -0.601844  0  2.329974  0  0  -0.339796  -0.552282  0  2.354188  0
