# generated using pymatgen
data_DyH9C14(NO5)2
_symmetry_space_group_name_H-M   'P 1'
_cell_length_a   9.11277294
_cell_length_b   9.20419078
_cell_length_c   9.54632402
_cell_angle_alpha   86.19818911
_cell_angle_beta   87.45029390
_cell_angle_gamma   86.68501848
_symmetry_Int_Tables_number   1
_chemical_formula_structural   DyH9C14(NO5)2
_chemical_formula_sum   'Dy2 H18 C28 N4 O20'
_cell_volume   796.94125473
_cell_formula_units_Z   2
loop_
 _symmetry_equiv_pos_site_id
 _symmetry_equiv_pos_as_xyz
  1  'x, y, z'
loop_
 _atom_site_type_symbol
 _atom_site_label
 _atom_site_symmetry_multiplicity
 _atom_site_fract_x
 _atom_site_fract_y
 _atom_site_fract_z
 _atom_site_occupancy
 _atom_site_pbe_bader_spin_density
 _atom_site_pbe_cm5_charge
 _atom_site_pbe_ddec_charge
 _atom_site_pbe_ddec_spin_density
 _atom_site_pbe_ddec_sum_bond_order
 _atom_site_pbe_magmom
Dy  Dy0  1  0.63514388  0.08866954  0.86059191  1  0  1.513256  1.966065  0  2.186272  0
Dy  Dy1  1  0.36485737  0.91132656  0.13940914  1  0  1.513239  1.966068  0  2.186237  0
H  H2  1  0.33139953  0.62573740  0.61224783  1  0  0.32541  0.398325  0  0.891681  0
H  H3  1  0.66860770  0.37426855  0.38775444  1  0  0.325464  0.398361  0  0.89155  0
H  H4  1  0.70450231  0.30348583  0.05923055  1  0  0.312632  0.39973  0  0.910869  0
H  H5  1  0.29549294  0.69651786  0.94076935  1  0  0.312603  0.399701  0  0.910903  0
H  H6  1  0.59975797  0.37429698  0.94855972  1  0  0.305886  0.401584  0  0.926614  0
H  H7  1  0.40024831  0.62570469  0.05143237  1  0  0.305848  0.401546  0  0.926688  0
H  H8  1  0.68344384  0.02897960  0.55787560  1  0  0.305715  0.406385  0  0.917494  0
H  H9  1  0.31655456  0.97102631  0.44212296  1  0  0.305742  0.40639  0  0.917452  0
H  H10  1  0.52690591  0.99345969  0.62180115  1  0  0.312234  0.399647  0  0.916782  0
H  H11  1  0.47309390  0.00654081  0.37819449  1  0  0.31222  0.39962  0  0.916812  0
H  H12  1  0.02487689  0.43694713  0.58258106  1  0  0.10922  0.114913  0  1.043537  0
H  H13  1  0.97512304  0.56305224  0.41741883  1  0  0.10922  0.114916  0  1.04356  0
H  H14  1  0.25351655  0.29934338  0.66611801  1  0  0.127431  0.143281  0  0.961616  0
H  H15  1  0.74648231  0.70065596  0.33388403  1  0  0.127436  0.143263  0  0.961663  0
H  H16  1  0.09313768  0.54191190  0.80612193  1  0  0.115558  0.11345  0  1.018653  0
H  H17  1  0.90686757  0.45808972  0.19387545  1  0  0.115546  0.113387  0  1.018654  0
H  H18  1  0.84044247  0.51471738  0.92428658  1  0  0.113095  0.131394  0  1.029995  0
H  H19  1  0.15955994  0.48527660  0.07570825  1  0  0.113086  0.131375  0  1.03  0
C  C20  1  0.73445634  0.34097416  0.63145903  1  0  0.209009  0.562733  0  4.244174  0
C  C21  1  0.26554243  0.65902732  0.36854709  1  0  0.208966  0.562679  0  4.244226  0
C  C22  1  0.88345752  0.27100100  0.67264877  1  0  0.12121  0.127589  0  3.966348  0
C  C23  1  0.11653899  0.72900051  0.32735223  1  0  0.121223  0.127664  0  3.966382  0
C  C24  1  0.01873066  0.33062383  0.63842622  1  0  -0.070065  -0.121914  0  3.918964  0
C  C25  1  0.98126944  0.66937334  0.36157588  1  0  -0.070091  -0.121961  0  3.919007  0
C  C26  1  0.14612194  0.25291700  0.68202801  1  0  -0.049449  -0.023646  0  3.862975  0
C  C27  1  0.85387921  0.74708125  0.31797607  1  0  -0.049456  -0.023665  0  3.863001  0
C  C28  1  0.13783052  0.11260068  0.74718096  1  0  0.002042  -0.088059  0  3.877048  0
C  C29  1  0.86216627  0.88739647  0.25282027  1  0  0.002043  -0.087998  0  3.876976  0
C  C30  1  0.99878663  0.05258766  0.76170591  1  0  0.14467  0.194016  0  3.913173  0
C  C31  1  0.00120886  0.94741275  0.23829626  1  0  0.144721  0.194187  0  3.913077  0
C  C32  1  0.96803016  0.89757017  0.80083089  1  0  0.154117  0.21137  0  3.881486  0
C  C33  1  0.03196627  0.10243244  0.19916901  1  0  0.154103  0.211378  0  3.881349  0
C  C34  1  0.06362562  0.77455471  0.77527777  1  0  0.003262  -0.097195  0  3.881726  0
C  C35  1  0.93637181  0.22544902  0.22471991  1  0  0.003281  -0.097219  0  3.881581  0
C  C36  1  0.01881957  0.63641587  0.82361290  1  0  -0.056402  -0.03973  0  3.921726  0
C  C37  1  0.98118459  0.36358677  0.17639077  1  0  -0.05637  -0.039616  0  3.921485  0
C  C38  1  0.88055821  0.62066241  0.88815082  1  0  -0.065397  -0.11068  0  3.892656  0
C  C39  1  0.11944847  0.37933482  0.11185092  1  0  -0.0654  -0.110643  0  3.892472  0
C  C40  1  0.78894365  0.74605499  0.89968184  1  0  0.12953  0.136938  0  3.948136  0
C  C41  1  0.21105661  0.25393894  0.10031729  1  0  0.129496  0.136928  0  3.947929  0
C  C42  1  0.63592693  0.73836367  0.96559393  1  0  0.228185  0.577725  0  4.180162  0
C  C43  1  0.36407110  0.26163027  0.03440218  1  0  0.228164  0.577598  0  4.180321  0
C  C44  1  0.27225061  0.04149997  0.81392460  1  0  0.225677  0.628693  0  4.189118  0
C  C45  1  0.72774632  0.95849396  0.18607157  1  0  0.225682  0.628687  0  4.189185  0
C  C46  1  0.19782483  0.77773576  0.67951999  1  0  0.241899  0.590433  0  4.113133  0
C  C47  1  0.80217045  0.22226791  0.32048200  1  0  0.241879  0.59036  0  4.113101  0
N  N48  1  0.87603911  0.13641916  0.73526326  1  0  -0.386194  -0.389439  0  3.521534  0
N  N49  1  0.12395527  0.86358125  0.26473792  1  0  -0.386167  -0.389567  0  3.521657  0
N  N50  1  0.83209153  0.87955716  0.85740009  1  0  -0.358255  -0.350737  0  3.484841  0
N  N51  1  0.16790540  0.12043781  0.14260125  1  0  -0.358245  -0.350806  0  3.484694  0
O  O52  1  0.73355147  0.44092456  0.53456970  1  0  -0.321985  -0.550017  0  2.127857  0
O  O53  1  0.26644828  0.55907910  0.46543834  1  0  -0.321957  -0.549995  0  2.127816  0
O  O54  1  0.62231631  0.28392297  0.69214749  1  0  -0.404016  -0.631765  0  2.279257  0
O  O55  1  0.37768360  0.71607746  0.30785654  1  0  -0.404013  -0.631744  0  2.279322  0
O  O56  1  0.55499488  0.85953416  0.95729584  1  0  -0.446112  -0.74391  0  2.456998  0
O  O57  1  0.44501078  0.14046195  0.04270707  1  0  -0.446169  -0.743889  0  2.456957  0
O  O58  1  0.59828531  0.62152243  0.02603650  1  0  -0.2776  -0.49091  0  2.151197  0
O  O59  1  0.40171650  0.37846287  0.97395361  1  0  -0.277523  -0.490801  0  2.151395  0
O  O60  1  0.39674718  0.08231973  0.76650999  1  0  -0.369668  -0.630715  0  2.306394  0
O  O61  1  0.60324961  0.91767742  0.23349124  1  0  -0.36966  -0.630672  0  2.306435  0
O  O62  1  0.25048564  0.95282252  0.91942190  1  0  -0.376397  -0.658739  0  2.369391  0
O  O63  1  0.74951441  0.04717469  0.08057601  1  0  -0.376421  -0.658805  0  2.369452  0
O  O64  1  0.21141558  0.86992301  0.58087921  1  0  -0.259582  -0.482408  0  2.220759  0
O  O65  1  0.78858284  0.13008289  0.41912144  1  0  -0.259537  -0.482343  0  2.220846  0
O  O66  1  0.29303954  0.66395506  0.70523310  1  0  -0.319321  -0.477684  0  2.267076  0
O  O67  1  0.70696284  0.33605743  0.29476592  1  0  -0.319395  -0.477702  0  2.266799  0
O  O68  1  0.69535076  0.31649812  0.95760808  1  0  -0.62171  -0.812256  0  2.126329  0
O  O69  1  0.30465154  0.68349803  0.04238872  1  0  -0.621653  -0.812214  0  2.126335  0
O  O70  1  0.63215605  0.97064847  0.63329098  1  0  -0.617885  -0.804469  0  2.001959  0
O  O71  1  0.36784450  0.02935854  0.36670950  1  0  -0.617905  -0.804469  0  2.001972  0
