# generated using pymatgen
data_CoH13C20N3O4
_symmetry_space_group_name_H-M   'P 1'
_cell_length_a   7.89515328
_cell_length_b   8.01623572
_cell_length_c   12.75259957
_cell_angle_alpha   85.62568031
_cell_angle_beta   74.39148448
_cell_angle_gamma   79.95297720
_symmetry_Int_Tables_number   1
_chemical_formula_structural   CoH13C20N3O4
_chemical_formula_sum   'Co2 H26 C40 N6 O8'
_cell_volume   765.05377691
_cell_formula_units_Z   2
loop_
 _symmetry_equiv_pos_site_id
 _symmetry_equiv_pos_as_xyz
  1  'x, y, z'
loop_
 _atom_site_type_symbol
 _atom_site_label
 _atom_site_symmetry_multiplicity
 _atom_site_fract_x
 _atom_site_fract_y
 _atom_site_fract_z
 _atom_site_occupancy
 _atom_site_hle17_ddec_charge
 _atom_site_hle17_ddec_spin_density
 _atom_site_hle17_ddec_sum_bond_order
 _atom_site_hle17_magmom
 _atom_site_hse06_10hf_ddec_charge
 _atom_site_hse06_10hf_ddec_spin_density
 _atom_site_hse06_10hf_ddec_sum_bond_order
 _atom_site_hse06_10hf_magmom
 _atom_site_hse06_ddec_charge
 _atom_site_hse06_ddec_spin_density
 _atom_site_hse06_ddec_sum_bond_order
 _atom_site_hse06_magmom
 _atom_site_pbe_cm5_charge
 _atom_site_pbe_ddec_charge
 _atom_site_pbe_ddec_spin_density
 _atom_site_pbe_ddec_sum_bond_order
 _atom_site_pbe_magmom
Co  Co0  1  0.64991409  0.49126208  0.81012269  1  0.689406  1.44326  2.396358  1.137  0.666338  1.150538  2.831235  0.994  0.725463  1.10411  2.762849  0.978  0.661731  0.633525  1.158081  2.870618  0.986
Co  Co1  1  0.35010644  0.50871523  0.18988418  1  0.689317  -1.443256  2.397036  -1.137  0.666151  -1.150545  2.832011  -0.994  0.725256  -1.104097  2.763607  -0.978  0.661729  0.633329  -1.158067  2.871446  -0.985
H  H2  1  0.56070373  0.68592760  0.96193163  1  0.32172  -3.6e-05  0.897877  0.0  0.305506  -7.4e-05  0.962935  0.0  0.313184  -8e-05  0.957234  0.0  0.302224  0.299928  -7.1e-05  0.967427  0.0
H  H3  1  0.43938455  0.31401938  0.03803940  1  0.321593  3.6e-05  0.897901  0.0  0.305415  7.4e-05  0.962913  0.0  0.31306  8e-05  0.957263  0.0  0.302072  0.299866  7.2e-05  0.967366  0.0
H  H4  1  0.70742738  0.52976451  0.98922866  1  0.319971  -0.000151  0.890266  0.0  0.305887  -0.000188  0.951298  0.0  0.313769  -6.6e-05  0.945728  0.0  0.298195  0.300023  -0.000273  0.955816  0.0
H  H5  1  0.29257345  0.47017279  0.01074498  1  0.320033  0.00015  0.890212  0.0  0.305947  0.000188  0.951217  0.0  0.313829  6.6e-05  0.945639  0.0  0.29818  0.300082  0.000273  0.955744  0.0
H  H6  1  0.14756068  0.05658779  0.84605759  1  0.109927  0.000399  0.954681  0.001  0.115655  0.000186  1.023626  0.0  0.118875  0.000122  1.02207  0.0  0.104925  0.113564  0.000259  1.024376  0.0
H  H7  1  0.85248981  0.94340851  0.15392472  1  0.109962  -0.000399  0.954741  -0.001  0.115796  -0.000186  1.023576  0.0  0.119023  -0.000122  1.022021  0.0  0.104994  0.113705  -0.000259  1.024338  0.0
H  H8  1  0.04405857  0.54336485  0.89609777  1  0.122109  0.000396  0.938879  0.0  0.130462  0.000138  1.003345  0.0  0.134434  7.3e-05  1.001009  0.0  0.109563  0.127585  0.000206  1.005011  0.0
H  H9  1  0.95594276  0.45666524  0.10388196  1  0.122154  -0.000396  0.938949  0.0  0.130527  -0.000138  1.003397  0.0  0.134492  -7.4e-05  1.00106  0.0  0.109621  0.127652  -0.000206  1.005055  0.0
H  H10  1  0.60688573  0.95830495  0.92734754  1  0.121902  0.000304  0.952916  0.001  0.128136  2.4e-05  1.022844  0.0  0.132185  9e-06  1.019784  0.0  0.111253  0.125287  4e-05  1.024901  0.0
H  H11  1  0.39311494  0.04167002  0.07268691  1  0.121887  -0.000304  0.953039  -0.001  0.128162  -2.4e-05  1.022924  0.0  0.132214  -9e-06  1.019857  0.0  0.111264  0.125316  -4e-05  1.024979  0.0
H  H12  1  0.46434287  0.18667175  0.81458481  1  0.105246  0.000365  0.926467  0.001  0.115156  -0.000173  0.984268  0.0  0.120682  -0.00011  0.977254  0.0  0.128253  0.110502  -0.0002  0.990245  0.0
H  H13  1  0.53575118  0.81323240  0.18540791  1  0.10497  -0.000364  0.926299  -0.001  0.114917  0.000173  0.984158  0.0  0.120449  0.00011  0.977147  0.0  0.128157  0.110268  0.0002  0.990142  0.0
H  H14  1  0.42741674  0.02264109  0.67036023  1  0.112597  -0.000258  0.964436  -0.001  0.121918  -3.4e-05  1.025102  0.0  0.126181  -3.1e-05  1.022936  0.0  0.107315  0.118564  -3.3e-05  1.027189  0.0
H  H15  1  0.57257724  0.97733962  0.32963499  1  0.112455  0.000257  0.964654  0.001  0.121756  3.5e-05  1.025334  0.0  0.126074  3.1e-05  1.023099  0.0  0.10727  0.118403  3.3e-05  1.027428  0.0
H  H16  1  0.55424099  0.10702199  0.47095366  1  0.094146  0.000394  0.970173  0.001  0.108228  -0.000122  1.029367  0.0  0.110519  -4.3e-05  1.02727  0.0  0.105692  0.106497  -0.000192  1.031096  0.0
H  H17  1  0.44568220  0.89301893  0.52903632  1  0.094111  -0.000393  0.970227  -0.001  0.108173  0.000122  1.02947  0.0  0.110465  4.3e-05  1.027357  0.0  0.105674  0.10639  0.000192  1.031272  0.0
H  H18  1  0.72614746  0.31526827  0.33622032  1  0.104708  -0.000106  0.957749  0.0  0.117154  1.7e-05  1.016432  0.0  0.120554  1.2e-05  1.015893  0.0  0.10565  0.114285  2.2e-05  1.01727  0.0
H  H19  1  0.27379409  0.68477696  0.66379320  1  0.104579  0.000106  0.95761  0.0  0.117073  -1.7e-05  1.016294  0.0  0.120482  -1.2e-05  1.015762  0.0  0.105537  0.114202  -2.2e-05  1.01712  0.0
H  H20  1  0.86893458  0.57266716  0.30890732  1  0.125972  0.000165  0.953132  0.0  0.137067  0.000126  1.013078  0.0  0.142583  0.000117  1.009569  0.0  0.111083  0.132585  0.000132  1.016137  0.0
H  H21  1  0.13104434  0.42736281  0.69107911  1  0.126034  -0.000165  0.953084  0.0  0.137027  -0.000126  1.013146  0.0  0.14254  -0.000117  1.009643  0.0  0.111136  0.132544  -0.000132  1.016226  0.0
H  H22  1  0.94058694  0.82405023  0.39220435  1  0.111739  0.000813  0.933802  0.002  0.123894  -7.5e-05  0.991974  0.0  0.128801  9e-06  0.986948  0.0  0.10947  0.119935  -0.000165  0.996138  0.0
H  H23  1  0.05931995  0.17599847  0.60780821  1  0.111727  -0.000815  0.93344  -0.002  0.123856  7.5e-05  0.991686  0.0  0.128788  -9e-06  0.986625  0.0  0.109407  0.119893  0.000165  0.995842  0.0
H  H24  1  0.91384402  0.97109234  0.56743213  1  0.095423  -0.00022  0.980638  -0.001  0.107873  3.4e-05  1.03796  0.0  0.110208  2.8e-05  1.037927  0.0  0.104345  0.10623  5.1e-05  1.038278  0.0
H  H25  1  0.08606908  0.02895130  0.43257735  1  0.095414  0.00022  0.980701  0.001  0.107841  -3.4e-05  1.038049  0.0  0.110175  -2.8e-05  1.038016  0.0  0.104293  0.106207  -5.1e-05  1.038345  0.0
H  H26  1  0.78006202  0.84518156  0.74398244  1  0.073943  0.000373  1.006819  0.001  0.08535  -0.000133  1.066042  0.0  0.08804  -4.4e-05  1.063746  0.0  0.114817  0.083021  -0.000188  1.068313  0.0
H  H27  1  0.21986668  0.15484177  0.25601699  1  0.073771  -0.000373  1.006832  -0.001  0.085421  0.000132  1.06571  0.0  0.088126  4.4e-05  1.063423  0.0  0.114898  0.083086  0.000188  1.067992  0.0
C  C28  1  0.87028113  0.02855402  0.88724184  1  -0.048948  0.004499  3.78139  0.005  -0.024363  0.00031  4.0188  0.0  -0.032526  0.000403  4.044976  0.0  -0.016974  -0.018963  0.0003  4.000842  0.0
C  C29  1  0.12974311  0.97145270  0.11277703  1  -0.049533  -0.004497  3.782097  -0.005  -0.024967  -0.00031  4.019678  0.0  -0.033135  -0.000403  4.045871  0.0  -0.017074  -0.019521  -0.0003  4.001663  0.0
C  C30  1  0.05271304  0.96818403  0.86687008  1  -0.085305  -0.010327  3.723637  -0.011  -0.12759  -0.000853  3.978134  -0.001  -0.130914  -0.000739  4.004553  -0.001  -0.08363  -0.124705  -0.000621  3.959414  -0.001
C  C31  1  0.94731850  0.03183410  0.13314234  1  -0.085216  0.010324  3.723794  0.011  -0.127671  0.000851  3.978283  0.001  -0.131009  0.000737  4.004718  0.001  -0.083701  -0.1248  0.000619  3.959554  0.001
C  C32  1  0.11551093  0.79468868  0.87407299  1  -0.056971  0.008853  3.765481  0.011  -0.032743  0.002875  4.006634  0.004  -0.040626  0.002242  4.03248  0.003  -0.020694  -0.027407  0.003591  3.988901  0.005
C  C33  1  0.88451791  0.20533290  0.12591536  1  -0.056812  -0.008857  3.764579  -0.011  -0.032419  -0.002878  4.005482  -0.004  -0.040293  -0.002245  4.031321  -0.003  -0.02055  -0.027085  -0.003594  3.987754  -0.005
C  C34  1  0.99485945  0.67924658  0.89649512  1  -0.140985  -0.009462  3.633249  -0.01  -0.179425  -0.001524  3.891051  -0.002  -0.182259  -0.001321  3.911014  -0.002  -0.080291  -0.1773  -0.001481  3.877359  -0.002
C  C35  1  0.00517110  0.32077595  0.10346861  1  -0.141213  0.009462  3.632848  0.01  -0.179606  0.001522  3.890661  0.002  -0.18244  0.001319  3.910639  0.002  -0.080436  -0.177467  0.00148  3.876938  0.002
C  C36  1  0.81181251  0.73856846  0.91553402  1  0.265601  0.004043  3.732725  0.006  0.269843  0.000891  3.988702  0.001  0.27592  0.000985  4.012514  0.001  0.090105  0.265988  0.000673  3.972455  0.001
C  C37  1  0.18822193  0.26142258  0.08444562  1  0.265726  -0.004045  3.732632  -0.006  0.269713  -0.00089  3.988998  -0.001  0.275787  -0.000985  4.012809  -0.001  0.090103  0.265864  -0.000673  3.972751  -0.001
C  C38  1  0.74912718  0.91355135  0.91447498  1  -0.147967  -0.010025  3.643899  -0.011  -0.1848  -0.001414  3.898752  -0.001  -0.187811  -0.001214  3.917618  -0.001  -0.080311  -0.182209  -0.001199  3.885351  -0.001
C  C39  1  0.25089275  0.08644492  0.08552630  1  -0.147614  0.010022  3.644374  0.011  -0.184474  0.001412  3.899397  0.001  -0.187489  0.001213  3.918282  0.001  -0.080285  -0.181898  0.001199  3.885977  0.001
C  C40  1  0.31483954  0.73903605  0.85395650  1  0.612927  -0.002551  3.946652  -0.005  0.566874  -9.7e-05  4.252398  -0.002  0.602107  -0.000202  4.245982  -0.001  0.194015  0.542552  0.000226  4.255009  -0.002
C  C41  1  0.68515800  0.26096770  0.14604950  1  0.612769  0.002555  3.946081  0.005  0.566777  9.9e-05  4.251667  0.002  0.602011  0.000205  4.245248  0.001  0.194042  0.542457  -0.000224  4.254277  0.002
C  C42  1  0.81189014  0.21335887  0.86819329  1  0.607292  -0.002442  3.881207  -0.004  0.563051  -0.000187  4.176996  -0.001  0.598447  -0.000153  4.174905  -0.001  0.201514  0.538382  -0.000242  4.177659  -0.002
C  C43  1  0.18813101  0.78661352  0.13182471  1  0.607546  0.002445  3.880234  0.004  0.563312  0.000188  4.176036  0.001  0.598714  0.000152  4.173932  0.001  0.201526  0.538628  0.000243  4.176705  0.002
C  C44  1  0.51619801  0.22298360  0.72959997  1  0.145453  -0.021381  3.605472  -0.024  0.116342  -0.006883  3.856959  -0.008  0.134727  -0.004457  3.859176  -0.005  0.056352  0.102954  -0.008199  3.858126  -0.009
C  C45  1  0.48379749  0.77701638  0.27040969  1  0.145795  0.021355  3.604977  0.024  0.11651  0.006877  3.856573  0.008  0.134857  0.004454  3.858829  0.005  0.056355  0.10313  0.008188  3.85774  0.009
C  C46  1  0.49620277  0.13147850  0.64555266  1  -0.115887  0.007317  3.736053  0.01  -0.129938  0.000718  3.992332  0.002  -0.136271  0.001055  4.004964  0.002  -0.083812  -0.126531  4.8e-05  3.985721  0.001
C  C47  1  0.50375091  0.86856020  0.35443888  1  -0.115865  -0.007304  3.736071  -0.01  -0.129911  -0.000716  3.992435  -0.002  -0.136277  -0.001054  4.005039  -0.002  -0.083818  -0.126512  -4.6e-05  3.985819  -0.001
C  C48  1  0.56685073  0.17687710  0.53753176  1  -0.070777  -0.023716  3.718623  -0.026  -0.096722  -0.007297  3.968841  -0.008  -0.089835  -0.004096  3.983219  -0.005  -0.075368  -0.101676  -0.009328  3.959771  -0.01
C  C49  1  0.43311337  0.82313132  0.46246754  1  -0.070591  0.023704  3.718697  0.026  -0.096591  0.007298  3.968809  0.008  -0.089704  0.004097  3.983192  0.005  -0.07526  -0.101507  0.009323  3.959769  0.01
C  C50  1  0.65552468  0.31839265  0.51320412  1  0.028171  0.003378  3.824307  0.005  0.043377  0.000359  4.055912  0.001  0.039823  0.000486  4.07838  0.001  -0.002881  0.045567  -0.000131  4.041049  0.001
C  C51  1  0.34447269  0.68162753  0.48679636  1  0.027999  -0.003382  3.824602  -0.005  0.043438  -0.000359  4.055946  -0.001  0.039889  -0.000487  4.07841  -0.001  -0.0029  0.04563  0.000131  4.041069  -0.001
C  C52  1  0.66730884  0.40479023  0.60262340  1  0.115558  -0.010279  3.792635  -0.011  0.111355  -0.004096  4.028755  -0.004  0.118235  -0.002302  4.046773  -0.003  0.110579  0.106749  -0.004793  4.017212  -0.005
C  C53  1  0.33268780  0.59521214  0.39737498  1  0.115923  0.010298  3.792482  0.011  0.1115  0.004104  4.028656  0.004  0.118379  0.002306  4.04666  0.003  0.110746  0.106893  0.0048  4.017115  0.005
C  C54  1  0.74261827  0.55445714  0.58762214  1  0.109606  -0.014255  3.761485  -0.016  0.10394  -0.004313  3.9992  -0.005  0.110687  -0.00227  4.015808  -0.003  0.106543  0.099628  -0.004712  3.988371  -0.005
C  C55  1  0.25738984  0.44551625  0.41238534  1  0.109527  0.014286  3.761454  0.016  0.103824  0.004326  3.999183  0.005  0.110588  0.002277  4.015765  0.003  0.106516  0.099504  0.004723  3.988366  0.005
C  C56  1  0.73197016  0.38232479  0.40600564  1  -0.096591  0.003307  3.711299  0.003  -0.119128  0.000527  3.967006  0.0  -0.121924  0.00032  3.987979  0.0  -0.084791  -0.117575  0.000277  3.954021  0.0
C  C57  1  0.26799768  0.61769896  0.59399776  1  -0.096641  -0.003309  3.711611  -0.003  -0.119255  -0.000529  3.967224  0.0  -0.122073  -0.000321  3.988223  0.0  -0.084756  -0.117685  -0.000278  3.954217  0.0
C  C58  1  0.81014825  0.52499905  0.39058154  1  -0.089195  -0.000889  3.682882  -0.002  -0.115229  0.000245  3.939036  0.0  -0.118653  0.000288  3.959948  0.0  -0.080025  -0.113233  5.6e-05  3.926131  0.0
C  C59  1  0.18982621  0.47504753  0.60941492  1  -0.089157  0.000887  3.683221  0.002  -0.115178  -0.000245  3.939417  0.0  -0.118604  -0.000288  3.960344  0.0  -0.080148  -0.113192  -5.6e-05  3.926501  0.0
C  C60  1  0.81496070  0.61774121  0.48145580  1  0.032792  0.008119  3.802969  0.012  0.050894  0.001106  4.031076  0.002  0.04692  0.000844  4.05323  0.001  -0.000233  0.053331  0.000695  4.016557  0.002
C  C61  1  0.18501823  0.38227241  0.51854245  1  0.032659  -0.008128  3.803417  -0.012  0.050842  -0.001108  4.031441  -0.002  0.046861  -0.000847  4.053588  -0.001  -0.000331  0.053281  -0.000696  4.016921  -0.002
C  C62  1  0.88302006  0.77117739  0.47272818  1  -0.06634  -0.035117  3.68505  -0.039  -0.093208  -0.009178  3.939453  -0.01  -0.082172  -0.004477  3.946485  -0.005  -0.075513  -0.101303  -0.012003  3.93603  -0.013
C  C63  1  0.11696463  0.22886297  0.52727012  1  -0.066194  0.035145  3.684844  0.039  -0.093109  0.009196  3.93921  0.01  -0.082072  0.004486  3.946254  0.005  -0.075346  -0.101203  0.012014  3.935791  0.013
C  C64  1  0.86947248  0.85007459  0.56825689  1  -0.129339  0.012835  3.777472  0.017  -0.141025  0.001279  4.029358  0.003  -0.148525  0.001294  4.044303  0.002  -0.091323  -0.136683  0.00052  4.020609  0.002
C  C65  1  0.13046902  0.14995017  0.43174514  1  -0.129398  -0.012838  3.777563  -0.017  -0.141102  -0.001281  4.029498  -0.003  -0.148605  -0.001296  4.044448  -0.002  -0.091258  -0.136756  -0.00052  4.020741  -0.002
C  C66  1  0.79365704  0.77926517  0.67036610  1  0.137767  -0.030067  3.670339  -0.034  0.109853  -0.008262  3.921811  -0.009  0.126864  -0.004581  3.927477  -0.005  0.047605  0.097785  -0.010068  3.919834  -0.011
C  C67  1  0.20634470  0.22071337  0.32965073  1  0.137908  0.030059  3.670077  0.034  0.109922  0.008268  3.921364  0.009  0.126892  0.004586  3.927044  0.005  0.047498  0.097858  0.010067  3.919373  0.011
N  N68  1  0.68755464  0.62222848  0.93039497  1  -0.587474  -0.02005  3.15881  -0.029  -0.57056  -0.007735  3.417352  -0.012  -0.600779  -0.007072  3.415312  -0.012  -0.59846  -0.551981  -0.006932  3.419902  -0.011
N  N69  1  0.31252093  0.37772993  0.06958532  1  -0.587349  0.020044  3.158395  0.029  -0.570548  0.007731  3.417248  0.012  -0.60073  0.007067  3.415252  0.012  -0.59823  -0.552003  0.006928  3.419748  0.011
N  N70  1  0.60304439  0.35633023  0.70878946  1  -0.262867  -0.009913  3.380259  -0.011  -0.219367  -0.007331  3.663183  -0.01  -0.241963  -0.005253  3.676004  -0.008  -0.338676  -0.20704  -0.008084  3.655455  -0.011
N  N71  1  0.39694985  0.64364690  0.29122237  1  -0.263063  0.009926  3.380301  0.011  -0.219308  0.007333  3.663093  0.01  -0.241888  0.005252  3.675915  0.008  -0.338762  -0.206988  0.008082  3.655354  0.011
N  N72  1  0.73298693  0.63131719  0.68239165  1  -0.274073  0.000721  3.320595  0.003  -0.232495  -0.000591  3.615012  -0.002  -0.250255  0.001082  3.619386  -0.001  -0.328989  -0.222876  -0.001078  3.612027  -0.003
N  N73  1  0.26710351  0.36863651  0.31760536  1  -0.274075  -0.000715  3.320078  -0.003  -0.232452  0.000595  3.614504  0.002  -0.250173  -0.00108  3.618837  0.001  -0.328965  -0.222821  0.001083  3.611497  0.003
O  O74  1  0.64733878  0.28125185  0.90836538  1  -0.566104  -0.006002  2.075266  -0.011  -0.523231  -0.000972  2.332764  -0.004  -0.562935  -0.002808  2.328959  -0.007  -0.298438  -0.495957  0.001332  2.334449  0.0
O  O75  1  0.35269524  0.71868507  0.09165007  1  -0.566216  0.006001  2.074826  0.011  -0.523274  0.000971  2.332231  0.004  -0.563  0.002805  2.32844  0.007  -0.298358  -0.495991  -0.001331  2.333913  0.0
O  O76  1  0.92026226  0.30028655  0.80656460  1  -0.589638  0.02912  1.936217  0.042  -0.55677  0.027189  2.179248  0.041  -0.590884  0.020916  2.174202  0.032  -0.302421  -0.530267  0.034144  2.180411  0.051
O  O77  1  0.07976369  0.69968196  0.19344500  1  -0.589678  -0.029108  1.93618  -0.042  -0.556855  -0.027184  2.179279  -0.041  -0.590955  -0.020913  2.174212  -0.032  -0.302514  -0.530355  -0.034136  2.180447  -0.051
O  O78  1  0.41356188  0.85013315  0.82628186  1  -0.615873  -0.000473  1.950272  0.0  -0.577937  -0.000271  2.192508  0.0  -0.605597  -0.000437  2.187174  0.0  -0.321251  -0.557139  8.5e-05  2.194739  0.001
O  O79  1  0.58642835  0.14987554  0.17371878  1  -0.615839  0.000476  1.950309  0.0  -0.577955  0.000273  2.192574  0.0  -0.605622  0.000439  2.187246  0.0  -0.321276  -0.557158  -8.2e-05  2.194812  -0.001
O  O80  1  0.36910249  0.57850724  0.86639982  1  -0.619604  0.043889  2.04935  0.067  -0.579456  0.030613  2.310932  0.049  -0.615112  0.023306  2.303251  0.038  -0.31709  -0.551471  0.03859  2.312525  0.061
O  O81  1  0.63087872  0.42151190  0.13362837  1  -0.619444  -0.043936  2.049031  -0.067  -0.57939  -0.030641  2.310714  -0.049  -0.615052  -0.023325  2.30303  -0.038  -0.317106  -0.551397  -0.038625  2.312301  -0.061
