# generated using pymatgen
data_CuH8C14N2O5
_symmetry_space_group_name_H-M   'P 1'
_cell_length_a   13.62092667
_cell_length_b   13.95092542
_cell_length_c   13.46246141
_cell_angle_alpha   110.44226227
_cell_angle_beta   89.94400293
_cell_angle_gamma   90.03986055
_symmetry_Int_Tables_number   1
_chemical_formula_structural   CuH8C14N2O5
_chemical_formula_sum   'Cu4 H32 C56 N8 O20'
_cell_volume   2397.09313446
_cell_formula_units_Z   4
loop_
 _symmetry_equiv_pos_site_id
 _symmetry_equiv_pos_as_xyz
  1  'x, y, z'
loop_
 _atom_site_type_symbol
 _atom_site_label
 _atom_site_symmetry_multiplicity
 _atom_site_fract_x
 _atom_site_fract_y
 _atom_site_fract_z
 _atom_site_occupancy
 _atom_site_pbe_bader_charge
 _atom_site_pbe_bader_spin_density
 _atom_site_pbe_cm5_charge
 _atom_site_pbe_ddec_charge
 _atom_site_pbe_ddec_spin_density
 _atom_site_pbe_ddec_sum_bond_order
 _atom_site_pbe_magmom
Cu  Cu0  1  0.54643784  0.41384905  0.95592136  1  1.076158  0.550793  0.686309  0.769061  0.703322  2.394268  0.548
Cu  Cu1  1  0.04620311  0.58569819  0.54373453  1  1.082498  0.581793  0.689817  0.774811  0.746277  2.394975  0.582
Cu  Cu2  1  0.45350695  0.58618760  0.04408854  1  1.075952  -0.548686  0.685743  0.767933  -0.733004  2.39472  -0.546
Cu  Cu3  1  0.95384004  0.41430397  0.45629544  1  1.082294  0.582802  0.689832  0.774682  0.747495  2.39471  0.583
H  H4  1  0.25424868  0.70030558  0.08290764  1  0.115848  6.8e-05  0.124796  0.099513  4e-05  0.971986  0.0
H  H5  1  0.75422211  0.29985195  0.41763915  1  0.11811  -7.8e-05  0.125101  0.100332  -4.1e-05  0.971773  0.0
H  H6  1  0.74572689  0.29967579  0.91716604  1  0.115965  -6.9e-05  0.124735  0.099427  -4.3e-05  0.972014  0.0
H  H7  1  0.24578285  0.70013030  0.58239175  1  0.11746  -7.8e-05  0.124991  0.100313  -4.2e-05  0.971687  0.0
H  H8  1  0.18980355  0.88169164  0.15082316  1  0.114769  2.4e-05  0.11242  0.118737  9e-06  0.995052  0.0
H  H9  1  0.68986854  0.11854030  0.34939220  1  0.117099  -2.7e-05  0.112278  0.118902  -1.1e-05  0.995635  0.0
H  H10  1  0.81017130  0.11829438  0.84922844  1  0.115563  -2.8e-05  0.112468  0.118921  -1.2e-05  0.995129  0.0
H  H11  1  0.31014377  0.88143973  0.65060744  1  0.116971  -3e-05  0.112316  0.118969  -1.2e-05  0.99541  0.0
H  H12  1  0.48959656  0.98181144  0.22950548  1  0.090439  3e-05  0.110363  0.115606  1.3e-05  1.006171  0.0
H  H13  1  0.98968183  0.01856315  0.27044551  1  0.091682  -2.8e-05  0.110006  0.115096  -1.1e-05  1.0065  0.0
H  H14  1  0.51039154  0.01818395  0.77047302  1  0.090473  -2.5e-05  0.110457  0.115697  -1.1e-05  1.006304  0.0
H  H15  1  0.01033564  0.98143532  0.72953112  1  0.092457  -3.4e-05  0.109987  0.11503  -1.4e-05  1.006668  0.0
H  H16  1  0.53915519  0.79935593  0.16346866  1  0.123166  5.5e-05  0.121401  0.101155  2.5e-05  1.005131  0.0
H  H17  1  0.03921426  0.20097392  0.33690931  1  0.122248  -7.2e-05  0.120982  0.100579  -1.7e-05  1.006041  0.0
H  H18  1  0.46082997  0.20064245  0.83653916  1  0.123114  -5.6e-05  0.121357  0.101114  -2.7e-05  1.005091  0.0
H  H19  1  0.96080907  0.79902906  0.66309794  1  0.122104  -7.2e-05  0.121054  0.100674  -1.7e-05  1.005811  0.0
H  H20  1  0.44962844  0.24242698  0.13406908  1  0.081214  0.000338  0.108635  0.123943  0.000287  1.001367  0.0
H  H21  1  0.94966860  0.75771463  0.36572257  1  0.079735  0.000429  0.108343  0.123386  0.000327  1.001458  0.0
H  H22  1  0.55027087  0.75754946  0.86582828  1  0.080532  -0.00032  0.10866  0.123845  -0.000294  1.001573  0.0
H  H23  1  0.05034964  0.24229015  0.63417689  1  0.079286  0.00043  0.108372  0.123292  0.000327  1.001609  0.0
H  H24  1  0.28531826  0.51743616  0.28656747  1  0.141203  -2.5e-05  0.11374  0.129515  -0.000102  0.987031  0.0
H  H25  1  0.78559682  0.48244699  0.21391920  1  0.1397  0.000538  0.11349  0.129366  0.000421  0.986949  0.0
H  H26  1  0.71464929  0.48258062  0.71342701  1  0.140459  0.000581  0.11376  0.129477  0.000431  0.986819  0.0
H  H27  1  0.21447644  0.51753006  0.78605109  1  0.139969  0.000223  0.113353  0.129294  0.000155  0.986977  0.0
H  H28  1  0.21445728  0.24264353  0.34968358  1  0.139971  0.000191  0.111501  0.131528  0.000115  1.023162  0.0
H  H29  1  0.71367651  0.75725038  0.15129679  1  0.133718  -1.7e-05  0.111222  0.131234  -5.2e-05  1.023071  0.0
H  H30  1  0.78558439  0.75739986  0.65039409  1  0.139964  0.000194  0.111449  0.131448  0.000116  1.023109  0.0
H  H31  1  0.28628662  0.24273038  0.84871280  1  0.134796  -4e-06  0.111234  0.131107  3.5e-05  1.023252  0.0
H  H32  1  0.41965273  0.10000062  0.18196688  1  0.455523  5.4e-05  0.323141  0.273898  2.8e-05  0.936621  0.0
H  H33  1  0.91922375  0.89998979  0.31829120  1  0.440001  3.6e-05  0.323158  0.27337  1.3e-05  0.937127  0.0
H  H34  1  0.58031336  0.90000017  0.81799577  1  0.454934  5.4e-05  0.323124  0.2739  3.7e-05  0.936628  0.0
H  H35  1  0.08082531  0.09997206  0.68163048  1  0.439737  -4.3e-05  0.323207  0.273473  -3.5e-05  0.936902  0.0
C  C36  1  0.30307772  0.76565400  0.11691790  1  0.486185  0.000652  0.054363  0.100342  0.000433  3.944233  0.0
C  C37  1  0.80314791  0.23460892  0.38349256  1  0.478817  -0.000671  0.053912  0.099291  -0.000475  3.944483  0.0
C  C38  1  0.69690227  0.23433740  0.88312749  1  0.484957  -0.00064  0.054308  0.100412  -0.000444  3.944832  0.0
C  C39  1  0.19687393  0.76538252  0.61654020  1  0.479609  -0.000673  0.053896  0.099261  -0.000477  3.944917  0.0
C  C40  1  0.26778225  0.86544838  0.15329146  1  -0.0251  -0.00017  -0.077116  -0.145482  -0.000124  3.958809  0.0
C  C41  1  0.76787264  0.13477559  0.34692999  1  -0.025422  0.000196  -0.077585  -0.146586  0.00013  3.959157  0.0
C  C42  1  0.73219923  0.13454690  0.84673232  1  -0.024684  0.000146  -0.077099  -0.145756  0.000101  3.959659  0.0
C  C43  1  0.23214554  0.86521356  0.65309451  1  -0.024891  0.000198  -0.077607  -0.146766  0.000132  3.959476  0.0
C  C44  1  0.33418560  0.94641429  0.19315979  1  -0.077618  0.000631  -0.000104  0.004156  0.000401  4.0009  0.0
C  C45  1  0.83420481  0.05375789  0.30691290  1  -0.075952  -0.000643  0.000332  0.004684  -0.000427  4.000155  0.0
C  C46  1  0.66579295  0.05358488  0.80683718  1  -0.078139  -0.000613  -0.000213  0.003947  -0.000406  4.001723  0.0
C  C47  1  0.16581412  0.94623671  0.69307941  1  -0.076082  -0.000649  0.000332  0.004917  -0.000429  3.999823  0.0
C  C48  1  0.43383008  0.92305823  0.19658995  1  -0.097116  -0.000189  -0.085358  -0.173585  -0.000135  3.96847  0.0
C  C49  1  0.93385449  0.07718169  0.30343915  1  -0.09381  0.000228  -0.084905  -0.172503  0.000151  3.968915  0.0
C  C50  1  0.56614921  0.07693560  0.80339988  1  -0.097618  0.000178  -0.085446  -0.173591  0.000122  3.968692  0.0
C  C51  1  0.06615857  0.92281060  0.69655307  1  -0.094525  0.00022  -0.084896  -0.172438  0.000145  3.968475  0.0
C  C52  1  0.46254649  0.82068154  0.16022225  1  0.588468  0.00063  0.054382  0.112426  0.000407  3.917733  0.0
C  C53  1  0.96257827  0.17959088  0.34004809  1  0.585501  -0.000657  0.054433  0.112538  -0.000451  3.918066  0.0
C  C54  1  0.53743940  0.17931075  0.83977369  1  0.588137  -0.00062  0.054363  0.112406  -0.00042  3.917623  0.0
C  C55  1  0.03744212  0.82039984  0.65996583  1  0.586437  -0.000662  0.054269  0.112371  -0.000454  3.917804  0.0
C  C56  1  0.29319934  0.05306054  0.23178969  1  1.424306  -3.1e-05  0.241448  0.474858  -3.4e-05  4.122072  0.0
C  C57  1  0.79308427  0.94708900  0.26835358  1  1.424292  5.1e-05  0.241728  0.475117  4.8e-05  4.122188  0.0
C  C58  1  0.70678362  0.94694858  0.76820793  1  1.424652  -3.4e-05  0.241572  0.474968  -2.3e-05  4.122241  0.0
C  C59  1  0.20693760  0.05289876  0.73161916  1  1.424038  2.8e-05  0.241576  0.47485  3.2e-05  4.122561  0.0
C  C60  1  0.33613713  0.23047319  0.24289596  1  0.282024  -9.2e-05  0.093399  0.241962  -0.000173  4.056933  0.0
C  C61  1  0.83575290  0.76962172  0.25741507  1  0.271571  0.001426  0.093816  0.242024  0.000897  4.05439  0.001
C  C62  1  0.66385464  0.76955734  0.75711540  1  0.282799  0.001032  0.0931  0.24128  0.000633  4.057248  0.001
C  C63  1  0.16427413  0.23035849  0.74251183  1  0.272154  0.00021  0.093586  0.241267  7e-05  4.055553  0.0
C  C64  1  0.39263203  0.28198900  0.19044522  1  0.005923  0.001538  -0.086203  -0.196634  0.001025  3.927222  0.001
C  C65  1  0.89247072  0.71818306  0.30964043  1  0.009645  0.000192  -0.086938  -0.196977  0.000207  3.92792  0.0
C  C66  1  0.60730471  0.71802104  0.80949036  1  0.005366  0.002933  -0.086205  -0.196343  0.001852  3.927618  0.002
C  C67  1  0.10758863  0.28178194  0.69024748  1  0.008853  0.000491  -0.086792  -0.196524  0.000393  3.927622  0.0
C  C68  1  0.37399817  0.38468068  0.20583522  1  -0.003843  0.000986  -0.012717  -0.001393  0.000571  3.979659  0.001
C  C69  1  0.87393969  0.61546822  0.29426579  1  -0.000851  0.015824  -0.014247  -0.003656  0.010978  3.984955  0.012
C  C70  1  0.62594811  0.61532778  0.79411909  1  -0.004265  0.000201  -0.012643  -0.001197  4.1e-05  3.98028  0.0
C  C71  1  0.12613801  0.38450363  0.70564318  1  -0.000555  0.017218  -0.013974  -0.003375  0.011945  3.984841  0.014
C  C72  1  0.30014725  0.43776963  0.27575310  1  -0.021176  0.004022  -0.074354  -0.116707  0.002661  3.911056  0.003
C  C73  1  0.80001041  0.56221270  0.22464571  1  -0.025554  -0.001269  -0.075102  -0.11788  -0.000751  3.911162  -0.001
C  C74  1  0.69984304  0.56225015  0.72426994  1  -0.020491  0.002023  -0.074436  -0.116766  0.001378  3.910998  0.001
C  C75  1  0.20000925  0.43776356  0.77533249  1  -0.025925  0.002062  -0.075239  -0.117906  0.001386  3.911612  0.002
C  C76  1  0.24321901  0.38541426  0.32647797  1  -0.029949  0.016443  -0.009879  0.001462  0.011527  3.982313  0.013
C  C77  1  0.74272891  0.61447677  0.17421656  1  0.058008  0.001343  -0.008131  0.003913  0.00081  3.978463  0.001
C  C78  1  0.75678670  0.61461849  0.67356465  1  -0.028939  0.01526  -0.009578  0.00146  0.010676  3.982359  0.012
C  C79  1  0.25726138  0.38551928  0.82580526  1  0.058109  0.000574  -0.008216  0.0034  0.000256  3.978685  0.0
C  C80  1  0.26050278  0.28227232  0.31069359  1  0.033059  0.002862  -0.081002  -0.178978  0.001953  3.895316  0.002
C  C81  1  0.75993474  0.71767269  0.19001295  1  -0.024642  -0.000655  -0.081687  -0.179818  -0.000552  3.893221  0.0
C  C82  1  0.73952568  0.71775429  0.68935570  1  0.033098  0.00265  -0.081114  -0.178869  0.001806  3.895313  0.002
C  C83  1  0.24004381  0.28231881  0.80998866  1  -0.025265  -0.001861  -0.081699  -0.179306  -0.001245  3.893091  -0.001
C  C84  1  0.42749532  0.43335058  0.13830423  1  1.558968  0.000659  0.213441  0.577485  0.000428  4.163411  0.001
C  C85  1  0.92798914  0.56666735  0.36108162  1  1.55599  -0.001668  0.211995  0.576327  0.000835  4.165492  -0.004
C  C86  1  0.57248398  0.56667541  0.86168468  1  1.5596  -0.000291  0.213079  0.576418  -0.000445  4.164917  0.0
C  C87  1  0.07202613  0.43330359  0.63887905  1  1.553994  -0.001398  0.212162  0.575942  0.001048  4.166017  -0.004
C  C88  1  0.15678934  0.43514552  0.39306921  1  1.572074  -0.001643  0.218111  0.584192  0.000758  4.154072  -0.004
C  C89  1  0.65634646  0.56436707  0.10746576  1  1.558625  -0.000812  0.217576  0.582934  -0.000903  4.157116  -0.001
C  C90  1  0.84322148  0.56484815  0.60698740  1  1.571704  -0.001995  0.218309  0.585428  0.0005  4.151515  -0.004
C  C91  1  0.34362547  0.43563358  0.89255329  1  1.559198  0.001237  0.217999  0.583697  0.000927  4.156884  0.002
N  N92  1  0.39871252  0.74326561  0.12039718  1  -1.229059  0.001578  -0.323079  -0.226559  0.000726  3.475324  0.0
N  N93  1  0.89881655  0.25702883  0.38007100  1  -1.228877  -0.001647  -0.32278  -0.226561  -0.000543  3.474067  0.0
N  N94  1  0.60126748  0.25672813  0.87962529  1  -1.228042  -0.001599  -0.322885  -0.226539  -0.000782  3.475269  0.0
N  N95  1  0.10120677  0.74296033  0.61995275  1  -1.229978  -0.001646  -0.322513  -0.226401  -0.000541  3.474191  0.0
N  N96  1  0.35643733  0.12628612  0.22240033  1  -1.239511  0.000101  -0.393761  -0.373276  3.7e-05  3.567562  0.0
N  N97  1  0.85610347  0.87379930  0.27774360  1  -1.222464  0.000279  -0.393289  -0.371663  0.000154  3.567703  0.0
N  N98  1  0.64353756  0.87372992  0.77758570  1  -1.238596  0.000267  -0.393379  -0.37274  0.000153  3.567653  0.0
N  N99  1  0.14394853  0.12617864  0.72217355  1  -1.221994  -1e-05  -0.393207  -0.37154  -2.9e-05  3.568651  0.0
O  O100  1  0.20861391  0.07040656  0.26703903  1  -1.133821  8.1e-05  -0.293635  -0.475644  3.9e-05  2.08216  0.0
O  O101  1  0.70849764  0.92988978  0.23322266  1  -1.134488  -6e-06  -0.294448  -0.476623  7e-06  2.082325  0.0
O  O102  1  0.79137785  0.92959637  0.73298456  1  -1.133715  -0.000108  -0.293654  -0.475621  -8.3e-05  2.082253  0.0
O  O103  1  0.29151468  0.07011394  0.76679526  1  -1.134879  -0.000109  -0.294465  -0.476614  -7.9e-05  2.08212  0.0
O  O104  1  0.49029155  0.37682164  0.07397538  1  -1.111133  0.0849  -0.318255  -0.525393  0.054754  2.374422  0.077
O  O105  1  0.99098243  0.62301129  0.42533241  1  -1.111921  0.094743  -0.317956  -0.525583  0.060626  2.37038  0.086
O  O106  1  0.50988373  0.62332875  0.92618948  1  -1.110797  -0.084085  -0.317922  -0.524549  -0.056813  2.374695  -0.076
O  O107  1  0.00867299  0.37718604  0.57500803  1  -1.10956  0.095548  -0.318107  -0.525261  0.061147  2.370589  0.087
O  O108  1  0.40305733  0.52413672  0.14749276  1  -1.102918  -0.081131  -0.313163  -0.513733  -0.054887  2.329007  -0.073
O  O109  1  0.90439660  0.47551896  0.35165199  1  -1.10314  0.091791  -0.31341  -0.514889  0.058891  2.325124  0.083
O  O110  1  0.59677223  0.47583129  0.85240082  1  -1.103587  0.081486  -0.312979  -0.513491  0.052585  2.329672  0.074
O  O111  1  0.09593886  0.52431572  0.64801302  1  -1.103686  0.091667  -0.31375  -0.514882  0.05881  2.326119  0.083
O  O112  1  0.16402929  0.52816148  0.45371357  1  -1.104729  0.100753  -0.308345  -0.505581  0.064746  2.313777  0.091
O  O113  1  0.66419963  0.47157181  0.04666353  1  -1.105382  0.09086  -0.307775  -0.504405  0.058756  2.312976  0.082
O  O114  1  0.83586795  0.47196926  0.54601716  1  -1.104909  0.100895  -0.308466  -0.506079  0.064821  2.312687  0.091
O  O115  1  0.33581938  0.52847286  0.95320663  1  -1.106119  -0.090167  -0.308113  -0.505002  -0.061109  2.313462  -0.081
O  O116  1  0.08185011  0.37736220  0.38163051  1  -1.114434  0.089961  -0.310058  -0.526717  0.057932  2.391007  0.082
O  O117  1  0.58141022  0.62207828  0.11923692  1  -1.113139  -0.079945  -0.310112  -0.526277  -0.054294  2.391399  -0.072
O  O118  1  0.91829777  0.62251571  0.61880503  1  -1.114252  0.089612  -0.309941  -0.527107  0.05768  2.388421  0.082
O  O119  1  0.41852419  0.37788296  0.88092304  1  -1.11373  0.080584  -0.310354  -0.526595  0.052272  2.391684  0.073
