# generated using pymatgen
data_ZnH6C12N2(ClO2)2
_symmetry_space_group_name_H-M   'P 1'
_cell_length_a   7.76920118
_cell_length_b   7.77705607
_cell_length_c   24.68941914
_cell_angle_alpha   89.99985973
_cell_angle_beta   91.21628159
_cell_angle_gamma   89.99822602
_symmetry_Int_Tables_number   1
_chemical_formula_structural   ZnH6C12N2(ClO2)2
_chemical_formula_sum   'Zn4 H24 C48 N8 Cl8 O16'
_cell_volume   1491.43595650
_cell_formula_units_Z   4
loop_
 _symmetry_equiv_pos_site_id
 _symmetry_equiv_pos_as_xyz
  1  'x, y, z'
loop_
 _atom_site_type_symbol
 _atom_site_label
 _atom_site_symmetry_multiplicity
 _atom_site_fract_x
 _atom_site_fract_y
 _atom_site_fract_z
 _atom_site_occupancy
 _atom_site_hle17_bader_spin_density
 _atom_site_hle17_ddec_charge
 _atom_site_hle17_ddec_spin_density
 _atom_site_hle17_ddec_sum_bond_order
 _atom_site_hle17_magmom
 _atom_site_hse06_10hf_bader_spin_density
 _atom_site_hse06_10hf_ddec_charge
 _atom_site_hse06_10hf_ddec_spin_density
 _atom_site_hse06_10hf_ddec_sum_bond_order
 _atom_site_hse06_10hf_magmom
 _atom_site_hse06_bader_spin_density
 _atom_site_hse06_ddec_charge
 _atom_site_hse06_ddec_spin_density
 _atom_site_hse06_ddec_sum_bond_order
 _atom_site_hse06_magmom
 _atom_site_pbe_bader_spin_density
 _atom_site_pbe_cm5_charge
 _atom_site_pbe_ddec_charge
 _atom_site_pbe_ddec_spin_density
 _atom_site_pbe_ddec_sum_bond_order
 _atom_site_pbe_magmom
Zn  Zn0  1  0.41380644  0.88083713  0.39680994  1  0  0.970701  0  1.836299  0  0  0.787379  0  2.282361  0  0  0.837556  0  2.231916  0  0  0.680665  0.752184  0  2.316881  0
Zn  Zn1  1  0.58619266  0.88082370  0.10318541  1  0  0.97066  0  1.836262  0  0  0.787356  0  2.282306  0  0  0.837538  0  2.231858  0  0  0.680677  0.75215  0  2.316826  0
Zn  Zn2  1  0.58618792  0.11917213  0.60318380  1  0  0.970628  0  1.836303  0  0  0.787401  0  2.282266  0  0  0.837582  0  2.231822  0  0  0.680686  0.752201  0  2.316784  0
Zn  Zn3  1  0.41383607  0.11914955  0.89682347  1  0  0.970748  0  1.836254  0  0  0.787514  0  2.282261  0  0  0.837696  0  2.231819  0  0  0.680707  0.752314  0  2.316782  0
H  H4  1  0.44274187  0.49814869  0.40841340  1  0  0.102963  0  0.925545  0  0  0.108084  0  0.993752  0  0  0.112  0  0.989381  0  0  0.12408  0.105129  0  0.997048  0
H  H5  1  0.55728653  0.49812611  0.09157972  1  0  0.102792  0  0.925678  0  0  0.108006  0  0.99379  0  0  0.111909  0  0.989431  0  0  0.124049  0.10505  0  0.997083  0
H  H6  1  0.55724374  0.50185285  0.59157889  1  0  0.102853  0  0.925687  0  0  0.107967  0  0.993878  0  0  0.111864  0  0.989528  0  0  0.124068  0.105065  0  0.997117  0
H  H7  1  0.44276919  0.50183685  0.90842988  1  0  0.102721  0  0.925813  0  0  0.107813  0  0.993988  0  0  0.111713  0  0.989633  0  0  0.123994  0.104885  0  0.997253  0
H  H8  1  0.29619694  0.81768279  0.28064714  1  0  0.121939  0  0.920187  0  0  0.129611  0  0.979461  0  0  0.133551  0  0.975166  0  0  0.128471  0.12665  0  0.982711  0
H  H9  1  0.70377979  0.81766675  0.21934718  1  0  0.121904  0  0.920408  0  0  0.129594  0  0.979666  0  0  0.133533  0  0.975377  0  0  0.128521  0.126633  0  0.982917  0
H  H10  1  0.70380032  0.18232518  0.71934506  1  0  0.121941  0  0.92039  0  0  0.129637  0  0.97965  0  0  0.133577  0  0.975357  0  0  0.128488  0.126676  0  0.982901  0
H  H11  1  0.29624758  0.18230651  0.78066207  1  0  0.122048  0  0.92023  0  0  0.129757  0  0.979478  0  0  0.133697  0  0.975185  0  0  0.128543  0.126795  0  0.982729  0
H  H12  1  0.24551328  0.26522936  0.26134911  1  0  0.137218  0  0.904453  0  0  0.149395  0  0.957467  0  0  0.153422  0  0.953692  0  0  0.123058  0.146386  0  0.9603  0
H  H13  1  0.75440147  0.26520979  0.23866048  1  0  0.137184  0  0.904225  0  0  0.149277  0  0.957374  0  0  0.153305  0  0.953594  0  0  0.123051  0.14627  0  0.960205  0
H  H14  1  0.75440748  0.73478247  0.73865078  1  0  0.137145  0  0.90446  0  0  0.149333  0  0.95749  0  0  0.153362  0  0.953707  0  0  0.122997  0.146318  0  0.960323  0
H  H15  1  0.24560995  0.73476218  0.76135727  1  0  0.13699  0  0.904554  0  0  0.149302  0  0.95744  0  0  0.153346  0  0.953653  0  0  0.122984  0.146282  0  0.960282  0
H  H16  1  0.03384462  0.90692888  0.38367233  1  0  0.099728  0  0.927128  0  0  0.104455  0  0.995603  0  0  0.108628  0  0.990905  0  0  0.120087  0.101493  0  0.998891  0
H  H17  1  0.96617096  0.90689822  0.11631918  1  0  0.099858  0  0.926977  0  0  0.104489  0  0.995544  0  0  0.108662  0  0.990844  0  0  0.120067  0.101527  0  0.99883  0
H  H18  1  0.96617183  0.09310095  0.61632079  1  0  0.099796  0  0.926888  0  0  0.104394  0  0.99549  0  0  0.108567  0  0.99079  0  0  0.120043  0.101433  0  0.998778  0
H  H19  1  0.03384849  0.09308918  0.88368458  1  0  0.099675  0  0.927121  0  0  0.10436  0  0.995643  0  0  0.108532  0  0.990946  0  0  0.120022  0.101401  0  0.99893  0
H  H20  1  0.35579899  0.76380613  0.51326989  1  0  0.130973  0  0.925132  0  0  0.136079  0  0.989121  0  0  0.14011  0  0.984973  0  0  0.128471  0.133025  0  0.992343  0
H  H21  1  0.64419364  0.76381191  0.98672632  1  0  0.130953  0  0.925104  0  0  0.136004  0  0.989176  0  0  0.140038  0  0.985023  0  0  0.128442  0.132951  0  0.992398  0
H  H22  1  0.64418419  0.23618641  0.48672801  1  0  0.130963  0  0.925088  0  0  0.136064  0  0.989102  0  0  0.140101  0  0.984942  0  0  0.12846  0.133009  0  0.992325  0
H  H23  1  0.35581963  0.23617677  0.01327605  1  0  0.131026  0  0.925179  0  0  0.136114  0  0.989168  0  0  0.140146  0  0.985015  0  0  0.128462  0.133058  0  0.99239  0
H  H24  1  0.80096769  0.72064459  0.52895146  1  0  0.137868  0  0.936875  0  0  0.144237  0  1.002328  0  0  0.148243  0  0.998668  0  0  0.114714  0.141265  0  1.005002  0
H  H25  1  0.19902402  0.72060529  0.97103712  1  0  0.13796  0  0.93654  0  0  0.144225  0  1.002104  0  0  0.148232  0  0.998443  0  0  0.114693  0.141256  0  1.004776  0
H  H26  1  0.19901344  0.27940453  0.47103746  1  0  0.137978  0  0.936595  0  0  0.144315  0  1.002088  0  0  0.148321  0  0.998428  0  0  0.114768  0.141346  0  1.004761  0
H  H27  1  0.80099103  0.27940783  0.02896286  1  0  0.137944  0  0.936695  0  0  0.144309  0  1.002156  0  0  0.148317  0  0.998493  0  0  0.114734  0.141335  0  1.004838  0
C  C28  1  0.34605995  0.36082630  0.33792376  1  0  -0.078286  0  3.74122  0  0  -0.051229  0  3.980479  0  0  -0.063274  0  4.003261  0  0  -0.005356  -0.04388  0  3.965551  0
C  C29  1  0.65390835  0.36080344  0.16207777  1  0  -0.078261  0  3.740635  0  0  -0.051454  0  3.980258  0  0  -0.063504  0  4.003038  0  0  -0.005379  -0.044103  0  3.965337  0
C  C30  1  0.65390445  0.63918038  0.66207121  1  0  -0.07791  0  3.740953  0  0  -0.051271  0  3.980665  0  0  -0.063341  0  4.003474  0  0  -0.005274  -0.043917  0  3.965753  0
C  C31  1  0.34612118  0.63917238  0.83793356  1  0  -0.078553  0  3.741339  0  0  -0.051994  0  3.981111  0  0  -0.064068  0  4.003926  0  0  -0.005455  -0.04464  0  3.966198  0
C  C32  1  0.39051016  0.50836516  0.36720558  1  0  0.116951  0  3.661018  0  0  0.064996  0  3.92301  0  0  0.074538  0  3.938676  0  0  0.052626  0.058929  0  3.912493  0
C  C33  1  0.60948025  0.50834282  0.13279187  1  0  0.117034  0  3.660686  0  0  0.065108  0  3.922758  0  0  0.07466  0  3.93843  0  0  0.052765  0.059034  0  3.912226  0
C  C34  1  0.60946083  0.49164152  0.63278876  1  0  0.116991  0  3.661052  0  0  0.065227  0  3.923067  0  0  0.074796  0  3.938747  0  0  0.052761  0.059101  0  3.912521  0
C  C35  1  0.39055442  0.49162657  0.86721960  1  0  0.117386  0  3.660911  0  0  0.065773  0  3.922732  0  0  0.075342  0  3.938402  0  0  0.053001  0.059673  0  3.912197  0
C  C36  1  0.30959298  0.68634746  0.29555550  1  0  0.071836  0  3.65535  0  0  0.027186  0  3.910547  0  0  0.035593  0  3.924534  0  0  0.048241  0.021909  0  3.901061  0
C  C37  1  0.69037749  0.68633069  0.20444019  1  0  0.071856  0  3.655959  0  0  0.027123  0  3.911165  0  0  0.03553  0  3.925153  0  0  0.04819  0.021838  0  3.901667  0
C  C38  1  0.69038306  0.31366179  0.70443938  1  0  0.071773  0  3.656074  0  0  0.026965  0  3.911362  0  0  0.035386  0  3.925363  0  0  0.048152  0.021683  0  3.901866  0
C  C39  1  0.30964321  0.31364127  0.79557009  1  0  0.071537  0  3.656165  0  0  0.026682  0  3.911474  0  0  0.035099  0  3.925463  0  0  0.048034  0.021402  0  3.901977  0
C  C40  1  0.26328334  0.54424773  0.26389851  1  0  0.078622  0  3.828694  0  0  0.091905  0  4.109093  0  0  0.089424  0  4.132077  0  0  0.014947  0.092945  0  4.093715  0
C  C41  1  0.73667401  0.54422648  0.23609911  1  0  0.078265  0  3.828908  0  0  0.091769  0  4.109001  0  0  0.089286  0  4.131984  0  0  0.014887  0.09281  0  4.093624  0
C  C42  1  0.73667327  0.45576281  0.73609666  1  0  0.078345  0  3.828954  0  0  0.091856  0  4.109087  0  0  0.089348  0  4.132093  0  0  0.014843  0.092892  0  4.093719  0
C  C43  1  0.26335175  0.45574291  0.76391172  1  0  0.078201  0  3.82878  0  0  0.091699  0  4.108963  0  0  0.089194  0  4.131971  0  0  0.014649  0.092738  0  4.09359  0
C  C44  1  0.28112017  0.37864095  0.28496664  1  0  -0.070138  0  3.662508  0  0  -0.11436  0  3.915251  0  0  -0.108948  0  3.930306  0  0  -0.061734  -0.117459  0  3.905081  0
C  C45  1  0.71882790  0.37861795  0.21503731  1  0  -0.06978  0  3.661673  0  0  -0.113908  0  3.914447  0  0  -0.108497  0  3.92951  0  0  -0.061628  -0.117007  0  3.904275  0
C  C46  1  0.71882479  0.62137087  0.71502862  1  0  -0.069945  0  3.662182  0  0  -0.11411  0  3.914936  0  0  -0.108685  0  3.930014  0  0  -0.061552  -0.117197  0  3.904751  0
C  C47  1  0.28119180  0.62135144  0.78497782  1  0  -0.069358  0  3.661936  0  0  -0.113619  0  3.914633  0  0  -0.108209  0  3.929717  0  0  -0.06137  -0.116712  0  3.90446  0
C  C48  1  0.36774446  0.18862180  0.36447628  1  0  0.626452  0  3.940758  0  0  0.579068  0  4.226853  0  0  0.61356  0  4.221411  0  0  0.195803  0.555855  0  4.229676  0
C  C49  1  0.63223632  0.18859099  0.13552928  1  0  0.626355  0  3.940939  0  0  0.579026  0  4.227082  0  0  0.613519  0  4.221642  0  0  0.195652  0.555808  0  4.229905  0
C  C50  1  0.63223006  0.81139260  0.63551977  1  0  0.626337  0  3.940893  0  0  0.579109  0  4.226958  0  0  0.613611  0  4.221509  0  0  0.195684  0.555887  0  4.229787  0
C  C51  1  0.36779064  0.81137841  0.86448198  1  0  0.626768  0  3.941108  0  0  0.579536  0  4.227127  0  0  0.61404  0  4.22166  0  0  0.195678  0.556314  0  4.229966  0
C  C52  1  0.89767464  0.81348705  0.45308427  1  0  -0.080427  0  3.753204  0  0  -0.053797  0  3.993374  0  0  -0.065872  0  4.016704  0  0  -0.008703  -0.046288  0  3.977863  0
C  C53  1  0.10232506  0.81345441  0.04690698  1  0  -0.080752  0  3.753251  0  0  -0.05401  0  3.993298  0  0  -0.066084  0  4.016627  0  0  -0.008822  -0.046497  0  3.977783  0
C  C54  1  0.10232399  0.18654535  0.54690756  1  0  -0.080816  0  3.753377  0  0  -0.054032  0  3.993378  0  0  -0.066105  0  4.016704  0  0  -0.008788  -0.046517  0  3.977865  0
C  C55  1  0.89769007  0.18654970  0.95309260  1  0  -0.080778  0  3.753453  0  0  -0.053894  0  3.993317  0  0  -0.065966  0  4.016642  0  0  -0.008763  -0.046384  0  3.977808  0
C  C56  1  0.04509873  0.85530664  0.42467090  1  0  0.110559  0  3.66889  0  0  0.06082  0  3.928921  0  0  0.070082  0  3.944958  0  0  0.049184  0.054344  0  3.919093  0
C  C57  1  0.95491208  0.85527959  0.07532297  1  0  0.11058  0  3.668763  0  0  0.060837  0  3.928708  0  0  0.070093  0  3.944756  0  0  0.049279  0.054362  0  3.918878  0
C  C58  1  0.95491121  0.14472190  0.57532245  1  0  0.110654  0  3.668656  0  0  0.060994  0  3.928584  0  0  0.070243  0  3.944649  0  0  0.0493  0.054516  0  3.918757  0
C  C59  1  0.04510890  0.14471038  0.92467961  1  0  0.110762  0  3.668994  0  0  0.06096  0  3.92892  0  0  0.070217  0  3.94498  0  0  0.049221  0.054478  0  3.919099  0
C  C60  1  0.22439696  0.77532309  0.49711456  1  0  0.079761  0  3.611696  0  0  0.039404  0  3.858022  0  0  0.047685  0  3.872397  0  0  0.051682  0.034198  0  3.848309  0
C  C61  1  0.77559486  0.77532087  0.00288190  1  0  0.07979  0  3.611807  0  0  0.039434  0  3.85808  0  0  0.0477  0  3.872471  0  0  0.05171  0.034224  0  3.84837  0
C  C62  1  0.77559177  0.22468102  0.50288147  1  0  0.079809  0  3.611752  0  0  0.039459  0  3.858004  0  0  0.047719  0  3.872408  0  0  0.051743  0.034253  0  3.848289  0
C  C63  1  0.22441783  0.22467167  0.99712330  1  0  0.079668  0  3.611984  0  0  0.039352  0  3.858221  0  0  0.047642  0  3.872599  0  0  0.051717  0.034146  0  3.848507  0
C  C64  1  0.08148993  0.73215570  0.52777690  1  0  0.088008  0  3.793888  0  0  0.105082  0  4.064247  0  0  0.102087  0  4.08722  0  0  0.019107  0.106468  0  4.048817  0
C  C65  1  0.91850133  0.73214531  0.97221501  1  0  0.088218  0  3.793821  0  0  0.105297  0  4.064168  0  0  0.102319  0  4.087116  0  0  0.019148  0.106683  0  4.048739  0
C  C66  1  0.91849287  0.26786127  0.47221654  1  0  0.088173  0  3.794148  0  0  0.105292  0  4.06447  0  0  0.102313  0  4.087417  0  0  0.019183  0.106676  0  4.04904  0
C  C67  1  0.08151347  0.26786008  0.02778619  1  0  0.088159  0  3.794021  0  0  0.10525  0  4.064378  0  0  0.102252  0  4.087356  0  0  0.019095  0.106636  0  4.048945  0
C  C68  1  0.91544615  0.75027017  0.50584021  1  0  -0.070288  0  3.649188  0  0  -0.112014  0  3.899958  0  0  -0.107204  0  3.916604  0  0  -0.063336  -0.114607  0  3.888589  0
C  C69  1  0.08454375  0.75023863  0.99415015  1  0  -0.070541  0  3.649042  0  0  -0.112177  0  3.899765  0  0  -0.107371  0  3.916407  0  0  -0.063392  -0.114768  0  3.888391  0
C  C70  1  0.08453304  0.24976866  0.49415191  1  0  -0.070483  0  3.649244  0  0  -0.11222  0  3.899959  0  0  -0.107415  0  3.916604  0  0  -0.06345  -0.114811  0  3.888584  0
C  C71  1  0.91546976  0.24976677  0.00585101  1  0  -0.070473  0  3.649162  0  0  -0.112256  0  3.899816  0  0  -0.107446  0  3.916463  0  0  -0.063371  -0.114847  0  3.888443  0
C  C72  1  0.72433383  0.84018553  0.42682905  1  0  0.618705  0  3.952791  0  0  0.569948  0  4.24371  0  0  0.603831  0  4.238904  0  0  0.188217  0.547196  0  4.245998  0
C  C73  1  0.27567756  0.84014375  0.07315621  1  0  0.618628  0  3.951783  0  0  0.569923  0  4.242599  0  0  0.603804  0  4.237795  0  0  0.188237  0.547167  0  4.244885  0
C  C74  1  0.27567334  0.15985202  0.57315895  1  0  0.618559  0  3.951878  0  0  0.569838  0  4.242707  0  0  0.603718  0  4.237903  0  0  0.188187  0.547082  0  4.244992  0
C  C75  1  0.72434263  0.15984236  0.92684392  1  0  0.618561  0  3.952411  0  0  0.56991  0  4.243099  0  0  0.603794  0  4.238288  0  0  0.188206  0.547157  0  4.245389  0
N  N76  1  0.37169180  0.66679311  0.34637160  1  0  -0.300836  0  3.322204  0  0  -0.219154  0  3.600633  0  0  -0.238899  0  3.617383  0  0  -0.320365  -0.205904  0  3.589082  0
N  N77  1  0.62828684  0.66677256  0.15362458  1  0  -0.300784  0  3.322358  0  0  -0.21914  0  3.600903  0  0  -0.238881  0  3.617642  0  0  -0.320475  -0.205862  0  3.589322  0
N  N78  1  0.62827791  0.33321743  0.65362270  1  0  -0.300914  0  3.322555  0  0  -0.219215  0  3.600966  0  0  -0.23898  0  3.617733  0  0  -0.32048  -0.205938  0  3.589403  0
N  N79  1  0.37174012  0.33319683  0.84638668  1  0  -0.30088  0  3.322647  0  0  -0.219234  0  3.601007  0  0  -0.238986  0  3.617757  0  0  -0.320429  -0.20596  0  3.589443  0
N  N80  1  0.20395927  0.83537029  0.44619126  1  0  -0.303233  0  3.315662  0  0  -0.220387  0  3.593527  0  0  -0.240754  0  3.610713  0  0  -0.322481  -0.206592  0  3.581569  0
N  N81  1  0.79604423  0.83535252  0.05380309  1  0  -0.303181  0  3.315903  0  0  -0.22014  0  3.593504  0  0  -0.240505  0  3.610696  0  0  -0.322321  -0.206344  0  3.581546  0
N  N82  1  0.79603861  0.16464411  0.55380421  1  0  -0.30316  0  3.31562  0  0  -0.220264  0  3.593365  0  0  -0.240625  0  3.610548  0  0  -0.32237  -0.206468  0  3.581407  0
N  N83  1  0.20397521  0.16463230  0.94620067  1  0  -0.3032  0  3.316003  0  0  -0.220297  0  3.593743  0  0  -0.240678  0  3.610943  0  0  -0.322322  -0.206502  0  3.581788  0
Cl  Cl84  1  0.18331487  0.57938013  0.19931238  1  0  -0.057867  0  1.406565  0  0  -0.039167  0  1.635546  0  0  -0.044997  0  1.633911  0  0  0.021446  -0.034931  0  1.636791  0
Cl  Cl85  1  0.81662553  0.57936618  0.30068907  1  0  -0.057811  0  1.406678  0  0  -0.039178  0  1.635569  0  0  -0.045009  0  1.633933  0  0  0.021431  -0.034941  0  1.636814  0
Cl  Cl86  1  0.81664928  0.42063170  0.80068380  1  0  -0.057819  0  1.406599  0  0  -0.039181  0  1.635479  0  0  -0.045002  0  1.633849  0  0  0.021439  -0.034945  0  1.636729  0
Cl  Cl87  1  0.18338849  0.42061993  0.69932225  1  0  -0.05779  0  1.406404  0  0  -0.039145  0  1.63527  0  0  -0.044965  0  1.633643  0  0  0.021496  -0.034909  0  1.636516  0
Cl  Cl88  1  0.11244812  0.65812862  0.59299389  1  0  -0.075119  0  1.371157  0  0  -0.060342  0  1.592171  0  0  -0.065174  0  1.590371  0  0  0.008596  -0.056836  0  1.593532  0
Cl  Cl89  1  0.88753573  0.65812923  0.90699812  1  0  -0.07514  0  1.371095  0  0  -0.060385  0  1.592134  0  0  -0.065215  0  1.590324  0  0  0.008586  -0.056878  0  1.593497  0
Cl  Cl90  1  0.88751636  0.34188321  0.40700068  1  0  -0.075187  0  1.37126  0  0  -0.06044  0  1.59229  0  0  -0.065273  0  1.590484  0  0  0.008545  -0.056933  0  1.593653  0
Cl  Cl91  1  0.11247812  0.34188517  0.09300142  1  0  -0.07511  0  1.371189  0  0  -0.060368  0  1.592233  0  0  -0.065195  0  1.590435  0  0  0.008584  -0.056863  0  1.593595  0
O  O92  1  0.42064130  0.18127893  0.41315451  1  0  -0.600032  0  1.937402  0  0  -0.549654  0  2.172514  0  0  -0.575389  0  2.162779  0  0  -0.307689  -0.531607  0  2.178371  0
O  O93  1  0.57937567  0.18124450  0.08684791  1  0  -0.599911  0  1.937497  0  0  -0.549586  0  2.172673  0  0  -0.575328  0  2.162947  0  0  -0.307684  -0.531537  0  2.178526  0
O  O94  1  0.57936744  0.81873290  0.58683840  1  0  -0.599967  0  1.937298  0  0  -0.549692  0  2.17249  0  0  -0.575403  0  2.162693  0  0  -0.307718  -0.531649  0  2.178365  0
O  O95  1  0.42066582  0.81872361  0.91316171  1  0  -0.600154  0  1.93743  0  0  -0.549816  0  2.172538  0  0  -0.57556  0  2.162804  0  0  -0.307662  -0.531772  0  2.178414  0
O  O96  1  0.33085570  0.05396578  0.33642868  1  0  -0.626128  0  1.967564  0  0  -0.561978  0  2.206336  0  0  -0.590621  0  2.194227  0  0  -0.327758  -0.541846  0  2.213865  0
O  O97  1  0.66910314  0.05393944  0.16358064  1  0  -0.626116  0  1.967572  0  0  -0.561931  0  2.206295  0  0  -0.590567  0  2.194184  0  0  -0.327657  -0.541801  0  2.213824  0
O  O98  1  0.66909897  0.94604347  0.66356968  1  0  -0.626099  0  1.967669  0  0  -0.561958  0  2.206359  0  0  -0.5906  0  2.194246  0  0  -0.327688  -0.541824  0  2.213885  0
O  O99  1  0.33092092  0.94602995  0.83643216  1  0  -0.626307  0  1.967849  0  0  -0.562175  0  2.206538  0  0  -0.590815  0  2.194416  0  0  -0.327776  -0.542042  0  2.214072  0
O  O100  1  0.71253113  0.91561510  0.38171494  1  0  -0.611226  0  1.923859  0  0  -0.565092  0  2.149369  0  0  -0.589901  0  2.140739  0  0  -0.326021  -0.547752  0  2.154605  0
O  O101  1  0.28748425  0.91559518  0.11826728  1  0  -0.611257  0  1.923357  0  0  -0.565093  0  2.148824  0  0  -0.589904  0  2.140193  0  0  -0.326034  -0.547752  0  2.154063  0
O  O102  1  0.28748610  0.08439416  0.61826806  1  0  -0.611218  0  1.923476  0  0  -0.565057  0  2.148948  0  0  -0.589868  0  2.140316  0  0  -0.326049  -0.547716  0  2.15419  0
O  O103  1  0.71252968  0.08439993  0.88173186  1  0  -0.611182  0  1.923617  0  0  -0.565059  0  2.14907  0  0  -0.589866  0  2.140434  0  0  -0.325954  -0.547719  0  2.154312  0
O  O104  1  0.59252697  0.78498179  0.45232720  1  0  -0.6187  0  1.975733  0  0  -0.550468  0  2.220083  0  0  -0.579271  0  2.208887  0  0  -0.325959  -0.530262  0  2.226951  0
O  O105  1  0.40749403  0.78492010  0.04766118  1  0  -0.618502  0  1.975106  0  0  -0.550477  0  2.21961  0  0  -0.579276  0  2.208415  0  0  -0.326011  -0.530283  0  2.226503  0
O  O106  1  0.40748235  0.21507761  0.54766289  1  0  -0.618429  0  1.975015  0  0  -0.550413  0  2.219515  0  0  -0.579211  0  2.208319  0  0  -0.325968  -0.530229  0  2.226435  0
O  O107  1  0.59253544  0.21505573  0.95234406  1  0  -0.618411  0  1.975242  0  0  -0.550464  0  2.219748  0  0  -0.579264  0  2.20855  0  0  -0.326012  -0.530263  0  2.226633  0
