# generated using pymatgen
data_Ni3H14(C4O7)2
_symmetry_space_group_name_H-M   'P 1'
_cell_length_a   6.30227727
_cell_length_b   8.00687782
_cell_length_c   15.58024785
_cell_angle_alpha   89.99997083
_cell_angle_beta   94.28340411
_cell_angle_gamma   90.00005709
_symmetry_Int_Tables_number   1
_chemical_formula_structural   Ni3H14(C4O7)2
_chemical_formula_sum   'Ni6 H28 C16 O28'
_cell_volume   784.00765876
_cell_formula_units_Z   2
loop_
 _symmetry_equiv_pos_site_id
 _symmetry_equiv_pos_as_xyz
  1  'x, y, z'
loop_
 _atom_site_type_symbol
 _atom_site_label
 _atom_site_symmetry_multiplicity
 _atom_site_fract_x
 _atom_site_fract_y
 _atom_site_fract_z
 _atom_site_occupancy
 _atom_site_hle17_ddec_charge
 _atom_site_hle17_ddec_spin_density
 _atom_site_hle17_ddec_sum_bond_order
 _atom_site_hle17_magmom
 _atom_site_hse06_10hf_ddec_charge
 _atom_site_hse06_10hf_ddec_spin_density
 _atom_site_hse06_10hf_ddec_sum_bond_order
 _atom_site_hse06_10hf_magmom
 _atom_site_hse06_ddec_charge
 _atom_site_hse06_ddec_spin_density
 _atom_site_hse06_ddec_sum_bond_order
 _atom_site_hse06_magmom
 _atom_site_pbe_cm5_charge
 _atom_site_pbe_ddec_charge
 _atom_site_pbe_ddec_spin_density
 _atom_site_pbe_ddec_sum_bond_order
 _atom_site_pbe_magmom
Ni  Ni0  1  0.51368953  0.81173458  0.52301267  1  1.014559  1.75358  1.802858  1.531  1.045167  1.822997  2.184992  1.658  1.132285  1.870012  2.114717  1.737  0.596958  0.971852  1.782738  2.248967  1.591
Ni  Ni1  1  0.51369208  0.68826598  0.02301188  1  1.014524  1.753579  1.802856  1.531  1.045104  1.822993  2.185015  1.658  1.132255  1.87001  2.114691  1.737  0.596948  0.9718  1.782736  2.24898  1.591
Ni  Ni2  1  0.48630954  0.18826561  0.47698755  1  1.014549  1.753584  1.802846  1.531  1.045148  1.822997  2.185003  1.658  1.132284  1.870012  2.114696  1.737  0.596954  0.971837  1.782743  2.24897  1.591
Ni  Ni3  1  0.48630861  0.31173422  0.97698775  1  1.014538  1.75358  1.802799  1.531  1.045126  1.822997  2.184952  1.658  1.132269  1.870013  2.114641  1.737  0.596947  0.971812  1.782739  2.248921  1.591
Ni  Ni4  1  0.99999948  0.00000141  0.50000012  1  1.054465  1.770024  1.815085  1.544  1.075846  1.836615  2.203615  1.67  1.159435  1.885733  2.139134  1.751  0.617688  1.001254  1.784365  2.265753  1.592
Ni  Ni5  1  0.00000029  0.50000139  0.99999994  1  1.054417  1.770028  1.815166  1.544  1.075801  1.836611  2.203691  1.67  1.159387  1.885728  2.139211  1.751  0.617672  1.001208  1.784367  2.265838  1.592
H  H6  1  0.24444269  0.63739699  0.25607073  1  0.118541  0.000132  0.939925  0.0  0.126206  0.000226  0.99985  0.0  0.131171  0.000127  0.995891  0.0  0.107629  0.122401  0.000353  1.003513  0.0
H  H7  1  0.24444205  0.86260063  0.75606644  1  0.118533  0.000129  0.939896  0.0  0.126217  0.000226  0.999809  0.0  0.131185  0.000127  0.995851  0.0  0.107641  0.12241  0.000353  1.003474  0.0
H  H8  1  0.75555475  0.36260321  0.74393007  1  0.118506  0.000132  0.93994  0.0  0.12618  0.000226  0.999855  0.0  0.131144  0.000127  0.995895  0.0  0.107619  0.122376  0.000353  1.003519  0.0
H  H9  1  0.75555877  0.13739831  0.24393064  1  0.118545  0.00013  0.939902  0.0  0.126212  0.000226  0.999831  0.0  0.131176  0.000127  0.995873  0.0  0.107632  0.122408  0.000353  1.003493  0.0
H  H10  1  0.79182919  0.73869385  0.30032666  1  0.126739  0.00033  0.936892  0.001  0.133998  0.000281  0.997414  0.0  0.139219  0.000154  0.992865  0.0  0.109781  0.12988  0.00044  1.001684  0.001
H  H11  1  0.79183457  0.76130292  0.80032712  1  0.126744  0.000333  0.936918  0.001  0.134009  0.000281  0.997448  0.0  0.139229  0.000153  0.992901  0.0  0.109799  0.129893  0.00044  1.001717  0.001
H  H12  1  0.20816823  0.26130634  0.69967478  1  0.126736  0.000328  0.936911  0.001  0.134006  0.000281  0.997421  0.0  0.139229  0.000153  0.99287  0.0  0.109794  0.129891  0.00044  1.001691  0.001
H  H13  1  0.20817087  0.23869478  0.19967334  1  0.126728  0.000326  0.936896  0.001  0.133994  0.000281  0.997417  0.0  0.139215  0.000153  0.992868  0.0  0.109783  0.129881  0.00044  1.001687  0.001
H  H14  1  0.32634376  0.04440167  0.59757575  1  0.40968  -0.003134  0.839945  -0.004  0.393835  -2.4e-05  0.905255  0.0  0.403801  -0.000576  0.896656  -0.001  0.303903  0.387049  0.000607  0.909781  0.001
H  H15  1  0.32634496  0.45559840  0.09757612  1  0.409686  -0.003135  0.839926  -0.004  0.39384  -2.4e-05  0.905242  0.0  0.403809  -0.000576  0.896636  -0.001  0.30391  0.387055  0.000607  0.90977  0.001
H  H16  1  0.67365535  0.95559852  0.40242383  1  0.409663  -0.003133  0.839956  -0.004  0.393818  -2.4e-05  0.905268  0.0  0.403787  -0.000576  0.896662  -0.001  0.303897  0.387032  0.000608  0.9098  0.001
H  H17  1  0.67365573  0.54440180  0.90242352  1  0.409667  -0.003134  0.839949  -0.004  0.393823  -2.4e-05  0.905263  0.0  0.403789  -0.000576  0.896667  -0.001  0.303903  0.387038  0.000607  0.909793  0.001
H  H18  1  0.85609548  0.66761490  0.48531652  1  0.422872  -0.001103  0.883849  -0.001  0.395549  -0.000415  0.94398  0.0  0.406873  -0.000533  0.927542  0.0  0.294147  0.387403  -0.000267  0.955693  0.0
H  H19  1  0.85609776  0.83238799  0.98531684  1  0.422845  -0.001102  0.883886  -0.001  0.395528  -0.000415  0.944007  0.0  0.406851  -0.000533  0.927571  0.0  0.29414  0.38738  -0.000267  0.95572  0.0
H  H20  1  0.14390203  0.33238655  0.51468299  1  0.422837  -0.001102  0.883901  -0.001  0.395516  -0.000415  0.94403  0.0  0.406839  -0.000533  0.927594  0.0  0.294131  0.387368  -0.000267  0.955747  0.0
H  H21  1  0.14390280  0.16761345  0.01468536  1  0.422899  -0.001103  0.883827  -0.001  0.395575  -0.000415  0.943955  0.0  0.406898  -0.000533  0.927518  0.0  0.294163  0.387424  -0.000266  0.95567  0.0
H  H22  1  0.68995146  0.52579676  0.47165122  1  0.430691  -0.000698  0.862089  -0.001  0.408588  -0.000152  0.913518  0.0  0.418626  -0.000246  0.899195  0.0  0.297825  0.401268  -5.5e-05  0.923883  0.0
H  H23  1  0.68995391  0.97420476  0.97165151  1  0.430665  -0.000697  0.86207  -0.001  0.408556  -0.000152  0.913552  0.0  0.418592  -0.000246  0.899231  0.0  0.29781  0.401235  -5.5e-05  0.923919  0.0
H  H24  1  0.31004923  0.47420343  0.52834842  1  0.430703  -0.000697  0.862076  -0.001  0.408603  -0.000152  0.913499  0.0  0.418638  -0.000246  0.899178  0.0  0.29783  0.401282  -5.6e-05  0.923867  0.0
H  H25  1  0.31004831  0.02579544  0.02834947  1  0.430678  -0.000697  0.862103  -0.001  0.40857  -0.000152  0.913542  0.0  0.418606  -0.000246  0.899221  0.0  0.297818  0.401247  -5.5e-05  0.923915  0.0
H  H26  1  0.19262167  0.72196284  0.60891304  1  0.431795  -0.000637  0.870437  -0.001  0.399581  -0.000171  0.937295  0.0  0.411126  -0.000306  0.920804  0.0  0.299362  0.39135  -1.7e-05  0.948945  0.0
H  H27  1  0.19262430  0.77803613  0.10891287  1  0.431824  -0.000637  0.870411  -0.001  0.399604  -0.000171  0.93727  0.0  0.411148  -0.000306  0.920778  0.0  0.299364  0.391376  -1.7e-05  0.948913  0.0
H  H28  1  0.80737577  0.27803735  0.39108776  1  0.431812  -0.000638  0.87043  -0.001  0.399598  -0.000171  0.937276  0.0  0.411142  -0.000306  0.920785  0.0  0.29937  0.391364  -1.7e-05  0.948931  0.0
H  H29  1  0.80737630  0.22196407  0.89108869  1  0.431809  -0.000637  0.870437  -0.001  0.39959  -0.000171  0.937293  0.0  0.411135  -0.000306  0.920802  0.0  0.299356  0.391361  -1.7e-05  0.948942  0.0
H  H30  1  0.41111133  0.65136860  0.65171513  1  0.430619  -0.001129  0.811144  -0.001  0.414211  -0.000501  0.86368  0.0  0.422989  -0.000553  0.854306  0.0  0.325394  0.407934  -0.000419  0.870176  0.0
H  H31  1  0.41111566  0.84862801  0.15171437  1  0.430617  -0.001128  0.811139  -0.001  0.414203  -0.000501  0.863683  0.0  0.42298  -0.000553  0.854309  0.0  0.325378  0.407924  -0.000419  0.870177  0.0
H  H32  1  0.58888777  0.34863284  0.34828445  1  0.430621  -0.00113  0.811136  -0.001  0.414214  -0.000501  0.863671  0.0  0.422991  -0.000553  0.854296  0.0  0.325386  0.407936  -0.000419  0.87016  0.0
H  H33  1  0.58888821  0.15136719  0.84828539  1  0.430612  -0.001129  0.811156  -0.001  0.414198  -0.000501  0.863702  0.0  0.422976  -0.000553  0.854327  0.0  0.325374  0.407919  -0.000419  0.870194  0.0
C  C34  1  0.18327001  0.73510540  0.38393048  1  0.708387  -0.010401  3.849116  -0.008  0.67141  0.000785  4.14369  0.001  0.71099  0.000241  4.132226  0.001  0.216162  0.642222  0.000738  4.15137  0.001
C  C35  1  0.18327549  0.76489455  0.88392902  1  0.708266  -0.010414  3.849167  -0.008  0.671448  0.000786  4.143528  0.001  0.711015  0.000242  4.132086  0.001  0.216209  0.642266  0.000739  4.151199  0.001
C  C36  1  0.81672899  0.26489729  0.61607102  1  0.708404  -0.010391  3.849135  -0.008  0.671416  0.000786  4.143723  0.001  0.710993  0.000242  4.132263  0.001  0.21615  0.642219  0.000738  4.151417  0.001
C  C37  1  0.81672838  0.23510690  0.11607074  1  0.708274  -0.010409  3.8493  -0.008  0.671433  0.000787  4.14368  0.001  0.711006  0.000242  4.132229  0.001  0.216171  0.642245  0.000739  4.15136  0.001
C  C38  1  0.11821434  0.68253686  0.29442756  1  -0.153905  0.009024  3.634284  0.012  -0.173817  0.005555  3.884684  0.007  -0.179285  0.003872  3.896907  0.005  -0.082065  -0.171863  0.007191  3.880089  0.009
C  C39  1  0.11821355  0.81746062  0.79442520  1  -0.153821  0.009056  3.634276  0.012  -0.173791  0.005554  3.884661  0.007  -0.179258  0.003872  3.896892  0.005  -0.082078  -0.171836  0.00719  3.880067  0.009
C  C40  1  0.88178470  0.31746458  0.70557329  1  -0.153899  0.009  3.634266  0.012  -0.173791  0.005555  3.884669  0.007  -0.179257  0.003872  3.896893  0.005  -0.082059  -0.171833  0.00719  3.880078  0.009
C  C41  1  0.88178721  0.18253833  0.20557315  1  -0.153861  0.009004  3.634262  0.012  -0.173815  0.005554  3.884645  0.007  -0.179279  0.003873  3.896871  0.005  -0.082061  -0.171861  0.00719  3.880054  0.009
C  C42  1  0.85038664  0.65812321  0.16923899  1  0.699782  -0.008095  3.859191  -0.006  0.663094  -0.000293  4.149645  0.0  0.70106  -0.000538  4.140352  0.0  0.214966  0.635515  -0.000432  4.155553  0.0
C  C43  1  0.85038578  0.84187499  0.66923855  1  0.699752  -0.008109  3.859172  -0.006  0.663076  -0.000293  4.149628  0.0  0.701041  -0.000538  4.140335  0.0  0.21496  0.635502  -0.000432  4.155533  0.0
C  C44  1  0.14961402  0.34187574  0.83076129  1  0.699703  -0.008101  3.859092  -0.006  0.663016  -0.000293  4.149571  0.0  0.70098  -0.000538  4.140281  0.0  0.214934  0.635441  -0.000432  4.155471  0.0
C  C45  1  0.14961491  0.15812396  0.33076109  1  0.699723  -0.00811  3.859245  -0.006  0.663031  -0.000293  4.149713  0.0  0.700997  -0.000538  4.14042  0.0  0.214945  0.635453  -0.000432  4.15562  0.0
C  C46  1  0.91687506  0.69745687  0.26037158  1  -0.162443  0.00413  3.644601  0.007  -0.18299  0.004423  3.896443  0.006  -0.188188  0.002936  3.909142  0.004  -0.084205  -0.18134  0.005589  3.891575  0.007
C  C47  1  0.91687896  0.80254129  0.76037069  1  -0.162485  0.004089  3.644729  0.007  -0.183069  0.004424  3.896652  0.006  -0.188266  0.002937  3.909352  0.004  -0.084256  -0.181425  0.00559  3.891789  0.007
C  C48  1  0.08312083  0.30254332  0.73962852  1  -0.162411  0.004167  3.644608  0.007  -0.182993  0.004423  3.896502  0.006  -0.188191  0.002936  3.909198  0.004  -0.084234  -0.181343  0.005589  3.891638  0.007
C  C49  1  0.08312495  0.19745641  0.23962843  1  -0.162436  0.004171  3.644607  0.007  -0.183006  0.004424  3.896497  0.006  -0.188205  0.002936  3.909197  0.004  -0.084227  -0.181358  0.00559  3.891634  0.007
O  O50  1  0.03698271  0.77531824  0.43290179  1  -0.662123  0.029996  2.12915  0.054  -0.622512  0.018937  2.389198  0.033  -0.657418  0.012867  2.376121  0.025  -0.316655  -0.594544  0.025076  2.397675  0.042
O  O51  1  0.03698645  0.72468153  0.93290220  1  -0.662007  0.03  2.129141  0.054  -0.622469  0.018937  2.389136  0.033  -0.657373  0.012867  2.376074  0.025  -0.316611  -0.594499  0.025075  2.397609  0.042
O  O52  1  0.96301474  0.22468320  0.56709901  1  -0.662111  0.029994  2.129185  0.054  -0.622514  0.018936  2.389263  0.033  -0.657421  0.012866  2.376193  0.025  -0.316626  -0.594542  0.025073  2.397746  0.042
O  O53  1  0.96301580  0.27531866  0.06709814  1  -0.66208  0.029999  2.12924  0.054  -0.622503  0.018937  2.389199  0.033  -0.657409  0.012867  2.376132  0.025  -0.316631  -0.594528  0.025075  2.397672  0.042
O  O54  1  0.38235356  0.74143628  0.40416304  1  -0.591567  0.053779  2.019775  0.094  -0.568486  0.034969  2.283466  0.063  -0.60484  0.025226  2.270449  0.048  -0.303158  -0.540387  0.044546  2.292355  0.076
O  O55  1  0.38235900  0.75856506  0.90416222  1  -0.591546  0.053781  2.019823  0.094  -0.568525  0.034968  2.283467  0.063  -0.604878  0.025224  2.270455  0.048  -0.303197  -0.540427  0.044545  2.292351  0.076
O  O56  1  0.61764554  0.25856766  0.59583654  1  -0.591562  0.053775  2.019741  0.094  -0.568478  0.034969  2.283444  0.063  -0.604834  0.025225  2.270429  0.048  -0.303145  -0.540373  0.044545  2.29233  0.076
O  O57  1  0.61764487  0.24143763  0.09583754  1  -0.591508  0.053777  2.019846  0.094  -0.56848  0.034969  2.283486  0.063  -0.604836  0.025225  2.270473  0.048  -0.303155  -0.540378  0.044545  2.292375  0.076
O  O58  1  0.65147918  0.64526794  0.14943753  1  -0.617843  0.037286  2.005625  0.066  -0.589662  0.025466  2.259377  0.046  -0.623861  0.018419  2.246349  0.035  -0.309633  -0.563215  0.032339  2.268255  0.055
O  O59  1  0.65147828  0.85473136  0.64943836  1  -0.617846  0.037287  2.005627  0.066  -0.589664  0.025466  2.259372  0.046  -0.623859  0.018419  2.246346  0.035  -0.309655  -0.563219  0.032339  2.268248  0.055
O  O60  1  0.34851833  0.35473101  0.85056199  1  -0.617798  0.037285  2.005654  0.066  -0.589611  0.025465  2.259401  0.046  -0.623806  0.018418  2.246374  0.035  -0.309608  -0.563164  0.032337  2.268276  0.055
O  O61  1  0.34852079  0.14526758  0.35056186  1  -0.617845  0.037287  2.005666  0.066  -0.589659  0.025466  2.259416  0.046  -0.623855  0.018419  2.246387  0.035  -0.309646  -0.563213  0.032339  2.268293  0.055
O  O62  1  0.99665656  0.64055590  0.11691658  1  -0.648504  0.034659  2.119167  0.062  -0.602436  0.024209  2.37107  0.043  -0.638312  0.017249  2.361285  0.033  -0.30382  -0.574136  0.03123  2.376955  0.053
O  O63  1  0.99665413  0.85944247  0.61691607  1  -0.648509  0.034662  2.119161  0.062  -0.60243  0.024209  2.371059  0.043  -0.638304  0.017249  2.361275  0.033  -0.303803  -0.574132  0.03123  2.376944  0.053
O  O64  1  0.00334245  0.35944180  0.88308492  1  -0.648495  0.034664  2.119055  0.062  -0.602414  0.024211  2.370954  0.043  -0.638286  0.01725  2.361168  0.033  -0.303803  -0.574114  0.031232  2.376834  0.053
O  O65  1  0.00334497  0.14055897  0.38308351  1  -0.648485  0.034666  2.11918  0.062  -0.602405  0.024209  2.371076  0.043  -0.63828  0.017249  2.361293  0.033  -0.303799  -0.574105  0.03123  2.37696  0.053
O  O66  1  0.31424318  0.01454736  0.53675404  1  -0.885138  0.156682  2.04375  0.266  -0.918836  0.098595  2.379634  0.167  -0.980313  0.073281  2.356286  0.131  -0.551977  -0.8652  0.12116  2.392442  0.197
O  O67  1  0.31424128  0.48545275  0.03675365  1  -0.885107  0.156684  2.043681  0.266  -0.918794  0.098595  2.379528  0.167  -0.980277  0.07328  2.356183  0.131  -0.551975  -0.865159  0.12116  2.392343  0.197
O  O68  1  0.68575592  0.98545408  0.46324553  1  -0.885092  0.156682  2.043672  0.266  -0.918794  0.098594  2.379547  0.167  -0.98027  0.073279  2.356202  0.131  -0.551972  -0.865153  0.12116  2.392356  0.197
O  O69  1  0.68575942  0.51454744  0.96324599  1  -0.885107  0.156683  2.04373  0.266  -0.918789  0.098595  2.379568  0.167  -0.980274  0.07328  2.356222  0.131  -0.551975  -0.865152  0.121159  2.392374  0.197
O  O70  1  0.73490351  0.61543969  0.51274047  1  -0.804136  0.034703  1.898074  0.06  -0.777091  0.024894  2.085819  0.043  -0.805865  0.018605  2.053711  0.035  -0.579674  -0.753626  0.030635  2.108903  0.05
O  O71  1  0.73490625  0.88456106  0.01274028  1  -0.804087  0.034702  1.898095  0.06  -0.777035  0.024895  2.085858  0.043  -0.805818  0.018605  2.053759  0.035  -0.57966  -0.753567  0.030634  2.108943  0.05
O  O72  1  0.26509400  0.38456050  0.48725904  1  -0.804107  0.034701  1.898099  0.06  -0.777064  0.024895  2.085823  0.043  -0.805851  0.018605  2.053738  0.035  -0.579665  -0.753598  0.030635  2.10891  0.05
O  O73  1  0.26509275  0.11543913  0.98726122  1  -0.804152  0.034701  1.898068  0.06  -0.777105  0.024895  2.085823  0.043  -0.805886  0.018604  2.053721  0.035  -0.57969  -0.753629  0.030635  2.108914  0.05
O  O74  1  0.31961130  0.65040942  0.59834474  1  -0.795242  0.025886  1.938332  0.043  -0.753732  0.02191  2.127067  0.036  -0.779779  0.016901  2.096814  0.03  -0.54378  -0.733194  0.026366  2.148711  0.041
O  O75  1  0.31961401  0.84958842  0.09834456  1  -0.795265  0.025884  1.938304  0.043  -0.753728  0.02191  2.127018  0.036  -0.77978  0.016901  2.096763  0.03  -0.543765  -0.733209  0.026366  2.148686  0.041
O  O76  1  0.68038777  0.34959078  0.40165548  1  -0.795255  0.025887  1.938314  0.043  -0.753743  0.02191  2.127037  0.036  -0.779793  0.0169  2.096783  0.03  -0.543782  -0.733206  0.026367  2.148677  0.041
O  O77  1  0.68038821  0.15041178  0.90165642  1  -0.795233  0.025885  1.938333  0.043  -0.753707  0.02191  2.127052  0.036  -0.779758  0.0169  2.096798  0.03  -0.543756  -0.733185  0.026366  2.148706  0.041
