# generated using pymatgen
data_ZnH8C8(N3O2)2
_symmetry_space_group_name_H-M   'P 1'
_cell_length_a   8.66725119
_cell_length_b   9.89068011
_cell_length_c   13.62957050
_cell_angle_alpha   89.99992725
_cell_angle_beta   89.99995242
_cell_angle_gamma   99.21499769
_symmetry_Int_Tables_number   1
_chemical_formula_structural   ZnH8C8(N3O2)2
_chemical_formula_sum   'Zn4 H32 C32 N24 O16'
_cell_volume   1153.31619252
_cell_formula_units_Z   4
loop_
 _symmetry_equiv_pos_site_id
 _symmetry_equiv_pos_as_xyz
  1  'x, y, z'
loop_
 _atom_site_type_symbol
 _atom_site_label
 _atom_site_symmetry_multiplicity
 _atom_site_fract_x
 _atom_site_fract_y
 _atom_site_fract_z
 _atom_site_occupancy
 _atom_site_hle17_bader_spin_density
 _atom_site_hle17_ddec_charge
 _atom_site_hle17_ddec_spin_density
 _atom_site_hle17_ddec_sum_bond_order
 _atom_site_hle17_magmom
 _atom_site_hse06_10hf_bader_spin_density
 _atom_site_hse06_10hf_ddec_charge
 _atom_site_hse06_10hf_ddec_spin_density
 _atom_site_hse06_10hf_ddec_sum_bond_order
 _atom_site_hse06_10hf_magmom
 _atom_site_hse06_bader_spin_density
 _atom_site_hse06_ddec_charge
 _atom_site_hse06_ddec_spin_density
 _atom_site_hse06_ddec_sum_bond_order
 _atom_site_hse06_magmom
 _atom_site_pbe_bader_spin_density
 _atom_site_pbe_cm5_charge
 _atom_site_pbe_ddec_charge
 _atom_site_pbe_ddec_spin_density
 _atom_site_pbe_ddec_sum_bond_order
 _atom_site_pbe_magmom
Zn  Zn0  1  0.29623685  0.85531945  0.95058781  1  0  1.002909  0  1.861796  0  0  0.814341  0  2.331858  0  0  0.860929  0  2.278389  0  0  0.699491  0.781821  0  2.368583  0
Zn  Zn1  1  0.70376393  0.64468010  0.45058672  1  0  1.002928  0  1.861832  0  0  0.814376  0  2.33188  0  0  0.86096  0  2.278412  0  0  0.69951  0.781853  0  2.368604  0
Zn  Zn2  1  0.70376343  0.14468241  0.04941363  1  0  1.002947  0  1.861828  0  0  0.814374  0  2.331893  0  0  0.860961  0  2.278426  0  0  0.699513  0.781853  0  2.368619  0
Zn  Zn3  1  0.29623597  0.35531971  0.54941252  1  0  1.002914  0  1.86186  0  0  0.814347  0  2.331903  0  0  0.860934  0  2.27844  0  0  0.699491  0.781829  0  2.368632  0
H  H4  1  0.94577053  0.67370425  0.99365511  1  0  0.108296  0  0.943803  0  0  0.112853  0  1.011071  0  0  0.115767  0  1.007914  0  0  0.136669  0.11067  0  1.013486  0
H  H5  1  0.05422959  0.82629830  0.49365713  1  0  0.108362  0  0.943663  0  0  0.11288  0  1.010988  0  0  0.115794  0  1.007831  0  0  0.136693  0.110696  0  1.013402  0
H  H6  1  0.05423244  0.32629966  0.00634340  1  0  0.108384  0  0.943684  0  0  0.11289  0  1.011033  0  0  0.115803  0  1.007877  0  0  0.136683  0.110707  0  1.013447  0
H  H7  1  0.94577261  0.17370152  0.50634431  1  0  0.108337  0  0.943748  0  0  0.112912  0  1.011016  0  0  0.115825  0  1.00786  0  0  0.136682  0.110726  0  1.013436  0
H  H8  1  0.22830872  0.68680143  0.74026433  1  0  0.124389  0  0.934972  0  0  0.128892  0  1.004704  0  0  0.132242  0  1.000659  0  0  0.147038  0.126396  0  1.007605  0
H  H9  1  0.77169125  0.81319855  0.24026378  1  0  0.12439  0  0.934976  0  0  0.12889  0  1.004712  0  0  0.13224  0  1.000667  0  0  0.147036  0.126394  0  1.007614  0
H  H10  1  0.77169118  0.31319839  0.25973564  1  0  0.124397  0  0.934975  0  0  0.1289  0  1.004701  0  0  0.132249  0  1.000656  0  0  0.147032  0.126404  0  1.007602  0
H  H11  1  0.22830635  0.18680127  0.75973619  1  0  0.124402  0  0.934964  0  0  0.128898  0  1.004699  0  0  0.132248  0  1.000654  0  0  0.14703  0.126402  0  1.007601  0
H  H12  1  0.86898106  0.41276583  0.70626908  1  0  0.135832  0  0.897638  0  0  0.147254  0  0.957669  0  0  0.150143  0  0.955461  0  0  0.130129  0.145021  0  0.959583  0
H  H13  1  0.13102020  0.08723495  0.20626908  1  0  0.135846  0  0.897647  0  0  0.147275  0  0.957684  0  0  0.150166  0  0.955475  0  0  0.130154  0.145042  0  0.959601  0
H  H14  1  0.13102152  0.58723603  0.29373016  1  0  0.135869  0  0.897654  0  0  0.147302  0  0.957681  0  0  0.150192  0  0.955473  0  0  0.130179  0.145069  0  0.959597  0
H  H15  1  0.86897836  0.91276384  0.79373016  1  0  0.135913  0  0.897577  0  0  0.147319  0  0.957649  0  0  0.150208  0  0.955441  0  0  0.130188  0.145085  0  0.959564  0
H  H16  1  0.05281239  0.47584450  0.65097846  1  0  0.121123  0  0.934081  0  0  0.131998  0  1.001294  0  0  0.134096  0  1.000424  0  0  0.123663  0.130426  0  1.002062  0
H  H17  1  0.94718781  0.02415640  0.15097882  1  0  0.121112  0  0.934066  0  0  0.131996  0  1.001284  0  0  0.134097  0  1.000415  0  0  0.123652  0.130425  0  1.002052  0
H  H18  1  0.94718674  0.52415737  0.34902225  1  0  0.121128  0  0.934058  0  0  0.132008  0  1.001287  0  0  0.134108  0  1.000418  0  0  0.12366  0.130437  0  1.002054  0
H  H19  1  0.05281074  0.97584239  0.84902262  1  0  0.121119  0  0.934084  0  0  0.132003  0  1.001309  0  0  0.134104  0  1.000439  0  0  0.123674  0.130432  0  1.002076  0
H  H20  1  0.67409977  0.82141429  0.96637326  1  0  0.105218  0  0.954986  0  0  0.112845  0  1.016551  0  0  0.115793  0  1.013349  0  0  0.133581  0.110487  0  1.01915  0
H  H21  1  0.32590463  0.67858625  0.46637453  1  0  0.105158  0  0.955034  0  0  0.112758  0  1.016649  0  0  0.115704  0  1.013447  0  0  0.133572  0.110402  0  1.019247  0
H  H22  1  0.32590013  0.17858552  0.03362598  1  0  0.105219  0  0.954948  0  0  0.112874  0  1.016494  0  0  0.115823  0  1.013289  0  0  0.133583  0.110516  0  1.019094  0
H  H23  1  0.67409527  0.32141356  0.53362617  1  0  0.105181  0  0.955046  0  0  0.112816  0  1.016605  0  0  0.115762  0  1.013403  0  0  0.133595  0.110459  0  1.019204  0
H  H24  1  0.27107019  0.61037718  0.10535733  1  0  0.113478  0  0.988005  0  0  0.112667  0  1.068703  0  0  0.116934  0  1.06267  0  0  0.138092  0.109511  0  1.07304  0
H  H25  1  0.72893001  0.88962307  0.60535817  1  0  0.11352  0  0.988017  0  0  0.112719  0  1.068693  0  0  0.116986  0  1.06266  0  0  0.138105  0.109562  0  1.073032  0
H  H26  1  0.72892856  0.38962264  0.89464337  1  0  0.113519  0  0.987986  0  0  0.112717  0  1.06867  0  0  0.116983  0  1.062638  0  0  0.138103  0.10956  0  1.073007  0
H  H27  1  0.27106874  0.11037675  0.39464181  1  0  0.113505  0  0.988033  0  0  0.11271  0  1.06871  0  0  0.116976  0  1.062679  0  0  0.138099  0.109553  0  1.073047  0
H  H28  1  0.60378059  0.42218363  0.16593371  1  0  0.119521  0  0.945526  0  0  0.125801  0  1.017507  0  0  0.128161  0  1.015863  0  0  0.11867  0.124044  0  1.018945  0
H  H29  1  0.39622055  0.07781621  0.66593354  1  0  0.119471  0  0.945444  0  0  0.12575  0  1.017435  0  0  0.12811  0  1.01579  0  0  0.118644  0.123993  0  1.018874  0
H  H30  1  0.39622046  0.57781619  0.83406553  1  0  0.119475  0  0.945463  0  0  0.125751  0  1.017452  0  0  0.128111  0  1.015809  0  0  0.11865  0.123995  0  1.01889  0
H  H31  1  0.60378050  0.92218360  0.33406717  1  0  0.119463  0  0.945449  0  0  0.125767  0  1.017421  0  0  0.128129  0  1.015773  0  0  0.118647  0.124011  0  1.018859  0
H  H32  1  0.40402077  0.42344087  0.19163303  1  0  0.130764  0  0.90569  0  0  0.142683  0  0.965848  0  0  0.145207  0  0.964093  0  0  0.128422  0.140847  0  0.967246  0
H  H33  1  0.59598052  0.07655994  0.69163349  1  0  0.130785  0  0.905705  0  0  0.142704  0  0.965843  0  0  0.145228  0  0.964087  0  0  0.128437  0.140868  0  0.967243  0
H  H34  1  0.59598144  0.57655894  0.80836768  1  0  0.130762  0  0.905666  0  0  0.142665  0  0.965832  0  0  0.145189  0  0.964078  0  0  0.128419  0.140831  0  0.967231  0
H  H35  1  0.40401938  0.92343988  0.30836722  1  0  0.130778  0  0.905705  0  0  0.142703  0  0.965855  0  0  0.145226  0  0.964099  0  0  0.128435  0.140868  0  0.967253  0
C  C36  1  0.98663453  0.65591177  0.92019204  1  0  0.203844  0  3.684058  0  0  0.150794  0  3.968978  0  0  0.161979  0  3.982605  0  0  0.151624  0.143479  0  3.959974  0
C  C37  1  0.01336456  0.84409092  0.42019260  1  0  0.20383  0  3.683886  0  0  0.150802  0  3.968811  0  0  0.161987  0  3.982439  0  0  0.151623  0.14349  0  3.959805  0
C  C38  1  0.01336403  0.34408702  0.07980793  1  0  0.203674  0  3.683913  0  0  0.150647  0  3.968843  0  0  0.161832  0  3.982471  0  0  0.15157  0.143336  0  3.959837  0
C  C39  1  0.98663650  0.15590889  0.57980811  1  0  0.203754  0  3.683994  0  0  0.15068  0  3.968906  0  0  0.161864  0  3.982535  0  0  0.151612  0.143365  0  3.959903  0
C  C40  1  0.13377873  0.66454031  0.79303199  1  0  0.187889  0  3.601505  0  0  0.106456  0  3.866044  0  0  0.121942  0  3.874955  0  0  0.172989  0.096448  0  3.859851  0
C  C41  1  0.86622116  0.83545956  0.29303210  1  0  0.187868  0  3.601514  0  0  0.106446  0  3.86604  0  0  0.121931  0  3.874952  0  0  0.172982  0.096437  0  3.859848  0
C  C42  1  0.86622252  0.33546053  0.20696872  1  0  0.187829  0  3.601632  0  0  0.106401  0  3.866147  0  0  0.121887  0  3.875059  0  0  0.172981  0.096392  0  3.859954  0
C  C43  1  0.13377740  0.16453923  0.70696861  1  0  0.187848  0  3.601574  0  0  0.106432  0  3.866097  0  0  0.121919  0  3.875007  0  0  0.172987  0.096423  0  3.859904  0
C  C44  1  0.95048416  0.50569960  0.68744524  1  0  -0.172153  0  3.604374  0  0  -0.246165  0  3.848879  0  0  -0.247513  0  3.8543  0  0  -0.045002  -0.245042  0  3.845233  0
C  C45  1  0.04951609  0.99430151  0.18744564  1  0  -0.172063  0  3.604275  0  0  -0.246123  0  3.848871  0  0  -0.247474  0  3.854292  0  0  -0.044994  -0.245  0  3.845225  0
C  C46  1  0.04951612  0.49430226  0.31255473  1  0  -0.172073  0  3.60421  0  0  -0.24617  0  3.848827  0  0  -0.247521  0  3.85425  0  0  -0.044996  -0.245048  0  3.845181  0
C  C47  1  0.95048362  0.00569729  0.81255433  1  0  -0.172074  0  3.604221  0  0  -0.246147  0  3.848834  0  0  -0.247496  0  3.854255  0  0  -0.045011  -0.245024  0  3.845187  0
C  C48  1  0.87591308  0.59781469  0.61680396  1  0  0.674349  0  3.888124  0  0  0.629621  0  4.188275  0  0  0.661685  0  4.182947  0  0  0.205388  0.607855  0  4.191044  0
C  C49  1  0.12408710  0.90218554  0.11680514  1  0  0.674218  0  3.888167  0  0  0.629485  0  4.188367  0  0  0.661548  0  4.183039  0  0  0.205351  0.607719  0  4.191133  0
C  C50  1  0.12408760  0.40218308  0.38319528  1  0  0.674278  0  3.888125  0  0  0.629541  0  4.18832  0  0  0.661604  0  4.182994  0  0  0.205363  0.607776  0  4.191087  0
C  C51  1  0.87591318  0.09781633  0.88319410  1  0  0.674104  0  3.888074  0  0  0.629404  0  4.188227  0  0  0.661466  0  4.182898  0  0  0.205295  0.607638  0  4.190995  0
C  C52  1  0.59768305  0.74813067  0.01085898  1  0  0.224268  0  3.681367  0  0  0.168613  0  3.974297  0  0  0.181596  0  3.98489  0  0  0.149391  0.160141  0  3.967016  0
C  C53  1  0.40231961  0.75186976  0.51086011  1  0  0.224295  0  3.681403  0  0  0.168633  0  3.974353  0  0  0.181621  0  3.984941  0  0  0.149356  0.160159  0  3.967076  0
C  C54  1  0.40231551  0.25186812  0.98914100  1  0  0.224324  0  3.681358  0  0  0.168624  0  3.974282  0  0  0.181606  0  3.984877  0  0  0.149383  0.160152  0  3.967003  0
C  C55  1  0.59768182  0.24813210  0.48913987  1  0  0.224293  0  3.681384  0  0  0.168623  0  3.974325  0  0  0.18161  0  3.984914  0  0  0.149335  0.160152  0  3.967042  0
C  C56  1  0.39009198  0.64448000  0.08093172  1  0  0.196146  0  3.614436  0  0  0.110765  0  3.884605  0  0  0.127655  0  3.892115  0  0  0.168013  0.100055  0  3.879182  0
C  C57  1  0.60990961  0.85551517  0.58093338  1  0  0.196001  0  3.614523  0  0  0.110658  0  3.884738  0  0  0.12755  0  3.892247  0  0  0.16801  0.099946  0  3.879316  0
C  C58  1  0.60990697  0.35551469  0.91906752  1  0  0.196056  0  3.614496  0  0  0.110676  0  3.884679  0  0  0.127566  0  3.892191  0  0  0.167985  0.099967  0  3.879255  0
C  C59  1  0.39008932  0.14448567  0.41906659  1  0  0.196015  0  3.61448  0  0  0.110627  0  3.884698  0  0  0.127517  0  3.892209  0  0  0.167963  0.099917  0  3.879274  0
C  C60  1  0.51899553  0.48813558  0.18548311  1  0  -0.165827  0  3.609697  0  0  -0.236908  0  3.850026  0  0  -0.237801  0  3.855657  0  0  -0.048368  -0.236144  0  3.84633  0
C  C61  1  0.48100558  0.01186422  0.68548295  1  0  -0.165841  0  3.609555  0  0  -0.236847  0  3.849877  0  0  -0.237744  0  3.855518  0  0  -0.048346  -0.236091  0  3.846192  0
C  C62  1  0.48100552  0.51186424  0.81451760  1  0  -0.165809  0  3.609522  0  0  -0.236843  0  3.849863  0  0  -0.237727  0  3.855475  0  0  -0.048348  -0.236085  0  3.846175  0
C  C63  1  0.51899432  0.98813559  0.31451702  1  0  -0.165784  0  3.609554  0  0  -0.236876  0  3.849907  0  0  -0.23777  0  3.855541  0  0  -0.048349  -0.236116  0  3.846217  0
C  C64  1  0.55983938  0.56373233  0.28265854  1  0  0.660975  0  3.881067  0  0  0.617263  0  4.17767  0  0  0.649564  0  4.172066  0  0  0.200363  0.59545  0  4.180524  0
C  C65  1  0.44016186  0.93626859  0.78265875  1  0  0.660958  0  3.881082  0  0  0.617241  0  4.177678  0  0  0.649542  0  4.172072  0  0  0.200357  0.595428  0  4.180532  0
C  C66  1  0.44016148  0.43626646  0.71734217  1  0  0.660972  0  3.881102  0  0  0.617256  0  4.177694  0  0  0.649556  0  4.172092  0  0  0.200361  0.595443  0  4.180545  0
C  C67  1  0.55983804  0.06373123  0.21734123  1  0  0.660947  0  3.881056  0  0  0.617262  0  4.177627  0  0  0.649562  0  4.172022  0  0  0.200373  0.59545  0  4.180478  0
N  N68  1  0.00204455  0.57635863  0.77740061  1  0  0.08164  0  3.585988  0  0  0.200161  0  3.770303  0  0  0.192217  0  3.790539  0  0  -0.126271  0.205042  0  3.756749  0
N  N69  1  0.99795554  0.92364230  0.27740057  1  0  0.081642  0  3.585948  0  0  0.200185  0  3.77026  0  0  0.192241  0  3.790496  0  0  -0.126259  0.205066  0  3.756706  0
N  N70  1  0.99795669  0.42364221  0.22260010  1  0  0.081586  0  3.586013  0  0  0.200178  0  3.770269  0  0  0.192234  0  3.790504  0  0  -0.126279  0.20506  0  3.756714  0
N  N71  1  0.00204417  0.07635650  0.72259940  1  0  0.081633  0  3.586121  0  0  0.200187  0  3.770402  0  0  0.192244  0  3.790637  0  0  -0.126279  0.205069  0  3.756846  0
N  N72  1  0.90571739  0.57120148  0.85668167  1  0  -0.259238  0  2.86827  0  0  -0.254035  0  3.131191  0  0  -0.264339  0  3.145685  0  0  -0.206008  -0.247154  0  3.121704  0
N  N73  1  0.09428277  0.92880032  0.35668137  1  0  -0.259261  0  2.868246  0  0  -0.254057  0  3.131154  0  0  -0.26436  0  3.145649  0  0  -0.206022  -0.247176  0  3.121666  0
N  N74  1  0.09428174  0.42880039  0.14331684  1  0  -0.259183  0  2.868209  0  0  -0.253982  0  3.131097  0  0  -0.264285  0  3.145591  0  0  -0.205993  -0.247102  0  3.121609  0
N  N75  1  0.90571829  0.07119950  0.64331860  1  0  -0.259228  0  2.868301  0  0  -0.254023  0  3.131216  0  0  -0.264326  0  3.145711  0  0  -0.206024  -0.247142  0  3.121728  0
N  N76  1  0.12846756  0.71621419  0.88381399  1  0  -0.425366  0  3.256812  0  0  -0.345006  0  3.563771  0  0  -0.367398  0  3.57353  0  0  -0.348872  -0.330038  0  3.556983  0
N  N77  1  0.87153370  0.78378755  0.38381415  1  0  -0.425392  0  3.256758  0  0  -0.345047  0  3.563723  0  0  -0.367439  0  3.573482  0  0  -0.348882  -0.330076  0  3.55693  0
N  N78  1  0.87152925  0.28378768  0.11618672  1  0  -0.425293  0  3.256734  0  0  -0.344956  0  3.563714  0  0  -0.367348  0  3.573475  0  0  -0.348869  -0.329987  0  3.556923  0
N  N79  1  0.12846754  0.21621329  0.61618656  1  0  -0.425331  0  3.256748  0  0  -0.344988  0  3.563722  0  0  -0.36738  0  3.573484  0  0  -0.348867  -0.33002  0  3.556936  0
N  N80  1  0.51279357  0.58689106  0.10785993  1  0  0.060626  0  3.593892  0  0  0.180335  0  3.778768  0  0  0.169012  0  3.804561  0  0  -0.137792  0.187026  0  3.762432  0
N  N81  1  0.48720874  0.91310815  0.60785940  1  0  0.060829  0  3.593765  0  0  0.180338  0  3.778885  0  0  0.169013  0  3.804678  0  0  -0.137807  0.187041  0  3.762528  0
N  N82  1  0.48720595  0.41310671  0.89214151  1  0  0.060785  0  3.593752  0  0  0.180407  0  3.778722  0  0  0.169084  0  3.804517  0  0  -0.137778  0.18709  0  3.762403  0
N  N83  1  0.51279250  0.08689268  0.39214057  1  0  0.06075  0  3.593752  0  0  0.180367  0  3.778767  0  0  0.169044  0  3.80456  0  0  -0.137772  0.187054  0  3.76244  0
N  N84  1  0.64721982  0.65287151  0.06531046  1  0  -0.28558  0  2.816494  0  0  -0.289269  0  3.087207  0  0  -0.298314  0  3.10016  0  0  -0.230532  -0.283077  0  3.078471  0
N  N85  1  0.35278275  0.84712881  0.56531007  1  0  -0.285628  0  2.816539  0  0  -0.289253  0  3.087307  0  0  -0.298298  0  3.100258  0  0  -0.23054  -0.283064  0  3.07857  0
N  N86  1  0.35277874  0.34712728  0.93469098  1  0  -0.285646  0  2.816465  0  0  -0.289304  0  3.087222  0  0  -0.29835  0  3.100175  0  0  -0.230533  -0.283109  0  3.078485  0
N  N87  1  0.64721830  0.15287101  0.43469064  1  0  -0.285601  0  2.816507  0  0  -0.289262  0  3.087265  0  0  -0.298308  0  3.100217  0  0  -0.230535  -0.28307  0  3.078529  0
N  N88  1  0.43974020  0.74665935  0.01837209  1  0  -0.422896  0  3.27857  0  0  -0.339392  0  3.590524  0  0  -0.362352  0  3.597869  0  0  -0.354689  -0.324003  0  3.585149  0
N  N89  1  0.56026072  0.75333800  0.51837167  1  0  -0.422871  0  3.278594  0  0  -0.339327  0  3.590511  0  0  -0.362284  0  3.597847  0  0  -0.354665  -0.323938  0  3.585138  0
N  N90  1  0.56025682  0.25333740  0.98163008  1  0  -0.422995  0  3.27871  0  0  -0.339435  0  3.590629  0  0  -0.362393  0  3.597968  0  0  -0.35469  -0.324047  0  3.585255  0
N  N91  1  0.43974052  0.24666284  0.48162903  1  0  -0.422876  0  3.278606  0  0  -0.339338  0  3.590549  0  0  -0.362298  0  3.59789  0  0  -0.354645  -0.323952  0  3.58518  0
O  O92  1  0.80475911  0.53062681  0.54390296  1  0  -0.651285  0  2.027091  0  0  -0.573874  0  2.288841  0  0  -0.602909  0  2.274259  0  0  -0.333854  -0.553402  0  2.298009  0
O  O93  1  0.19524196  0.96937151  0.04390258  1  0  -0.651222  0  2.027085  0  0  -0.573794  0  2.28883  0  0  -0.602835  0  2.27426  0  0  -0.333819  -0.553322  0  2.297997  0
O  O94  1  0.19524098  0.46937403  0.45609701  1  0  -0.651289  0  2.027037  0  0  -0.573837  0  2.288765  0  0  -0.60287  0  2.27418  0  0  -0.333838  -0.553366  0  2.297933  0
O  O95  1  0.80475852  0.03062523  0.95609666  1  0  -0.651186  0  2.026889  0  0  -0.573776  0  2.288626  0  0  -0.602808  0  2.274038  0  0  -0.333795  -0.553304  0  2.297793  0
O  O96  1  0.89088736  0.72332214  0.63101271  1  0  -0.609439  0  1.912009  0  0  -0.568744  0  2.133953  0  0  -0.591391  0  2.126452  0  0  -0.320064  -0.552945  0  2.138585  0
O  O97  1  0.10911279  0.77667806  0.13101328  1  0  -0.609405  0  1.912014  0  0  -0.568714  0  2.133974  0  0  -0.59136  0  2.126473  0  0  -0.320073  -0.552916  0  2.138606  0
O  O98  1  0.10911254  0.27667768  0.36898653  1  0  -0.609396  0  1.912079  0  0  -0.568702  0  2.134042  0  0  -0.591348  0  2.126542  0  0  -0.320058  -0.552904  0  2.138674  0
O  O99  1  0.89088481  0.22332176  0.86898669  1  0  -0.609377  0  1.912119  0  0  -0.568699  0  2.134078  0  0  -0.591345  0  2.126575  0  0  -0.320067  -0.552901  0  2.13871  0
O  O100  1  0.64221468  0.50552106  0.34420927  1  0  -0.642799  0  1.994611  0  0  -0.568924  0  2.254343  0  0  -0.598094  0  2.24181  0  0  -0.332371  -0.548537  0  2.262131  0
O  O101  1  0.35778646  0.99447973  0.84420874  1  0  -0.642789  0  1.99464  0  0  -0.568892  0  2.254353  0  0  -0.598062  0  2.24182  0  0  -0.33234  -0.548503  0  2.262134  0
O  O102  1  0.35778868  0.49447875  0.65579070  1  0  -0.642765  0  1.994634  0  0  -0.568889  0  2.254372  0  0  -0.598061  0  2.241841  0  0  -0.332314  -0.548502  0  2.262158  0
O  O103  1  0.64221075  0.00551804  0.15578977  1  0  -0.642796  0  1.994606  0  0  -0.568913  0  2.254314  0  0  -0.598084  0  2.241783  0  0  -0.332349  -0.548528  0  2.262104  0
O  O104  1  0.51489655  0.67582586  0.29669269  1  0  -0.616713  0  1.923936  0  0  -0.571053  0  2.151108  0  0  -0.594839  0  2.144409  0  0  -0.319709  -0.5544  0  2.155221  0
O  O105  1  0.48510448  0.82417400  0.79669298  1  0  -0.616723  0  1.923899  0  0  -0.571064  0  2.151075  0  0  -0.594851  0  2.144376  0  0  -0.319729  -0.554412  0  2.155187  0
O  O106  1  0.48510432  0.32417293  0.70330802  1  0  -0.616742  0  1.923939  0  0  -0.571071  0  2.151106  0  0  -0.594858  0  2.144408  0  0  -0.319744  -0.554418  0  2.155217  0
O  O107  1  0.51489772  0.17582581  0.20330846  1  0  -0.616699  0  1.923911  0  0  -0.571047  0  2.151075  0  0  -0.594833  0  2.144376  0  0  -0.319731  -0.554393  0  2.155186  0
