# generated using pymatgen
data_Cu3H6(C3N)7
_symmetry_space_group_name_H-M   'P 1'
_cell_length_a   31.12063595
_cell_length_b   31.77967673
_cell_length_c   32.21079699
_cell_angle_alpha   89.85784907
_cell_angle_beta   90.68564387
_cell_angle_gamma   89.59422901
_symmetry_Int_Tables_number   1
_chemical_formula_structural   Cu3H6(C3N)7
_chemical_formula_sum   'Cu12 H24 C84 N28'
_cell_volume   31853.41437216
_cell_formula_units_Z   4
loop_
 _symmetry_equiv_pos_site_id
 _symmetry_equiv_pos_as_xyz
  1  'x, y, z'
loop_
 _atom_site_type_symbol
 _atom_site_label
 _atom_site_symmetry_multiplicity
 _atom_site_fract_x
 _atom_site_fract_y
 _atom_site_fract_z
 _atom_site_occupancy
 _atom_site_pbe_bader_charge
 _atom_site_pbe_bader_spin_density
 _atom_site_pbe_cm5_charge
 _atom_site_pbe_ddec_charge
 _atom_site_pbe_ddec_spin_density
 _atom_site_pbe_ddec_sum_bond_order
 _atom_site_pbe_magmom
Cu  Cu0  1  0.33449274  0.58296704  0.37579389  1  0.551294  0  0.493026  0.215391  0  2.085983  0
Cu  Cu1  1  0.40661160  0.63259711  0.32729494  1  0.55171  0  0.496443  0.215383  0  2.104161  0
Cu  Cu2  1  0.38253388  0.66006380  0.41879541  1  0.55116  0  0.494074  0.215489  0  2.091217  0
Cu  Cu3  1  0.83742549  0.91294774  0.62021245  1  0.553299  0  0.492885  0.216248  0  2.0829  0
Cu  Cu4  1  0.91974499  0.87193524  0.66420640  1  0.550964  0  0.496104  0.21589  0  2.10018  0
Cu  Cu5  1  0.88519314  0.83466849  0.57879067  1  0.551889  0  0.494754  0.214415  0  2.092319  0
Cu  Cu6  1  0.15278816  0.42264097  0.88579636  1  0.550255  0  0.496867  0.215393  0  2.10474  0
Cu  Cu7  1  0.07556162  0.37634669  0.83989086  1  0.553019  0  0.493265  0.216365  0  2.082995  0
Cu  Cu8  1  0.11683075  0.33764978  0.92315196  1  0.549362  0  0.494275  0.215023  0  2.090016  0
Cu  Cu9  1  0.66651481  0.08035421  0.12138173  1  0.546946  0  0.495491  0.215378  0  2.099152  0
Cu  Cu10  1  0.58305741  0.12275538  0.16009666  1  0.553398  0  0.49313  0.216487  0  2.083211  0
Cu  Cu11  1  0.63010842  0.16619798  0.08389732  1  0.551197  0  0.494852  0.214897  0  2.093386  0
H  H12  1  0.32199557  0.50419424  0.31541814  1  0.109612  0  0.129484  0.122726  0  0.976096  0
H  H13  1  0.41380624  0.57732936  0.24584405  1  0.12485  0  0.129833  0.123564  0  0.974551  0
H  H14  1  0.32885199  0.66864510  0.50166381  1  0.124333  0  0.129455  0.122973  0  0.975277  0
H  H15  1  0.26011590  0.56724706  0.44101031  1  0.095829  0  0.129414  0.122671  0  0.975155  0
H  H16  1  0.47826625  0.69984955  0.30642809  1  0.108827  0  0.129333  0.122836  0  0.975408  0
H  H17  1  0.45312289  0.73081215  0.43497648  1  0.113926  0  0.129453  0.123042  0  0.975762  0
H  H18  1  0.81898475  0.98922002  0.68198031  1  0.117632  0  0.129553  0.123133  0  0.975873  0
H  H19  1  0.92952467  0.93119674  0.74283962  1  0.102428  0  0.129679  0.123424  0  0.974741  0
H  H20  1  0.82660925  0.82154568  0.49847549  1  0.106333  0  0.129536  0.123374  0  0.975771  0
H  H21  1  0.75957207  0.92572916  0.55627089  1  0.09848  0  0.129519  0.122545  0  0.975721  0
H  H22  1  0.99866817  0.81028713  0.68254108  1  0.107882  0  0.129396  0.123344  0  0.974893  0
H  H23  1  0.95249868  0.76007522  0.56528217  1  0.133637  0  0.129317  0.122944  0  0.974846  0
H  H24  1  0.16583384  0.50068438  0.82593931  1  0.097725  0  0.129528  0.122573  0  0.974273  0
H  H25  1  0.06499269  0.43465122  0.75933376  1  0.10367  0  0.129572  0.12324  0  0.9754  0
H  H26  1  0.18287584  0.32300440  0.99850076  1  0.129292  0  0.129395  0.122771  0  0.976993  0
H  H27  1  0.23073908  0.43996123  0.94776499  1  0.108683  0  0.129411  0.122787  0  0.975443  0
H  H28  1  0.00151090  0.30999254  0.82235929  1  0.104037  0  0.12941  0.123011  0  0.976087  0
H  H29  1  0.05749012  0.25778778  0.93531676  1  0.134642  0  0.129452  0.122701  0  0.976799  0
H  H30  1  0.68020313  0.00299865  0.18277888  1  0.125322  0  0.1296  0.122812  0  0.975065  0
H  H31  1  0.56565915  0.05944235  0.23487037  1  0.105802  0  0.129253  0.122218  0  0.976993  0
H  H32  1  0.69396966  0.17942002  0.00857975  1  0.0744  0  0.129434  0.122692  0  0.975295  0
H  H33  1  0.74321053  0.06188287  0.05941772  1  0.116976  0  0.129349  0.122577  0  0.975957  0
H  H34  1  0.50486906  0.18664357  0.17218353  1  0.105355  0  0.129386  0.122291  0  0.97651  0
H  H35  1  0.57296294  0.24880799  0.07291964  1  0.084701  0  0.129388  0.122604  0  0.975228  0
C  C36  1  0.34433920  0.52737745  0.30387280  1  0.428461  0  0.02332  -0.035968  0  3.91399  0
C  C37  1  0.36813223  0.52696789  0.26683315  1  0.130025  0  -0.025887  0.037961  0  4.207123  0
C  C38  1  0.39138491  0.56489748  0.26821339  1  0.45487  0  0.023  -0.03618  0  3.916032  0
C  C39  1  0.31722410  0.64406877  0.48119163  1  0.408284  0  0.023326  -0.035697  0  3.913824  0
C  C40  1  0.28138004  0.61760243  0.48591865  1  0.16823  0  -0.026846  0.035854  0  4.207063  0
C  C41  1  0.28195771  0.59212684  0.45009074  1  0.46168  0  0.023347  -0.035588  0  3.915037  0
C  C42  1  0.46658441  0.70205917  0.33794640  1  0.47238  0  0.021769  -0.038328  0  3.917391  0
C  C43  1  0.48005603  0.72899333  0.37024906  1  0.084453  0  -0.026142  0.037747  0  4.207841  0
C  C44  1  0.45355527  0.71804708  0.40378533  1  0.425475  0  0.021937  -0.038391  0  3.914208  0
C  C45  1  0.84620854  0.96978264  0.69138248  1  0.443786  0  0.02234  -0.037665  0  3.915278  0
C  C46  1  0.87362930  0.97388209  0.72634084  1  0.136938  0  -0.02605  0.038048  0  4.204517  0
C  C47  1  0.90283010  0.93996744  0.72257565  1  0.446161  0  0.023235  -0.036565  0  3.914903  0
C  C48  1  0.81563000  0.84700332  0.51815239  1  0.441094  0  0.02234  -0.038923  0  3.916878  0
C  C49  1  0.77931784  0.87344711  0.51305317  1  0.145223  0  -0.026168  0.038038  0  4.203799  0
C  C50  1  0.78124373  0.90036451  0.54781381  1  0.458546  0  0.023371  -0.035105  0  3.913631  0
C  C51  1  0.98177101  0.80342039  0.65372353  1  0.439399  0  0.022867  -0.037585  0  3.915684  0
C  C52  1  0.99007737  0.77148161  0.62448793  1  0.176755  0  -0.026712  0.036905  0  4.210301  0
C  C53  1  0.95802312  0.77761349  0.59367012  1  0.403699  0  0.02307  -0.037324  0  3.915375  0
C  C54  1  0.14099964  0.47934698  0.81530305  1  0.459123  0  0.023283  -0.0348  0  3.913387  0
C  C55  1  0.11619626  0.48100975  0.77836775  1  0.129863  0  -0.026265  0.037875  0  4.205262  0
C  C56  1  0.08932993  0.44553336  0.78109300  1  0.444801  0  0.023107  -0.037277  0  3.911919  0
C  C57  1  0.18877654  0.35150739  0.98094334  1  0.446999  0  0.023123  -0.037183  0  3.915302  0
C  C58  1  0.22152875  0.38153365  0.98651245  1  0.124912  0  -0.026412  0.037854  0  4.206272  0
C  C59  1  0.21336106  0.41141879  0.95487656  1  0.464501  0  0.023402  -0.036128  0  3.914573  0
C  C60  1  0.02029216  0.30304151  0.85015420  1  0.47387  0  0.022341  -0.03752  0  3.916035  0
C  C61  1  0.01625748  0.26919139  0.87825247  1  0.154055  0  -0.026505  0.037432  0  4.205366  0
C  C62  1  0.04906738  0.27622796  0.90799066  1  0.389947  0  0.023028  -0.037043  0  3.915652  0
C  C63  1  0.65232932  0.02217302  0.19004372  1  0.422311  0  0.02298  -0.035739  0  3.916301  0
C  C64  1  0.62288011  0.01736687  0.22265480  1  0.118492  0  -0.026301  0.036858  0  4.205549  0
C  C65  1  0.59369143  0.05113046  0.21686626  1  0.465835  0  0.022647  -0.036616  0  3.913232  0
C  C66  1  0.70049808  0.15098536  0.02632047  1  0.45178  0  0.02317  -0.036414  0  3.915959  0
C  C67  1  0.73241541  0.11995361  0.02008451  1  0.155099  0  -0.026371  0.037783  0  4.208152  0
C  C68  1  0.72580899  0.09078998  0.05244376  1  0.453013  0  0.022966  -0.03627  0  3.915926  0
C  C69  1  0.52673596  0.19607576  0.14795200  1  0.433175  0  0.023797  -0.033779  0  3.91318  0
C  C70  1  0.52537318  0.23239715  0.12263105  1  0.115424  0  -0.026909  0.035933  0  4.205914  0
C  C71  1  0.56163910  0.22795368  0.09708403  1  0.484053  0  0.023323  -0.036132  0  3.91557  0
C  C72  1  0.87294270  0.00451192  0.75750491  1  -0.150449  0  -0.032866  -0.076767  0  4.09792  0
C  C73  1  0.87365477  0.03097199  0.78521330  1  -0.025856  0  -0.051221  -0.040676  0  4.341639  0
C  C74  1  0.87467642  0.06015238  0.81550914  1  0.217178  0  -0.04395  -0.084229  0  4.361531  0
C  C75  1  0.87589979  0.08665586  0.84296136  1  0.146155  0  0.080483  0.009761  0  4.061788  0
C  C76  1  0.36965432  0.49586739  0.23618721  1  -0.203997  0  -0.033299  -0.077233  0  4.102548  0
C  C77  1  0.37232649  0.46872654  0.20927350  1  0.005165  0  -0.051298  -0.040493  0  4.345292  0
C  C78  1  0.37525131  0.43879364  0.17986788  1  0.208622  0  -0.043534  -0.084274  0  4.359989  0
C  C79  1  0.37825132  0.41137122  0.15346071  1  0.158508  0  0.081226  0.011648  0  4.057227  0
C  C80  1  0.62345940  0.98641028  0.25366263  1  0.00585  0  -0.032594  -0.075627  0  4.099119  0
C  C81  1  0.62530322  0.95901169  0.28057745  1  -0.179044  0  -0.051244  -0.041187  0  4.341973  0
C  C82  1  0.62750841  0.92899527  0.31018858  1  0.320409  0  -0.042953  -0.08321  0  4.357714  0
C  C83  1  0.62985701  0.90182578  0.33709691  1  0.054777  0  0.081375  0.012125  0  4.057627  0
C  C84  1  0.11900304  0.51077906  0.74643142  1  -0.232611  0  -0.032969  -0.0767  0  4.099916  0
C  C85  1  0.12327707  0.53727057  0.71900817  1  -0.003602  0  -0.051034  -0.040644  0  4.342002  0
C  C86  1  0.12815750  0.56626947  0.68887068  1  0.282518  0  -0.044201  -0.084988  0  4.360718  0
C  C87  1  0.13314222  0.59247150  0.66150302  1  0.148676  0  0.080966  0.011339  0  4.060577  0
C  C88  1  0.76326617  0.11834397  0.98886475  1  -0.043633  0  -0.032916  -0.077237  0  4.100897  0
C  C89  1  0.79014066  0.11699739  0.96130559  1  -0.162937  0  -0.050302  -0.0387  0  4.341964  0
C  C90  1  0.81973115  0.11596782  0.93111051  1  0.176903  0  -0.043504  -0.085111  0  4.36168  0
C  C91  1  0.84637443  0.11525939  0.90351972  1  0.21632  0  0.081717  0.012864  0  4.059345  0
C  C92  1  0.25161036  0.61748427  0.51817444  1  -0.091212  0  -0.032732  -0.075492  0  4.098578  0
C  C93  1  0.22507537  0.61805522  0.54607854  1  -0.13115  0  -0.050944  -0.040498  0  4.34108  0
C  C94  1  0.19528477  0.61925092  0.57611222  1  0.228927  0  -0.044152  -0.085306  0  4.360994  0
C  C95  1  0.16795162  0.62026576  0.60307266  1  0.169546  0  0.080835  0.011333  0  4.059683  0
C  C96  1  0.25489278  0.38154105  0.01603398  1  -0.075313  0  -0.032929  -0.076334  0  4.102161  0
C  C97  1  0.28465925  0.38166840  0.04137435  1  -0.119761  0  -0.050676  -0.040116  0  4.344442  0
C  C98  1  0.31733577  0.38160003  0.06920362  1  0.300305  0  -0.043498  -0.084671  0  4.360797  0
C  C99  1  0.34711042  0.38118203  0.09432567  1  0.068433  0  0.081704  0.012806  0  4.058313  0
C  C100  1  0.74835031  0.87282377  0.48115318  1  -0.205471  0  -0.032973  -0.076402  0  4.097952  0
C  C101  1  0.72096680  0.87214400  0.45340462  1  0.029206  0  -0.051195  -0.040982  0  4.341192  0
C  C102  1  0.69057799  0.87154414  0.42322069  1  0.280545  0  -0.043958  -0.08437  0  4.359757  0
C  C103  1  0.66270313  0.87133831  0.39612181  1  0.085175  0  0.081222  0.011641  0  4.059944  0
C  C104  1  0.98668828  0.23620316  0.87696650  1  -0.206752  0  -0.033297  -0.075429  0  4.097107  0
C  C105  1  0.96087535  0.20717098  0.87593114  1  0.011568  0  -0.049986  -0.041126  0  4.340926  0
C  C106  1  0.93227618  0.17551023  0.87485320  1  0.299607  0  -0.043903  -0.083614  0  4.35968  0
C  C107  1  0.90632238  0.14680466  0.87361419  1  0.072911  0  0.082036  0.012049  0  4.058319  0
C  C108  1  0.51237772  0.75937041  0.36922379  1  -0.087443  0  -0.031761  -0.07439  0  4.09819  0
C  C109  1  0.54086122  0.78586021  0.36829340  1  -0.115224  0  -0.049906  -0.039417  0  4.340069  0
C  C110  1  0.57212443  0.81499243  0.36752066  1  0.350863  0  -0.043307  -0.084402  0  4.35903  0
C  C111  1  0.60046522  0.84143475  0.36710998  1  0.085805  0  0.081962  0.013215  0  4.057784  0
C  C112  1  0.02226412  0.74052722  0.62598044  1  -0.204912  0  -0.032053  -0.074828  0  4.101836  0
C  C113  1  0.05011305  0.71300222  0.62735261  1  -0.040576  0  -0.050863  -0.040572  0  4.344973  0
C  C114  1  0.08024638  0.68236076  0.62892638  1  0.287179  0  -0.043392  -0.084216  0  4.361032  0
C  C115  1  0.10731296  0.65428944  0.63008810  1  0.123623  0  0.082302  0.013622  0  4.056773  0
C  C116  1  0.49493783  0.26507754  0.12264368  1  -0.245595  0  -0.033262  -0.076926  0  4.097791  0
C  C117  1  0.46801088  0.29350488  0.12261368  1  0.075717  0  -0.050826  -0.039829  0  4.340098  0
C  C118  1  0.43798705  0.32431013  0.12261695  1  0.314763  0  -0.043909  -0.084499  0  4.360946  0
C  C119  1  0.41039957  0.35191461  0.12296164  1  0.072167  0  0.079839  0.009061  0  4.061634  0
N  N120  1  0.38224783  0.58578289  0.30324654  1  -0.776006  0  -0.334347  -0.140158  0  3.769302  0
N  N121  1  0.35299180  0.56258290  0.32534189  1  -0.774685  0  -0.332217  -0.138215  0  3.759284  0
N  N122  1  0.31533413  0.60275296  0.42623382  1  -0.788917  0  -0.332544  -0.138659  0  3.762283  0
N  N123  1  0.33713282  0.63506355  0.44547808  1  -0.777855  0  -0.332933  -0.139539  0  3.76335  0
N  N124  1  0.42672492  0.68715032  0.39218397  1  -0.765466  0  -0.333081  -0.138875  0  3.763459  0
N  N125  1  0.43473682  0.67733899  0.35135524  1  -0.780002  0  -0.3347  -0.138881  0  3.770445  0
N  N126  1  0.89348032  0.91784490  0.68820642  1  -0.77985  0  -0.334016  -0.138721  0  3.770165  0
N  N127  1  0.85829503  0.93623759  0.66889187  1  -0.766099  0  -0.332108  -0.138977  0  3.760999  0
N  N128  1  0.81580629  0.89057765  0.57141670  1  -0.790344  0  -0.332544  -0.140698  0  3.763064  0
N  N129  1  0.83706297  0.85740396  0.55306090  1  -0.776157  0  -0.332222  -0.135857  0  3.762914  0
N  N130  1  0.93290327  0.81044862  0.60392977  1  -0.776652  0  -0.332705  -0.136832  0  3.764262  0
N  N131  1  0.94755314  0.82635960  0.64121263  1  -0.777176  0  -0.334927  -0.140299  0  3.769337  0
N  N132  1  0.09771677  0.42466470  0.81666433  1  -0.777082  0  -0.331525  -0.137945  0  3.758052  0
N  N133  1  0.12983553  0.44560812  0.83779426  1  -0.785579  0  -0.33513  -0.14032  0  3.771123  0
N  N134  1  0.17868754  0.39992174  0.93253387  1  -0.778776  0  -0.335107  -0.139601  0  3.771037  0
N  N135  1  0.16350997  0.36272196  0.94858922  1  -0.786407  0  -0.332907  -0.138029  0  3.762646  0
N  N136  1  0.07060309  0.31132652  0.89823914  1  -0.782715  0  -0.333072  -0.137862  0  3.764959  0
N  N137  1  0.05284289  0.32790018  0.86229867  1  -0.777795  0  -0.33211  -0.139442  0  3.764468  0
N  N138  1  0.60506525  0.07394870  0.18361014  1  -0.766822  0  -0.331873  -0.138448  0  3.761093  0
N  N139  1  0.64148892  0.05602638  0.16706177  1  -0.797067  0  -0.334218  -0.139624  0  3.772559  0
N  N140  1  0.69265031  0.10353886  0.07572157  1  -0.793247  0  -0.333973  -0.139854  0  3.770674  0
N  N141  1  0.67704475  0.14091870  0.05961250  1  -0.774701  0  -0.333347  -0.137878  0  3.767706  0
N  N142  1  0.58254803  0.19198717  0.10651450  1  -0.779553  0  -0.332909  -0.137068  0  3.764952  0
N  N143  1  0.56097746  0.17226080  0.13815208  1  -0.777314  0  -0.332703  -0.141181  0  3.762323  0
N  N144  1  0.87644422  0.11596811  0.87343601  1  -1.284562  0  -0.181942  0.124989  0  4.059014  0
N  N145  1  0.37903244  0.38170692  0.12331691  1  -1.284906  0  -0.181648  0.125097  0  4.059041  0
N  N146  1  0.63132211  0.87132882  0.36657861  1  -1.29407  0  -0.181951  0.123082  0  4.059604  0
N  N147  1  0.13653318  0.62247737  0.63178210  1  -1.263658  0  -0.182338  0.123546  0  4.060347  0
