# generated using pymatgen
data_LiH4C6NO2
_symmetry_space_group_name_H-M   'P 1'
_cell_length_a   4.92303576
_cell_length_b   10.73169269
_cell_length_c   13.77988173
_cell_angle_alpha   90.00000444
_cell_angle_beta   89.99997527
_cell_angle_gamma   89.99997757
_symmetry_Int_Tables_number   1
_chemical_formula_structural   LiH4C6NO2
_chemical_formula_sum   'Li4 H16 C24 N4 O8'
_cell_volume   728.02569588
_cell_formula_units_Z   4
loop_
 _symmetry_equiv_pos_site_id
 _symmetry_equiv_pos_as_xyz
  1  'x, y, z'
loop_
 _atom_site_type_symbol
 _atom_site_label
 _atom_site_symmetry_multiplicity
 _atom_site_fract_x
 _atom_site_fract_y
 _atom_site_fract_z
 _atom_site_occupancy
 _atom_site_hle17_bader_spin_density
 _atom_site_hle17_ddec_charge
 _atom_site_hle17_ddec_spin_density
 _atom_site_hle17_ddec_sum_bond_order
 _atom_site_hle17_magmom
 _atom_site_hse06_10hf_bader_spin_density
 _atom_site_hse06_10hf_ddec_charge
 _atom_site_hse06_10hf_ddec_spin_density
 _atom_site_hse06_10hf_ddec_sum_bond_order
 _atom_site_hse06_10hf_magmom
 _atom_site_hse06_bader_spin_density
 _atom_site_hse06_ddec_charge
 _atom_site_hse06_ddec_spin_density
 _atom_site_hse06_ddec_sum_bond_order
 _atom_site_hse06_magmom
 _atom_site_pbe_bader_spin_density
 _atom_site_pbe_cm5_charge
 _atom_site_pbe_ddec_charge
 _atom_site_pbe_ddec_spin_density
 _atom_site_pbe_ddec_sum_bond_order
 _atom_site_pbe_magmom
Li  Li0  1  0.36344376  0.99396528  0.43285060  1  0  0.831163  0  0.441177  0  0  0.777881  0  0.569125  0  0  0.789079  0  0.550455  0  0  0.521958  0.769892  0  0.582409  0
Li  Li1  1  0.86344250  0.00603535  0.56714994  1  0  0.831165  0  0.441178  0  0  0.777872  0  0.569153  0  0  0.789069  0  0.550484  0  0  0.521962  0.769885  0  0.582437  0
Li  Li2  1  0.36344216  0.49396492  0.06714933  1  0  0.831167  0  0.441177  0  0  0.777874  0  0.569147  0  0  0.789072  0  0.550475  0  0  0.521951  0.76988  0  0.58243  0
Li  Li3  1  0.86344207  0.50603570  0.93285048  1  0  0.831162  0  0.441179  0  0  0.777863  0  0.569163  0  0  0.789061  0  0.550493  0  0  0.521961  0.769873  0  0.582449  0
H  H4  1  0.93015712  0.70813148  0.59547821  1  0  0.108102  0  0.943253  0  0  0.119066  0  1.000369  0  0  0.122636  0  0.998599  0  0  0.114305  0.116438  0  1.001876  0
H  H5  1  0.43015698  0.29186913  0.40452159  1  0  0.108121  0  0.943323  0  0  0.11908  0  1.000439  0  0  0.12265  0  0.998669  0  0  0.114321  0.116451  0  1.001947  0
H  H6  1  0.93015714  0.20813209  0.90452221  1  0  0.10811  0  0.943306  0  0  0.119072  0  1.000423  0  0  0.122642  0  0.998653  0  0  0.114315  0.116443  0  1.001924  0
H  H7  1  0.43015695  0.79186852  0.09547831  1  0  0.108116  0  0.943319  0  0  0.119076  0  1.000435  0  0  0.122646  0  0.998665  0  0  0.114319  0.116448  0  1.00194  0
H  H8  1  0.50249804  0.84916333  0.80430297  1  0  0.110557  0  0.940976  0  0  0.120812  0  0.998415  0  0  0.124646  0  0.996782  0  0  0.111949  0.118091  0  0.999619  0
H  H9  1  0.00249828  0.15083642  0.19569689  1  0  0.110554  0  0.940977  0  0  0.12081  0  0.998417  0  0  0.124644  0  0.996784  0  0  0.111952  0.118086  0  0.999624  0
H  H10  1  0.50249832  0.34916299  0.69569680  1  0  0.110576  0  0.940964  0  0  0.120831  0  0.998403  0  0  0.124665  0  0.99677  0  0  0.111955  0.118108  0  0.99961  0
H  H11  1  0.00249800  0.65083677  0.30430379  1  0  0.110567  0  0.940963  0  0  0.120823  0  0.998401  0  0  0.124657  0  0.996768  0  0  0.111958  0.118103  0  0.999608  0
H  H12  1  0.75636799  0.56287110  0.72527614  1  0  0.074599  0  0.935553  0  0  0.08243  0  0.998494  0  0  0.085548  0  0.996333  0  0  0.118655  0.08017  0  1.000095  0
H  H13  1  0.25636992  0.43712954  0.27472296  1  0  0.074566  0  0.935603  0  0  0.082409  0  0.998532  0  0  0.085527  0  0.996371  0  0  0.11865  0.080147  0  1.000136  0
H  H14  1  0.75636817  0.06287076  0.77472357  1  0  0.074584  0  0.935568  0  0  0.082415  0  0.998507  0  0  0.085533  0  0.996345  0  0  0.118645  0.080152  0  1.000107  0
H  H15  1  0.25636770  0.93712895  0.22527625  1  0  0.074595  0  0.935556  0  0  0.082426  0  0.998496  0  0  0.085544  0  0.996334  0  0  0.118651  0.080165  0  1.000097  0
H  H16  1  0.30125229  0.70189675  0.92654569  1  0  0.076768  0  0.937357  0  0  0.084845  0  1.002191  0  0  0.088573  0  0.998359  0  0  0.130184  0.082052  0  1.005124  0
H  H17  1  0.80125137  0.29810295  0.07345413  1  0  0.076771  0  0.937352  0  0  0.084849  0  1.002186  0  0  0.088575  0  0.998356  0  0  0.13018  0.082052  0  1.005121  0
H  H18  1  0.30125068  0.20189732  0.57345411  1  0  0.076781  0  0.937344  0  0  0.084858  0  1.00218  0  0  0.088584  0  0.998352  0  0  0.130187  0.082065  0  1.005117  0
H  H19  1  0.80125298  0.79810331  0.42654571  1  0  0.076779  0  0.93734  0  0  0.084857  0  1.002176  0  0  0.088585  0  0.998344  0  0  0.130187  0.082064  0  1.005113  0
C  C20  1  0.34854436  0.87665760  0.61548496  1  0  0.69165  0  3.916989  0  0  0.644422  0  4.212461  0  0  0.677452  0  4.202197  0  0  0.230638  0.622102  0  4.218713  0
C  C21  1  0.84854728  0.12334209  0.38451412  1  0  0.691577  0  3.917026  0  0  0.644342  0  4.212517  0  0  0.677371  0  4.202256  0  0  0.230613  0.622025  0  4.218765  0
C  C22  1  0.34854441  0.37665728  0.88451483  1  0  0.691679  0  3.91688  0  0  0.644465  0  4.212328  0  0  0.677497  0  4.202062  0  0  0.230674  0.622153  0  4.218568  0
C  C23  1  0.84854317  0.62334242  0.11548498  1  0  0.691561  0  3.91698  0  0  0.644325  0  4.21247  0  0  0.677355  0  4.202208  0  0  0.230615  0.62201  0  4.218711  0
C  C24  1  0.01760835  0.70845211  0.66801374  1  0  -0.11481  0  3.719329  0  0  -0.136828  0  3.963634  0  0  -0.141154  0  3.984353  0  0  -0.07092  -0.134198  0  3.949898  0
C  C25  1  0.51760916  0.29154950  0.33198685  1  0  -0.11484  0  3.719338  0  0  -0.136853  0  3.963638  0  0  -0.141178  0  3.984353  0  0  -0.070927  -0.134221  0  3.949903  0
C  C26  1  0.01760846  0.20845085  0.83198683  1  0  -0.114762  0  3.719273  0  0  -0.13678  0  3.963576  0  0  -0.141103  0  3.984293  0  0  -0.070903  -0.134149  0  3.949828  0
C  C27  1  0.51760905  0.79154890  0.16801304  1  0  -0.114816  0  3.719345  0  0  -0.136829  0  3.963645  0  0  -0.141155  0  3.984364  0  0  -0.070925  -0.134202  0  3.949905  0
C  C28  1  0.22930694  0.79024720  0.69067575  1  0  -0.013494  0  3.716754  0  0  0.006756  0  3.945692  0  0  0.003731  0  3.967016  0  0  0.009612  0.008666  0  3.931537  0
C  C29  1  0.72930582  0.20975344  0.30932481  1  0  -0.013411  0  3.716684  0  0  0.006838  0  3.945621  0  0  0.003817  0  3.966941  0  0  0.009645  0.008744  0  3.931467  0
C  C30  1  0.22930709  0.29024594  0.80932406  1  0  -0.013475  0  3.71673  0  0  0.006773  0  3.945667  0  0  0.003744  0  3.966992  0  0  0.00962  0.008679  0  3.93151  0
C  C31  1  0.72930568  0.70975378  0.19067577  1  0  -0.013457  0  3.716737  0  0  0.006792  0  3.94568  0  0  0.003767  0  3.967005  0  0  0.009613  0.008706  0  3.931518  0
C  C32  1  0.33368151  0.78837611  0.78508366  1  0  -0.128298  0  3.728895  0  0  -0.149547  0  3.974573  0  0  -0.155082  0  3.996673  0  0  -0.074795  -0.145705  0  3.959513  0
C  C33  1  0.83368050  0.21162359  0.21491688  1  0  -0.128282  0  3.728812  0  0  -0.149532  0  3.97449  0  0  -0.155068  0  3.996589  0  0  -0.074784  -0.145686  0  3.959428  0
C  C34  1  0.33367974  0.28837576  0.71491686  1  0  -0.12832  0  3.728853  0  0  -0.149571  0  3.974534  0  0  -0.155103  0  3.996631  0  0  -0.074799  -0.145728  0  3.959478  0
C  C35  1  0.83368025  0.71162486  0.28508368  1  0  -0.128305  0  3.729001  0  0  -0.149553  0  3.974676  0  0  -0.155087  0  3.996775  0  0  -0.074799  -0.145711  0  3.959622  0
C  C36  1  0.92045776  0.62877308  0.73985245  1  0  0.122553  0  3.746931  0  0  0.097448  0  4.007087  0  0  0.101353  0  4.025487  0  0  0.051296  0.094975  0  3.99463  0
C  C37  1  0.42045773  0.37122846  0.26014735  1  0  0.122596  0  3.74697  0  0  0.097479  0  4.007122  0  0  0.101384  0  4.025522  0  0  0.051291  0.095006  0  3.994668  0
C  C38  1  0.92045593  0.12877181  0.76014651  1  0  0.122544  0  3.746934  0  0  0.097442  0  4.007087  0  0  0.101346  0  4.025487  0  0  0.051293  0.094973  0  3.994625  0
C  C39  1  0.42045753  0.87122787  0.23985256  1  0  0.122529  0  3.746915  0  0  0.097424  0  4.007073  0  0  0.101329  0  4.025472  0  0  0.051282  0.094957  0  3.994613  0
C  C40  1  0.22176885  0.70679346  0.85259731  1  0  0.124638  0  3.73621  0  0  0.099064  0  3.994626  0  0  0.103704  0  4.011642  0  0  0.058685  0.09609  0  3.982925  0
C  C41  1  0.72176785  0.29320625  0.14740252  1  0  0.124591  0  3.736175  0  0  0.09902  0  3.994591  0  0  0.103659  0  4.01161  0  0  0.058652  0.096046  0  3.982889  0
C  C42  1  0.22176919  0.20679311  0.64740250  1  0  0.124603  0  3.736092  0  0  0.09903  0  3.994511  0  0  0.103669  0  4.011529  0  0  0.058665  0.096051  0  3.982825  0
C  C43  1  0.72176955  0.79320660  0.35259733  1  0  0.124601  0  3.736258  0  0  0.099026  0  3.994673  0  0  0.103663  0  4.011691  0  0  0.058666  0.096044  0  3.98299  0
N  N44  1  0.01790891  0.62790937  0.83101296  1  0  -0.389383  0  3.173382  0  0  -0.342799  0  3.440672  0  0  -0.353218  0  3.455816  0  0  -0.386112  -0.335657  0  3.430421  0
N  N45  1  0.51790985  0.37209038  0.16898691  1  0  -0.389411  0  3.1734  0  0  -0.342831  0  3.440696  0  0  -0.35325  0  3.45584  0  0  -0.386119  -0.335691  0  3.430445  0
N  N46  1  0.01790922  0.12790902  0.66898688  1  0  -0.38941  0  3.17341  0  0  -0.342831  0  3.440703  0  0  -0.353252  0  3.455851  0  0  -0.386137  -0.3357  0  3.430466  0
N  N47  1  0.51790954  0.87209073  0.33101299  1  0  -0.389369  0  3.173343  0  0  -0.342788  0  3.440635  0  0  -0.353207  0  3.455778  0  0  -0.386097  -0.335649  0  3.430391  0
O  O48  1  0.19978455  0.90511631  0.54246113  1  0  -0.794492  0  1.966964  0  0  -0.747012  0  2.21566  0  0  -0.768064  0  2.199158  0  0  -0.43383  -0.732228  0  2.226597  0
O  O49  1  0.69978335  0.09488341  0.45754016  1  0  -0.794456  0  1.966886  0  0  -0.746974  0  2.215588  0  0  -0.768023  0  2.199082  0  0  -0.433811  -0.732192  0  2.226521  0
O  O50  1  0.19978451  0.40511506  0.95753942  1  0  -0.794515  0  1.966967  0  0  -0.747034  0  2.215662  0  0  -0.768089  0  2.199166  0  0  -0.433847  -0.732254  0  2.226592  0
O  O51  1  0.69978542  0.59488373  0.04246042  1  0  -0.794444  0  1.966964  0  0  -0.746956  0  2.215667  0  0  -0.768005  0  2.199162  0  0  -0.433803  -0.732177  0  2.226601  0
O  O52  1  0.58762039  0.91426954  0.62979276  1  0  -0.699552  0  1.959422  0  0  -0.656527  0  2.203746  0  0  -0.679192  0  2.193154  0  0  -0.381613  -0.640663  0  2.210575  0
O  O53  1  0.08761844  0.08573113  0.37020709  1  0  -0.699533  0  1.959461  0  0  -0.656506  0  2.203781  0  0  -0.679172  0  2.19319  0  0  -0.381623  -0.640648  0  2.210611  0
O  O54  1  0.58762249  0.41426921  0.87020700  1  0  -0.699566  0  1.959377  0  0  -0.656547  0  2.203691  0  0  -0.679213  0  2.193101  0  0  -0.381634  -0.640692  0  2.210519  0
O  O55  1  0.08762244  0.58573146  0.12979285  1  0  -0.699524  0  1.959392  0  0  -0.656499  0  2.203722  0  0  -0.679164  0  2.193132  0  0  -0.381627  -0.640641  0  2.210549  0
