# generated using pymatgen
data_ZnH6C5O4
_symmetry_space_group_name_H-M   'P 1'
_cell_length_a   4.82076587
_cell_length_b   9.31638951
_cell_length_c   13.84547247
_cell_angle_alpha   90.09368643
_cell_angle_beta   89.99991566
_cell_angle_gamma   90.00020632
_symmetry_Int_Tables_number   1
_chemical_formula_structural   ZnH6C5O4
_chemical_formula_sum   'Zn4 H24 C20 O16'
_cell_volume   621.82886375
_cell_formula_units_Z   4
loop_
 _symmetry_equiv_pos_site_id
 _symmetry_equiv_pos_as_xyz
  1  'x, y, z'
loop_
 _atom_site_type_symbol
 _atom_site_label
 _atom_site_symmetry_multiplicity
 _atom_site_fract_x
 _atom_site_fract_y
 _atom_site_fract_z
 _atom_site_occupancy
 _atom_site_hle17_bader_spin_density
 _atom_site_hle17_ddec_charge
 _atom_site_hle17_ddec_spin_density
 _atom_site_hle17_ddec_sum_bond_order
 _atom_site_hle17_magmom
 _atom_site_hse06_10hf_bader_spin_density
 _atom_site_hse06_10hf_ddec_charge
 _atom_site_hse06_10hf_ddec_spin_density
 _atom_site_hse06_10hf_ddec_sum_bond_order
 _atom_site_hse06_10hf_magmom
 _atom_site_hse06_bader_spin_density
 _atom_site_hse06_ddec_charge
 _atom_site_hse06_ddec_spin_density
 _atom_site_hse06_ddec_sum_bond_order
 _atom_site_hse06_magmom
 _atom_site_pbe_bader_spin_density
 _atom_site_pbe_cm5_charge
 _atom_site_pbe_ddec_charge
 _atom_site_pbe_ddec_spin_density
 _atom_site_pbe_ddec_sum_bond_order
 _atom_site_pbe_magmom
Zn  Zn0  1  0.98615397  0.00388391  0.25300626  1  0  1.164183  0  1.726583  0  0  0.989184  0  2.208326  0  0  1.04026  0  2.143642  0  0  0.697749  0.952717  0  2.253473  0
Zn  Zn1  1  0.98615255  0.49611559  0.74699364  1  0  1.164205  0  1.726593  0  0  0.989174  0  2.208345  0  0  1.040256  0  2.143662  0  0  0.697722  0.952709  0  2.25349  0
Zn  Zn2  1  0.01384198  0.99611543  0.74699310  1  0  1.164184  0  1.726607  0  0  0.989179  0  2.208344  0  0  1.040264  0  2.143667  0  0  0.697751  0.952718  0  2.253489  0
Zn  Zn3  1  0.01384756  0.50388376  0.25300572  1  0  1.164233  0  1.726622  0  0  0.98921  0  2.208369  0  0  1.040287  0  2.143687  0  0  0.697711  0.952738  0  2.253513  0
H  H4  1  0.42798708  0.40086640  0.11866999  1  0  0.120652  0  0.934234  0  0  0.135063  0  0.99594  0  0  0.137774  0  0.9945  0  0  0.106862  0.133113  0  0.997002  0
H  H5  1  0.42798437  0.09913209  0.88132657  1  0  0.120612  0  0.934259  0  0  0.135014  0  0.995978  0  0  0.137724  0  0.994539  0  0  0.106825  0.133068  0  0.997046  0
H  H6  1  0.57201303  0.59913402  0.88132937  1  0  0.120638  0  0.934228  0  0  0.135052  0  0.995929  0  0  0.137763  0  0.994488  0  0  0.106858  0.133103  0  0.996992  0
H  H7  1  0.57201573  0.90086833  0.11867206  1  0  0.12062  0  0.934267  0  0  0.135025  0  0.995984  0  0  0.137736  0  0.994544  0  0  0.106826  0.133076  0  0.997049  0
H  H8  1  0.14129422  0.40411112  0.04093910  1  0  0.119655  0  0.940691  0  0  0.132015  0  1.004675  0  0  0.134735  0  1.003538  0  0  0.104777  0.12977  0  1.006075  0
H  H9  1  0.14129323  0.09588682  0.95905906  1  0  0.11965  0  0.940649  0  0  0.13202  0  1.00461  0  0  0.13474  0  1.003472  0  0  0.104797  0.12978  0  1.006012  0
H  H10  1  0.85870381  0.59588822  0.95906026  1  0  0.11964  0  0.940672  0  0  0.132009  0  1.004641  0  0  0.134729  0  1.003504  0  0  0.104792  0.129765  0  1.00604  0
H  H11  1  0.85870895  0.90411252  0.04094030  1  0  0.119659  0  0.940661  0  0  0.132027  0  1.004622  0  0  0.134746  0  1.003486  0  0  0.104804  0.129784  0  1.006025  0
H  H12  1  0.59559944  0.32756876  0.96337658  1  0  0.070918  0  0.928247  0  0  0.091059  0  0.985236  0  0  0.091476  0  0.98638  0  0  0.093613  0.090755  0  0.9845  0
H  H13  1  0.59559883  0.17243004  0.03661990  1  0  0.070912  0  0.928294  0  0  0.091057  0  0.98528  0  0  0.091473  0  0.986424  0  0  0.093628  0.090753  0  0.984547  0
H  H14  1  0.40439859  0.67243166  0.03662278  1  0  0.070903  0  0.928227  0  0  0.091046  0  0.98522  0  0  0.091463  0  0.986364  0  0  0.093609  0.090741  0  0.984483  0
H  H15  1  0.40440127  0.82757038  0.96337873  1  0  0.070897  0  0.928282  0  0  0.091042  0  0.985276  0  0  0.091459  0  0.98642  0  0  0.093626  0.090739  0  0.984543  0
H  H16  1  0.76292996  0.09417494  0.46821591  1  0  0.119018  0  0.931591  0  0  0.13369  0  0.992806  0  0  0.136114  0  0.99212  0  0  0.105591  0.131937  0  0.993588  0
H  H17  1  0.76292468  0.40583275  0.53178197  1  0  0.119021  0  0.931579  0  0  0.133683  0  0.992798  0  0  0.136087  0  0.99214  0  0  0.105599  0.131932  0  0.993578  0
H  H18  1  0.23707015  0.90582656  0.53178274  1  0  0.119067  0  0.931586  0  0  0.133734  0  0.992772  0  0  0.136153  0  0.992089  0  0  0.105602  0.131981  0  0.993548  0
H  H19  1  0.23707335  0.59416659  0.46821811  1  0  0.119039  0  0.931593  0  0  0.133694  0  0.992811  0  0  0.136098  0  0.992154  0  0  0.105598  0.131942  0  0.993592  0
H  H20  1  0.75494850  0.23808906  0.38795055  1  0  0.115245  0  0.929738  0  0  0.1305  0  0.990502  0  0  0.132886  0  0.989505  0  0  0.104632  0.128909  0  0.991146  0
H  H21  1  0.75495432  0.26191754  0.61204805  1  0  0.115285  0  0.929711  0  0  0.130514  0  0.990511  0  0  0.132901  0  0.989514  0  0  0.104628  0.128921  0  0.991158  0
H  H22  1  0.24504746  0.76191029  0.61204881  1  0  0.115296  0  0.929713  0  0  0.130531  0  0.99047  0  0  0.132916  0  0.989471  0  0  0.104619  0.128939  0  0.991117  0
H  H23  1  0.24504579  0.73808288  0.38795131  1  0  0.115281  0  0.929731  0  0  0.130514  0  0.990523  0  0  0.132903  0  0.989523  0  0  0.104627  0.128921  0  0.991167  0
H  H24  1  0.30125102  0.32289913  0.46018416  1  0  0.068086  0  0.930674  0  0  0.087021  0  0.990166  0  0  0.087508  0  0.990866  0  0  0.091472  0.086631  0  0.989847  0
H  H25  1  0.30125449  0.17710017  0.53981753  1  0  0.068019  0  0.930771  0  0  0.086991  0  0.99021  0  0  0.087478  0  0.990912  0  0  0.091444  0.086599  0  0.989895  0
H  H26  1  0.69874909  0.67710021  0.53981592  1  0  0.068088  0  0.930672  0  0  0.087041  0  0.990137  0  0  0.087528  0  0.990837  0  0  0.091474  0.086652  0  0.989822  0
H  H27  1  0.69874562  0.82289917  0.46018255  1  0  0.068028  0  0.930735  0  0  0.086997  0  0.990193  0  0  0.087484  0  0.990895  0  0  0.091466  0.086609  0  0.989875  0
C  C28  1  0.13178871  0.23978674  0.14652906  1  0  0.726541  0  3.785819  0  0  0.677561  0  4.077176  0  0  0.712253  0  4.070944  0  0  0.224247  0.653758  0  4.080598  0
C  C29  1  0.13178310  0.26020262  0.85346689  1  0  0.726447  0  3.786024  0  0  0.677412  0  4.077468  0  0  0.712093  0  4.071254  0  0  0.224156  0.653629  0  4.080865  0
C  C30  1  0.86821140  0.76021153  0.85347029  1  0  0.726503  0  3.785925  0  0  0.677549  0  4.077229  0  0  0.712243  0  4.070997  0  0  0.224247  0.653748  0  4.080652  0
C  C31  1  0.86821493  0.73979779  0.14653391  1  0  0.726465  0  3.786033  0  0  0.677483  0  4.077406  0  0  0.712165  0  4.071192  0  0  0.224189  0.653689  0  4.08081  0
C  C32  1  0.29056271  0.33116876  0.07562928  1  0  -0.295912  0  3.672741  0  0  -0.331516  0  3.919995  0  0  -0.338826  0  3.928276  0  0  -0.167688  -0.326131  0  3.914056  0
C  C33  1  0.29056238  0.16882947  0.92436879  1  0  -0.295883  0  3.672716  0  0  -0.331447  0  3.919954  0  0  -0.338755  0  3.92824  0  0  -0.167662  -0.326083  0  3.914036  0
C  C34  1  0.70943740  0.66883166  0.92437008  1  0  -0.295934  0  3.672756  0  0  -0.331534  0  3.919986  0  0  -0.338846  0  3.928268  0  0  -0.167725  -0.326151  0  3.914053  0
C  C35  1  0.70943773  0.83117095  0.07563129  1  0  -0.295938  0  3.672764  0  0  -0.331525  0  3.920002  0  0  -0.338832  0  3.928287  0  0  -0.167671  -0.326144  0  3.914068  0
C  C36  1  0.46000653  0.24999828  0.99999886  1  0  -0.030982  0  3.667077  0  0  -0.074798  0  3.924634  0  0  -0.073206  0  3.937679  0  0  -0.163369  -0.075714  0  3.91512  0
C  C37  1  0.53999358  0.75000214  0.00000050  1  0  -0.030908  0  3.666955  0  0  -0.074741  0  3.924545  0  0  -0.073148  0  3.937588  0  0  -0.163364  -0.07566  0  3.915028  0
C  C38  1  0.46295912  0.07575834  0.35701914  1  0  0.736229  0  3.782858  0  0  0.687813  0  4.073888  0  0  0.722884  0  4.066696  0  0  0.228738  0.66379  0  4.078138  0
C  C39  1  0.46295350  0.42424127  0.64298102  1  0  0.736354  0  3.782833  0  0  0.687866  0  4.073927  0  0  0.722944  0  4.066726  0  0  0.228754  0.663842  0  4.078176  0
C  C40  1  0.53703891  0.92423992  0.64298165  1  0  0.736351  0  3.782768  0  0  0.687845  0  4.073907  0  0  0.722914  0  4.066713  0  0  0.228691  0.663825  0  4.078157  0
C  C41  1  0.53705076  0.57576129  0.35701907  1  0  0.736719  0  3.782397  0  0  0.688142  0  4.07362  0  0  0.723219  0  4.066416  0  0  0.228898  0.664114  0  4.07787  0
C  C42  1  0.61930996  0.16578341  0.42942701  1  0  -0.288146  0  3.67073  0  0  -0.325175  0  3.917516  0  0  -0.332429  0  3.926428  0  0  -0.166744  -0.320161  0  3.911253  0
C  C43  1  0.61930816  0.33422185  0.57057310  1  0  -0.288309  0  3.670822  0  0  -0.325296  0  3.917617  0  0  -0.332546  0  3.926542  0  0  -0.16679  -0.320285  0  3.911366  0
C  C44  1  0.38069015  0.83421593  0.57057235  1  0  -0.288408  0  3.670904  0  0  -0.325346  0  3.917621  0  0  -0.332589  0  3.926518  0  0  -0.166771  -0.320338  0  3.911382  0
C  C45  1  0.38069402  0.66577750  0.42942554  1  0  -0.288389  0  3.670828  0  0  -0.325332  0  3.917626  0  0  -0.332584  0  3.926556  0  0  -0.166785  -0.320328  0  3.911397  0
C  C46  1  0.43887404  0.25000085  0.50000045  1  0  -0.04201  0  3.690702  0  0  -0.086485  0  3.951781  0  0  -0.085058  0  3.965378  0  0  -0.167874  -0.087339  0  3.942488  0
C  C47  1  0.56112607  0.74999742  0.49999890  1  0  -0.041936  0  3.690804  0  0  -0.086457  0  3.951872  0  0  -0.085032  0  3.965469  0  0  -0.167876  -0.087318  0  3.942584  0
O  O48  1  0.13133189  0.10346876  0.13635045  1  0  -0.636329  0  2.03988  0  0  -0.558874  0  2.303359  0  0  -0.589143  0  2.289836  0  0  -0.305457  -0.537898  0  2.312542  0
O  O49  1  0.13132927  0.39652809  0.86364987  1  0  -0.636328  0  2.039713  0  0  -0.558852  0  2.303218  0  0  -0.589121  0  2.289704  0  0  -0.30542  -0.537876  0  2.312385  0
O  O50  1  0.86866821  0.89653166  0.86364964  1  0  -0.636331  0  2.039752  0  0  -0.55888  0  2.303207  0  0  -0.58915  0  2.289684  0  0  -0.305465  -0.537902  0  2.31239  0
O  O51  1  0.86867084  0.60346911  0.13635020  1  0  -0.636377  0  2.03969  0  0  -0.558907  0  2.303154  0  0  -0.589174  0  2.289639  0  0  -0.305446  -0.537929  0  2.312325  0
O  O52  1  0.00035944  0.29817393  0.21679701  1  0  -0.66851  0  2.047732  0  0  -0.598237  0  2.328561  0  0  -0.627566  0  2.310502  0  0  -0.321775  -0.577522  0  2.340233  0
O  O53  1  0.00035995  0.20182698  0.78320195  1  0  -0.668405  0  2.048065  0  0  -0.598129  0  2.328923  0  0  -0.627455  0  2.310872  0  0  -0.321714  -0.577424  0  2.340589  0
O  O54  1  0.99963860  0.70182649  0.78320235  1  0  -0.668414  0  2.04781  0  0  -0.598171  0  2.328639  0  0  -0.627503  0  2.310583  0  0  -0.32173  -0.577458  0  2.340312  0
O  O55  1  0.99964016  0.79817344  0.21679741  1  0  -0.668377  0  2.04806  0  0  -0.598112  0  2.328887  0  0  -0.627436  0  2.310834  0  0  -0.321727  -0.577403  0  2.340554  0
O  O56  1  0.58825867  0.01758619  0.28576404  1  0  -0.668933  0  2.070007  0  0  -0.601053  0  2.354348  0  0  -0.630347  0  2.336685  0  0  -0.321555  -0.580724  0  2.366197  0
O  O57  1  0.58825936  0.48241470  0.71423895  1  0  -0.668988  0  2.069931  0  0  -0.601076  0  2.354277  0  0  -0.630375  0  2.336619  0  0  -0.32155  -0.580745  0  2.366126  0
O  O58  1  0.41174144  0.98241207  0.71423675  1  0  -0.668895  0  2.069976  0  0  -0.600992  0  2.35434  0  0  -0.63029  0  2.336686  0  0  -0.321511  -0.580664  0  2.366192  0
O  O59  1  0.41174489  0.51758570  0.28576258  1  0  -0.669141  0  2.069693  0  0  -0.601221  0  2.354108  0  0  -0.630519  0  2.336448  0  0  -0.321627  -0.580888  0  2.365959  0
O  O60  1  0.20152341  0.05966980  0.36841799  1  0  -0.646142  0  2.053477  0  0  -0.568381  0  2.324945  0  0  -0.598414  0  2.30988  0  0  -0.308828  -0.547383  0  2.33455  0
O  O61  1  0.20152002  0.44033253  0.63158376  1  0  -0.646166  0  2.053538  0  0  -0.568329  0  2.324977  0  0  -0.598359  0  2.309906  0  0  -0.308805  -0.547336  0  2.334593  0
O  O62  1  0.79847463  0.94033168  0.63158282  1  0  -0.646233  0  2.053494  0  0  -0.56843  0  2.324979  0  0  -0.598466  0  2.309919  0  0  -0.308822  -0.547425  0  2.334572  0
O  O63  1  0.79849046  0.55966787  0.36841777  1  0  -0.646321  0  2.053418  0  0  -0.568458  0  2.324915  0  0  -0.598487  0  2.30984  0  0  -0.308869  -0.547469  0  2.334545  0
