# generated using pymatgen
data_CuH13C18(NO3)2
_symmetry_space_group_name_H-M   'P 1'
_cell_length_a   8.72541782
_cell_length_b   9.75607165
_cell_length_c   10.32521279
_cell_angle_alpha   91.01425884
_cell_angle_beta   106.30482323
_cell_angle_gamma   108.95828433
_symmetry_Int_Tables_number   1
_chemical_formula_structural   CuH13C18(NO3)2
_chemical_formula_sum   'Cu2 H26 C36 N4 O12'
_cell_volume   792.06852477
_cell_formula_units_Z   2
loop_
 _symmetry_equiv_pos_site_id
 _symmetry_equiv_pos_as_xyz
  1  'x, y, z'
loop_
 _atom_site_type_symbol
 _atom_site_label
 _atom_site_symmetry_multiplicity
 _atom_site_fract_x
 _atom_site_fract_y
 _atom_site_fract_z
 _atom_site_occupancy
 _atom_site_hle17_ddec_charge
 _atom_site_hle17_ddec_spin_density
 _atom_site_hle17_ddec_sum_bond_order
 _atom_site_hle17_magmom
 _atom_site_hse06_10hf_ddec_charge
 _atom_site_hse06_10hf_ddec_spin_density
 _atom_site_hse06_10hf_ddec_sum_bond_order
 _atom_site_hse06_10hf_magmom
 _atom_site_hse06_ddec_charge
 _atom_site_hse06_ddec_spin_density
 _atom_site_hse06_ddec_sum_bond_order
 _atom_site_hse06_magmom
 _atom_site_pbe_cm5_charge
 _atom_site_pbe_ddec_charge
 _atom_site_pbe_ddec_spin_density
 _atom_site_pbe_ddec_sum_bond_order
 _atom_site_pbe_magmom
Cu  Cu0  1  0.84879888  0.60103874  0.86527394  1  0.961098  0.745297  1.723867  0.532  0.955302  0.829378  2.116224  0.658  1.042431  0.903721  2.05255  0.748  0.729517  0.89438  0.771142  2.169661  0.595
Cu  Cu1  1  0.15120069  0.39896179  0.13472514  1  0.961109  -0.7453  1.723933  -0.532  0.955287  -0.829378  2.116323  -0.658  1.042413  -0.903713  2.052596  -0.748  0.729523  0.894369  -0.771144  2.16976  -0.595
H  H2  1  0.65136275  0.35213426  0.80370695  1  0.410067  0.000295  0.905688  -0.001  0.379605  0.000725  0.970286  0.0  0.392366  0.000437  0.952211  0.0  0.284669  0.370694  0.000955  0.982909  0.0
H  H3  1  0.34863317  0.64786302  0.19628921  1  0.410124  -0.000295  0.905617  0.001  0.379648  -0.000725  0.97023  0.0  0.392407  -0.000437  0.952157  0.0  0.284701  0.370736  -0.000955  0.982853  0.0
H  H4  1  0.54233509  0.42358379  0.87705770  1  0.444285  0.000659  0.852514  0.001  0.416071  0.000976  0.912421  0.002  0.428785  0.000773  0.894245  0.002  0.297267  0.406996  0.001081  0.925355  0.002
H  H5  1  0.45766643  0.57641561  0.12294374  1  0.444268  -0.00066  0.85255  -0.001  0.416072  -0.000976  0.91243  -0.002  0.428784  -0.000773  0.894257  -0.002  0.297283  0.406995  -0.001081  0.925364  -0.002
H  H6  1  0.65658146  0.77280621  0.29509780  1  0.102212  -0.000382  0.954559  0.0  0.113436  -0.000374  1.012882  0.0  0.117171  -0.000273  1.010152  0.0  0.106371  0.110521  -0.000464  1.015324  0.0
H  H7  1  0.34342128  0.22719324  0.70490200  1  0.102228  0.000387  0.954506  0.0  0.113417  0.000374  1.012871  0.0  0.117151  0.000273  1.010141  0.0  0.106364  0.110503  0.000464  1.015309  0.0
H  H8  1  0.78544199  0.86115815  0.54421273  1  0.096339  0.000345  0.965438  0.0  0.107125  0.000115  1.024135  0.0  0.109343  7.2e-05  1.02433  0.0  0.102559  0.105178  0.000102  1.02461  0.0
H  H9  1  0.21456210  0.13884470  0.45578268  1  0.096376  -0.000342  0.965376  0.0  0.107133  -0.000115  1.024095  0.0  0.10935  -7.2e-05  1.024291  0.0  0.102574  0.105189  -0.000102  1.024569  0.0
H  H10  1  0.07065622  0.85354067  0.66532844  1  0.109154  -0.000175  0.960485  0.0  0.116755  -3.1e-05  1.025271  0.0  0.119242  -2.8e-05  1.025054  0.0  0.10801  0.11501  -1.6e-05  1.025601  0.0
H  H11  1  0.92934740  0.14646102  0.33466972  1  0.10915  0.000178  0.960476  0.0  0.116755  3.1e-05  1.02526  0.0  0.119241  2.8e-05  1.02504  0.0  0.108007  0.115013  1.6e-05  1.025591  0.0
H  H12  1  0.36567658  0.99116355  0.59568112  1  0.091834  6e-05  0.941023  0.0  0.103543  3.6e-05  1.003287  0.0  0.105809  1.7e-05  1.001097  0.0  0.124732  0.101933  6.2e-05  1.004866  0.0
H  H13  1  0.63432300  0.00883697  0.40431796  1  0.091878  -5.9e-05  0.941046  0.0  0.103591  -3.6e-05  1.003292  0.0  0.105858  -1.7e-05  1.001102  0.0  0.124764  0.101982  -6.2e-05  1.004869  0.0
H  H14  1  0.65695266  0.00405478  0.72323658  1  0.1427  -6.2e-05  0.963437  0.0  0.147455  -4e-05  1.028295  0.0  0.1528  -3.1e-05  1.025566  0.0  0.106772  0.143677  -4.1e-05  1.030443  0.0
H  H15  1  0.34304813  0.99594577  0.27676183  1  0.142697  5.8e-05  0.963448  0.0  0.147444  4e-05  1.028319  0.0  0.152791  3.1e-05  1.025589  0.0  0.106767  0.143669  4.1e-05  1.030466  0.0
H  H16  1  0.47849708  0.52871952  0.65176993  1  0.137989  2e-06  0.967599  0.0  0.147405  1e-05  1.024976  0.0  0.151425  -1.9e-05  1.02411  0.0  0.108659  0.14457  4.1e-05  1.025751  0.0
H  H17  1  0.52149677  0.47127864  0.34823351  1  0.137982  -1.2e-05  0.96759  0.0  0.147404  -1e-05  1.024964  0.0  0.151422  1.9e-05  1.024096  0.0  0.108642  0.144568  -4.1e-05  1.02574  0.0
H  H18  1  0.19292974  0.53661218  0.52490291  1  0.101494  4e-05  0.937264  0.0  0.111559  7e-06  0.998575  0.0  0.114166  7e-06  0.996669  0.0  0.125485  0.109799  1.1e-05  0.99966  0.0
H  H19  1  0.80706577  0.46338713  0.47509903  1  0.101523  -4.4e-05  0.937253  0.0  0.111556  -7e-06  0.998581  0.0  0.114161  -7e-06  0.996678  0.0  0.125493  0.109813  -1.1e-05  0.999644  0.0
H  H20  1  0.99697627  0.91678808  0.92342754  1  0.091061  0.001303  0.954569  0.002  0.098154  0.001002  1.018555  0.002  0.100385  0.000712  1.015696  0.001  0.121054  0.096006  0.001209  1.0213  0.002
H  H21  1  0.00302366  0.08321030  0.07657058  1  0.091065  -0.001309  0.954608  -0.002  0.098153  -0.001002  1.018595  -0.002  0.100383  -0.000712  1.015737  -0.001  0.121071  0.096006  -0.001209  1.021339  -0.002
H  H22  1  0.28754778  0.10359268  0.00014392  1  0.118085  0.000401  0.970729  0.0  0.126741  0.000408  1.031634  0.0  0.129405  0.00028  1.031663  0.0  0.111523  0.124601  0.000493  1.032048  0.001
H  H23  1  0.71245312  0.89641119  0.99985269  1  0.118105  -0.000402  0.970724  0.0  0.126757  -0.000408  1.031632  0.0  0.12942  -0.00028  1.031662  0.0  0.111541  0.124617  -0.000493  1.032046  -0.001
H  H24  1  0.47881932  0.75583659  0.94137554  1  0.123573  0.00038  0.980536  0.0  0.131716  0.000393  1.040879  0.001  0.134942  0.000268  1.039934  0.0  0.111092  0.12895  0.000499  1.042376  0.001
H  H25  1  0.52118211  0.24416264  0.05863266  1  0.123556  -0.000375  0.980578  0.0  0.131684  -0.000392  1.040931  -0.001  0.134911  -0.000268  1.039984  0.0  0.111098  0.128918  -0.000499  1.042429  -0.001
H  H26  1  0.18120221  0.58774890  0.86905651  1  0.090082  0.0014  0.975597  0.003  0.095891  0.001061  1.042997  0.002  0.09784  0.000731  1.040822  0.001  0.117997  0.094163  0.001341  1.044863  0.002
H  H27  1  0.81880072  0.41224810  0.13095390  1  0.090062  -0.001399  0.97567  -0.003  0.095898  -0.001062  1.043035  -0.002  0.09783  -0.000731  1.040881  -0.001  0.118006  0.094173  -0.001341  1.044902  -0.002
C  C28  1  0.78872824  0.67051947  0.12704752  1  0.645175  -0.00227  3.907539  -0.005  0.60171  0.000346  4.209289  -0.001  0.638496  -1e-06  4.202159  -0.001  0.210513  0.576489  0.000661  4.212411  -0.001
C  C29  1  0.21126963  0.32947671  0.87295003  1  0.645392  0.002271  3.907124  0.005  0.601823  -0.000346  4.209019  0.001  0.638606  0.0  4.201896  0.001  0.210539  0.576593  -0.00066  4.212136  0.001
C  C30  1  0.13704854  0.66016880  0.27718447  1  0.679105  0.002125  3.891907  0.004  0.62931  -0.001021  4.202396  0.0  0.668344  -0.000612  4.190247  0.0  0.212729  0.602172  -0.001323  4.210026  0.0
C  C31  1  0.86294901  0.33982958  0.72281212  1  0.679062  -0.00213  3.891942  -0.004  0.629312  0.00102  4.202349  0.0  0.668345  0.000613  4.1902  0.0  0.212786  0.602174  0.001323  4.209977  0.0
C  C32  1  0.86969276  0.71840864  0.27791770  1  -0.067306  0.005208  3.711995  0.006  -0.052361  0.003021  3.943346  0.004  -0.060246  0.00194  3.965701  0.003  -0.012721  -0.047554  0.003542  3.929198  0.004
C  C33  1  0.13030804  0.28159194  0.72207974  1  -0.067307  -0.005195  3.711895  -0.006  -0.052347  -0.003022  3.943276  -0.004  -0.060229  -0.001936  3.965627  -0.003  -0.012712  -0.047528  -0.003541  3.929111  -0.004
C  C34  1  0.78224393  0.77120882  0.35004888  1  -0.071794  0.001985  3.737158  0.002  -0.097936  0.000529  3.989879  0.001  -0.097778  0.000459  4.010196  0.001  -0.082676  -0.098207  0.00063  3.977075  0.001
C  C35  1  0.21775903  0.22879725  0.64994830  1  -0.071811  -0.00201  3.737125  -0.002  -0.097931  -0.000528  3.989845  -0.001  -0.097773  -0.000463  4.010162  -0.001  -0.08269  -0.098205  -0.00063  3.977039  -0.001
C  C36  1  0.85368018  0.82074953  0.48818520  1  -0.052758  -0.005467  3.758751  -0.005  -0.068625  -0.001721  4.015162  -0.002  -0.072102  -0.001137  4.037267  -0.001  -0.088599  -0.066462  -0.00255  4.000844  -0.002
C  C37  1  0.14632756  0.17925656  0.51181313  1  -0.05277  0.005479  3.758696  0.005  -0.068599  0.00172  4.015083  0.002  -0.072078  0.001141  4.037188  0.001  -0.088586  -0.066438  0.002551  4.000772  0.002
C  C38  1  0.01421068  0.81725061  0.55695012  1  -0.10313  0.002015  3.713668  0.002  -0.130892  0.000315  3.977709  0.0  -0.130918  0.00035  3.996417  0.0  -0.077572  -0.130608  0.00022  3.964942  0.0
C  C39  1  0.98579142  0.18275327  0.44304679  1  -0.103167  -0.00204  3.71361  -0.002  -0.130933  -0.000313  3.977662  0.0  -0.130955  -0.000354  3.996367  0.0  -0.07757  -0.130653  -0.00022  3.964903  0.0
C  C40  1  0.10222653  0.76520740  0.48582200  1  0.126878  -0.004431  3.750189  -0.004  0.111552  -0.001854  4.007293  -0.002  0.113944  -0.00125  4.030244  -0.001  0.088287  0.10971  -0.002454  3.991531  -0.002
C  C41  1  0.89777471  0.23479430  0.51417462  1  0.126978  0.004448  3.750013  0.004  0.11163  0.001852  4.007141  0.002  0.11402  0.001254  4.030091  0.001  0.088296  0.109786  0.002454  3.991383  0.002
C  C42  1  0.03339726  0.71638635  0.34615024  1  -0.100778  -0.006171  3.660484  -0.007  -0.093878  -0.003244  3.897337  -0.004  -0.095862  -0.001881  3.913565  -0.002  0.00149  -0.092556  -0.004469  3.88682  -0.005
C  C43  1  0.96660028  0.28361201  0.65384730  1  -0.100873  0.006169  3.660523  0.007  -0.093966  0.003248  3.897361  0.004  -0.095951  0.001876  3.91359  0.002  0.001451  -0.092649  0.004469  3.886841  0.005
C  C44  1  0.59716359  0.76552848  0.70350117  1  0.430759  -0.000588  3.88937  -0.001  0.422961  -0.000161  4.148915  -0.001  0.448787  -0.000162  4.154644  0.0  0.109767  0.405597  -0.000179  4.143639  -0.001
C  C45  1  0.40283356  0.23447196  0.29650023  1  0.430723  0.000594  3.889322  0.001  0.42296  0.000161  4.148825  0.001  0.448784  0.000163  4.15456  0.0  0.109814  0.405574  0.000179  4.143588  0.001
C  C46  1  0.39872652  0.89321945  0.61279940  1  0.095645  -0.000148  3.69044  0.0  0.052147  -0.000129  3.948398  0.0  0.064944  -0.000101  3.962033  0.0  0.04264  0.04418  -0.000201  3.938751  0.0
C  C47  1  0.60127426  0.10678111  0.38719900  1  0.095593  0.000145  3.690421  0.0  0.052085  0.000129  3.948412  0.0  0.064877  0.000101  3.962061  0.0  0.042623  0.044121  0.000201  3.938761  0.0
C  C48  1  0.55876660  0.89786844  0.68240852  1  -0.266416  0.000675  3.705045  0.001  -0.28495  0.000565  3.964982  0.001  -0.298825  0.00032  3.981881  0.0  -0.109167  -0.275707  0.000851  3.953524  0.001
C  C49  1  0.44123298  0.10213209  0.31759056  1  -0.266422  -0.00067  3.70507  -0.001  -0.284964  -0.000566  3.965009  -0.001  -0.298841  -0.00032  3.981906  0.0  -0.109183  -0.275713  -0.000851  3.953561  -0.001
C  C50  1  0.45827282  0.63271325  0.64047029  1  -0.243926  0.000347  3.670175  0.001  -0.26128  0.000187  3.917855  0.0  -0.276037  4.3e-05  3.937208  0.0  -0.102926  -0.251718  0.000372  3.904853  0.001
C  C51  1  0.54172551  0.36728716  0.35953236  1  -0.243873  -0.000331  3.670223  -0.001  -0.261238  -0.000186  3.917874  0.0  -0.275992  -4.4e-05  3.937228  0.0  -0.102898  -0.251668  -0.000372  3.904885  -0.001
C  C52  1  0.30078359  0.63516135  0.57193044  1  0.101588  -0.000149  3.666805  0.0  0.060531  -0.000148  3.919274  0.0  0.073171  -0.000118  3.933016  0.0  0.043323  0.052484  -0.000151  3.909844  0.0
C  C53  1  0.69921314  0.36483801  0.42806986  1  0.101475  0.000161  3.666903  0.0  0.060444  0.000149  3.919399  0.0  0.073095  0.000119  3.93312  0.0  0.043269  0.052384  0.000151  3.909958  0.0
C  C54  1  0.10945776  0.88798681  0.93127630  1  0.131207  -0.009236  3.678564  -0.01  0.103535  -0.000679  3.931994  -0.001  0.113583  -0.00203  3.948435  -0.003  0.047958  0.096832  0.000358  3.921552  0.0
C  C55  1  0.89054582  0.11201480  0.06872475  1  0.13119  0.009248  3.678631  0.01  0.103521  0.00068  3.932054  0.001  0.113569  0.002029  3.948498  0.003  0.047947  0.096818  -0.000358  3.921613  0.0
C  C56  1  0.27212508  0.99083989  0.97203628  1  -0.147727  0.014451  3.672939  0.015  -0.165509  0.004867  3.9168  0.006  -0.173387  0.004498  3.937387  0.005  -0.078028  -0.160909  0.005219  3.903976  0.006
C  C57  1  0.72787685  0.00916057  0.02796627  1  -0.147758  -0.014452  3.672922  -0.015  -0.165525  -0.004868  3.916792  -0.006  -0.173403  -0.004498  3.937378  -0.005  -0.078032  -0.160924  -0.005219  3.903968  -0.006
C  C58  1  0.41224895  0.94745975  0.97740731  1  0.096943  -0.011841  3.744754  -0.012  0.11026  -0.003232  3.969831  -0.004  0.114453  -0.003478  3.991064  -0.004  0.01503  0.107202  -0.003065  3.956414  -0.003
C  C59  1  0.58775456  0.05254171  0.02259952  1  0.09703  0.011841  3.74472  0.012  0.110285  0.003232  3.969853  0.004  0.114477  0.003478  3.991087  0.004  0.015028  0.107231  0.003065  3.956435  0.003
C  C60  1  0.37827303  0.79964025  0.93839899  1  -0.150335  0.015097  3.683414  0.016  -0.168781  0.005203  3.927618  0.006  -0.176979  0.004742  3.948662  0.006  -0.079507  -0.164046  0.005572  3.915223  0.007
C  C61  1  0.62172888  0.20036016  0.06160549  1  -0.150246  -0.015109  3.683347  -0.016  -0.168662  -0.005203  3.927559  -0.006  -0.176861  -0.004744  3.948604  -0.006  -0.079475  -0.163926  -0.005572  3.915163  -0.007
C  C62  1  0.21213962  0.70312822  0.89895245  1  0.1299  -0.00836  3.677747  -0.009  0.099075  -0.000177  3.937998  -0.001  0.109155  -0.001672  3.954222  -0.003  0.046727  0.092135  0.001077  3.928231  0.0
C  C63  1  0.78786145  0.29687004  0.10105078  1  0.129835  0.008355  3.677804  0.009  0.098992  0.000177  3.93803  0.001  0.109081  0.001672  3.954271  0.003  0.046695  0.092052  -0.001077  3.928266  0.0
N  N64  1  0.26908085  0.76390551  0.55831034  1  -0.09459  -0.000594  3.599351  -0.001  -0.003857  -0.000295  3.809379  0.0  -0.02116  -0.000211  3.835927  0.0  -0.225624  0.007626  -0.000411  3.791293  0.0
N  N65  1  0.73091873  0.23609502  0.44168874  1  -0.094474  0.000595  3.599167  0.001  -0.00374  0.000296  3.809189  0.0  -0.021043  0.000211  3.835736  0.0  -0.225585  0.007745  0.000411  3.791109  0.0
N  N66  1  0.07989764  0.74627966  0.89550529  1  -0.280954  0.093519  3.330583  0.114  -0.23477  0.061621  3.624839  0.08  -0.265858  0.050086  3.644929  0.069  -0.345257  -0.215739  0.067656  3.613357  0.085
N  N67  1  0.92010505  0.25371970  0.10449837  1  -0.280943  -0.093513  3.330647  -0.114  -0.234758  -0.061622  3.624901  -0.08  -0.26584  -0.050088  3.644973  -0.069  -0.345292  -0.215727  -0.067654  3.613419  -0.085
O  O68  1  0.89331362  0.66315224  0.06356697  1  -0.615859  0.072671  2.126885  0.096  -0.597167  0.042988  2.426305  0.063  -0.637939  0.031502  2.41618  0.05  -0.31765  -0.567167  0.050081  2.431686  0.07
O  O69  1  0.10668291  0.33685267  0.93642960  1  -0.615977  -0.072674  2.126627  -0.096  -0.59723  -0.042988  2.42608  -0.063  -0.637999  -0.031502  2.415944  -0.05  -0.317663  -0.567231  -0.050085  2.431461  -0.07
O  O70  1  0.63222671  0.64478811  0.07306616  1  -0.608514  -0.004265  1.99723  -0.005  -0.560954  -0.002213  2.224447  -0.003  -0.586174  -0.001686  2.215426  -0.002  -0.309563  -0.542383  -0.003362  2.229705  -0.004
O  O71  1  0.36777027  0.35520581  0.92693400  1  -0.608588  0.004264  1.99713  0.005  -0.560973  0.002213  2.224377  0.003  -0.58619  0.001686  2.215353  0.002  -0.309551  -0.542404  0.003362  2.229635  0.004
O  O72  1  0.26256519  0.74985041  0.25146523  1  -0.588947  0.001381  1.941712  0.001  -0.538655  0.000804  2.153127  0.001  -0.564655  0.00092  2.144442  0.001  -0.306307  -0.520282  0.000637  2.15885  0.001
O  O73  1  0.73743193  0.25014688  0.74853121  1  -0.58891  -0.001379  1.941785  -0.001  -0.538624  -0.000803  2.15314  -0.001  -0.564631  -0.000922  2.14447  -0.001  -0.30633  -0.520251  -0.000637  2.158863  -0.001
O  O74  1  0.09096260  0.52032648  0.26152547  1  -0.625043  -0.077597  2.066935  -0.102  -0.607968  -0.045697  2.360808  -0.067  -0.648567  -0.033322  2.348692  -0.052  -0.325194  -0.578518  -0.054429  2.36829  -0.076
O  O75  1  0.90903332  0.47967081  0.73847069  1  -0.62506  0.077593  2.066917  0.102  -0.608001  0.045696  2.360757  0.067  -0.648604  0.033321  2.348654  0.052  -0.325232  -0.578551  0.05443  2.368236  0.076
O  O76  1  0.74493508  0.76960978  0.77304290  1  -0.594201  0.009063  2.013932  0.013  -0.56533  0.006462  2.275354  0.01  -0.593262  0.003761  2.264303  0.007  -0.325091  -0.543432  0.010214  2.282069  0.015
O  O77  1  0.25506123  0.23038853  0.22695629  1  -0.594228  -0.009074  2.013911  -0.013  -0.565338  -0.006464  2.275296  -0.01  -0.593269  -0.003761  2.264238  -0.007  -0.325118  -0.543432  -0.010214  2.282027  -0.015
O  O78  1  0.62877248  0.44364505  0.82699351  1  -0.844934  0.055255  2.036979  0.071  -0.808958  0.039684  2.26727  0.055  -0.841262  0.031207  2.227395  0.045  -0.588312  -0.785657  0.04509  2.295124  0.06
O  O79  1  0.37122627  0.55635334  0.17300336  1  -0.844953  -0.055253  2.036956  -0.071  -0.80899  -0.039684  2.267295  -0.055  -0.841292  -0.031208  2.227407  -0.045  -0.58834  -0.785686  -0.04509  2.295151  -0.06
