# generated using pymatgen
data_Zn3H22(C16O9)2
_symmetry_space_group_name_H-M   'P 1'
_cell_length_a   6.72839663
_cell_length_b   14.49156607
_cell_length_c   15.72000000
_cell_angle_alpha   90.00000000
_cell_angle_beta   98.37332897
_cell_angle_gamma   90.00000000
_symmetry_Int_Tables_number   1
_chemical_formula_structural   Zn3H22(C16O9)2
_chemical_formula_sum   'Zn6 H44 C64 O36'
_cell_volume   1516.43959599
_cell_formula_units_Z   2
loop_
 _symmetry_equiv_pos_site_id
 _symmetry_equiv_pos_as_xyz
  1  'x, y, z'
loop_
 _atom_site_type_symbol
 _atom_site_label
 _atom_site_symmetry_multiplicity
 _atom_site_fract_x
 _atom_site_fract_y
 _atom_site_fract_z
 _atom_site_occupancy
 _atom_site_hle17_bader_spin_density
 _atom_site_hle17_ddec_charge
 _atom_site_hle17_ddec_spin_density
 _atom_site_hle17_ddec_sum_bond_order
 _atom_site_hle17_magmom
 _atom_site_hse06_10hf_bader_spin_density
 _atom_site_hse06_10hf_ddec_charge
 _atom_site_hse06_10hf_ddec_spin_density
 _atom_site_hse06_10hf_ddec_sum_bond_order
 _atom_site_hse06_10hf_magmom
 _atom_site_hse06_bader_spin_density
 _atom_site_hse06_ddec_charge
 _atom_site_hse06_ddec_spin_density
 _atom_site_hse06_ddec_sum_bond_order
 _atom_site_hse06_magmom
 _atom_site_pbe_bader_charge
 _atom_site_pbe_bader_spin_density
 _atom_site_pbe_cm5_charge
 _atom_site_pbe_ddec_charge
 _atom_site_pbe_ddec_spin_density
 _atom_site_pbe_ddec_sum_bond_order
 _atom_site_pbe_magmom
Zn  Zn0  1  0.49999749  0.50000048  0.00000003  1  0  1.206827  0  1.717412  0  0  1.044741  0  2.167942  0  0  1.093849  0  2.106183  0  1.362625  0  0.652702  1.010041  0  2.210642  0
Zn  Zn1  1  0.49999599  0.00000000  0.49999867  1  0  1.206886  0  1.717229  0  0  1.044825  0  2.167723  0  0  1.093933  0  2.105966  0  1.362427  0  0.652716  1.01012  0  2.210423  0
Zn  Zn2  1  0.06163890  0.52587001  0.09414212  1  0  1.198592  0  1.714142  0  0  1.050695  0  2.151022  0  0  1.095898  0  2.092764  0  1.361132  0  0.654189  1.018539  0  2.191283  0
Zn  Zn3  1  0.93836209  0.02587022  0.40585768  1  0  1.19858  0  1.714143  0  0  1.05067  0  2.151023  0  0  1.09587  0  2.092767  0  1.361063  0  0.654174  1.018512  0  2.191283  0
Zn  Zn4  1  0.93835908  0.47413026  0.90585686  1  0  1.198594  0  1.714106  0  0  1.050705  0  2.150969  0  0  1.095909  0  2.092712  0  1.361055  0  0.654213  1.018546  0  2.191231  0
Zn  Zn5  1  0.06163890  0.97413143  0.59414467  1  0  1.198587  0  1.714104  0  0  1.050686  0  2.150978  0  0  1.095889  0  2.092719  0  1.361081  0  0.654178  1.018527  0  2.191239  0
H  H6  1  0.52231644  0.17012240  0.28441913  1  0  0.11677  0  0.967199  0  0  0.122776  0  1.031804  0  0  0.126392  0  1.029588  0  0.160078  0  0.10939  0.120151  0  1.033536  0
H  H7  1  0.47769506  0.67012288  0.21558196  1  0  0.116756  0  0.967174  0  0  0.122736  0  1.031816  0  0  0.126355  0  1.029594  0  0.160126  0  0.109367  0.120111  0  1.033547  0
H  H8  1  0.47768454  0.82987718  0.71558067  1  0  0.11672  0  0.967212  0  0  0.122727  0  1.031842  0  0  0.126345  0  1.029623  0  0.159736  0  0.10938  0.120105  0  1.033568  0
H  H9  1  0.52230743  0.32987739  0.78441730  1  0  0.116743  0  0.967103  0  0  0.122726  0  1.031755  0  0  0.126344  0  1.029536  0  0.1601  0  0.109388  0.120101  0  1.033487  0
H  H10  1  0.43738063  0.29363079  0.17806222  1  0  0.112857  0  0.919706  0  0  0.124708  0  0.974371  0  0  0.128316  0  0.972119  0  0.131852  0  0.114326  0.122066  0  0.976173  0
H  H11  1  0.56263087  0.79363265  0.32193633  1  0  0.112795  0  0.919836  0  0  0.124692  0  0.97445  0  0  0.1283  0  0.972202  0  0.131801  0  0.114345  0.122049  0  0.976253  0
H  H12  1  0.56261735  0.70636948  0.82193740  1  0  0.112839  0  0.919747  0  0  0.124708  0  0.97439  0  0  0.128315  0  0.972139  0  0.131852  0  0.114328  0.122064  0  0.976194  0
H  H13  1  0.43737762  0.20636624  0.67806204  1  0  0.112783  0  0.919823  0  0  0.124669  0  0.974448  0  0  0.128277  0  0.972196  0  0.131787  0  0.114322  0.122026  0  0.976252  0
H  H14  1  0.76960062  0.68979225  0.43905148  1  0  0.108079  0  0.928693  0  0  0.116906  0  0.989  0  0  0.121315  0  0.985269  0  0.096515  0  0.109384  0.11366  0  0.99186  0
H  H15  1  0.23039886  0.18979108  0.06094950  1  0  0.10807  0  0.92866  0  0  0.116895  0  0.988979  0  0  0.121304  0  0.985247  0  0.096249  0  0.109386  0.113649  0  0.991839  0
H  H16  1  0.23040337  0.31020871  0.56094724  1  0  0.108103  0  0.928699  0  0  0.116966  0  0.988971  0  0  0.121375  0  0.98524  0  0.096294  0  0.109426  0.113719  0  0.991832  0
H  H17  1  0.76959912  0.81020781  0.93905330  1  0  0.108057  0  0.928759  0  0  0.116908  0  0.989044  0  0  0.121317  0  0.985312  0  0.096576  0  0.109409  0.113663  0  0.991901  0
H  H18  1  0.89095102  0.73121014  0.59215516  1  0  0.111342  0  0.947891  0  0  0.118687  0  1.011346  0  0  0.122883  0  1.008365  0  0.118616  0  0.104938  0.115584  0  1.013635  0
H  H19  1  0.10904395  0.23121311  0.90784491  1  0  0.111407  0  0.947747  0  0  0.11869  0  1.011281  0  0  0.122885  0  1.008303  0  0.11856  0  0.104947  0.115586  0  1.013571  0
H  H20  1  0.10904846  0.26878668  0.40784137  1  0  0.111313  0  0.94786  0  0  0.118668  0  1.01132  0  0  0.122865  0  1.008341  0  0.118561  0  0.104911  0.115565  0  1.013609  0
H  H21  1  0.89095703  0.76878924  0.09215808  1  0  0.111333  0  0.947879  0  0  0.118698  0  1.011318  0  0  0.1229  0  1.008338  0  0.118594  0  0.104932  0.115595  0  1.013607  0
H  H22  1  0.92551783  0.60785080  0.70471106  1  0  0.108437  0  0.938323  0  0  0.120018  0  0.994839  0  0  0.123182  0  0.993559  0  0.107573  0  0.106551  0.117638  0  0.995972  0
H  H23  1  0.07447714  0.10785101  0.79529028  1  0  0.10849  0  0.938351  0  0  0.120018  0  0.994905  0  0  0.123183  0  0.993624  0  0.107635  0  0.106556  0.11764  0  0.996035  0
H  H24  1  0.07448014  0.39215016  0.29528792  1  0  0.108447  0  0.938359  0  0  0.120004  0  0.994886  0  0  0.12317  0  0.993605  0  0.107577  0  0.10654  0.11763  0  0.996012  0
H  H25  1  0.92552384  0.89214995  0.20471144  1  0  0.108482  0  0.938343  0  0  0.120043  0  0.994862  0  0  0.123204  0  0.993584  0  0.107621  0  0.106549  0.117664  0  0.995992  0
H  H26  1  0.83905423  0.44499400  0.66245168  1  0  0.100871  0  0.955637  0  0  0.108682  0  1.021496  0  0  0.113366  0  1.017221  0  0.080714  0  0.105326  0.105261  0  1.024719  0
H  H27  1  0.16094676  0.94499379  0.83755004  1  0  0.100866  0  0.955712  0  0  0.108681  0  1.02156  0  0  0.113367  0  1.017287  0  0.080871  0  0.105314  0.105259  0  1.024787  0
H  H28  1  0.16094976  0.55500627  0.33754832  1  0  0.100922  0  0.955642  0  0  0.108728  0  1.021484  0  0  0.113416  0  1.017208  0  0.080883  0  0.10534  0.10531  0  1.0247  0
H  H29  1  0.83905573  0.05500648  0.16245177  1  0  0.100896  0  0.955634  0  0  0.108707  0  1.021482  0  0  0.113392  0  1.017211  0  0.080703  0  0.105325  0.105284  0  1.024713  0
H  H30  1  0.21772887  0.39587095  0.00891807  1  0  0.419186  0  0.841327  0  0  0.402919  0  0.889901  0  0  0.411133  0  0.88204  0  0.590537  0  0.301537  0.397045  0  0.895543  0
H  H31  1  0.78226460  0.89587005  0.49107872  1  0  0.419176  0  0.841321  0  0  0.402906  0  0.88991  0  0  0.411122  0  0.882047  0  0.590547  0  0.301513  0.397028  0  0.89556  0
H  H32  1  0.78226310  0.60412794  0.99108054  1  0  0.419159  0  0.841328  0  0  0.402886  0  0.889928  0  0  0.411103  0  0.882061  0  0.590581  0  0.301524  0.397009  0  0.895577  0
H  H33  1  0.21773488  0.10413022  0.50891972  1  0  0.41926  0  0.841167  0  0  0.402962  0  0.889806  0  0  0.411181  0  0.881926  0  0.590548  0  0.301539  0.397084  0  0.895458  0
H  H34  1  0.90936562  0.36566993  0.07444032  1  0  0.419981  0  0.871448  0  0  0.392815  0  0.937687  0  0  0.402914  0  0.923084  0  0.640278  0  0.294226  0.385688  0  0.947974  0
H  H35  1  0.09063085  0.86567248  0.42555857  1  0  0.420042  0  0.871359  0  0  0.392883  0  0.937587  0  0  0.402982  0  0.922986  0  0.640367  0  0.294265  0.385756  0  0.947874  0
H  H36  1  0.09062785  0.63433103  0.92556092  1  0  0.42003  0  0.871383  0  0  0.392874  0  0.937605  0  0  0.402971  0  0.923006  0  0.640262  0  0.294277  0.385747  0  0.947891  0
H  H37  1  0.90936863  0.13432986  0.57444178  1  0  0.420024  0  0.871412  0  0  0.392863  0  0.937621  0  0  0.402961  0  0.923019  0  0.640352  0  0.294255  0.385736  0  0.947907  0
H  H38  1  0.80208531  0.41578805  0.14260483  1  0  0.413812  0  0.886393  0  0  0.383257  0  0.955688  0  0  0.393797  0  0.940448  0  0.626643  0  0.29053  0.375853  0  0.966372  0
H  H39  1  0.19791267  0.91578991  0.35739478  1  0  0.413819  0  0.88639  0  0  0.383274  0  0.955664  0  0  0.393811  0  0.94043  0  0.626653  0  0.290532  0.375868  0  0.96635  0
H  H40  1  0.19790666  0.58421291  0.85739441  1  0  0.413636  0  0.886502  0  0  0.383101  0  0.955887  0  0  0.393638  0  0.940653  0  0.626691  0  0.290454  0.375697  0  0.966571  0
H  H41  1  0.80208832  0.08421243  0.64260439  1  0  0.413751  0  0.886415  0  0  0.383183  0  0.955787  0  0  0.393724  0  0.940546  0  0.626671  0  0.290503  0.375778  0  0.966472  0
H  H42  1  0.76082596  0.57491578  0.16600457  1  0  0.429105  0  0.862689  0  0  0.395572  0  0.939209  0  0  0.405027  0  0.92546  0  0.64575  0  0.303169  0.388913  0  0.948898  0
H  H43  1  0.23917953  0.07491668  0.33399679  1  0  0.429092  0  0.862699  0  0  0.395565  0  0.939219  0  0  0.405014  0  0.925481  0  0.645491  0  0.303155  0.388904  0  0.94891  0
H  H44  1  0.23917352  0.42508449  0.83399769  1  0  0.429087  0  0.862701  0  0  0.395557  0  0.939237  0  0  0.405008  0  0.925495  0  0.645755  0  0.303149  0.388898  0  0.948926  0
H  H45  1  0.76082596  0.92508497  0.66600457  1  0  0.4291  0  0.862703  0  0  0.395566  0  0.939221  0  0  0.405018  0  0.925478  0  0.645696  0  0.303169  0.388906  0  0.948911  0
H  H46  1  0.93277822  0.61191109  0.23429973  1  0  0.438668  0  0.805323  0  0  0.420117  0  0.858861  0  0  0.427884  0  0.850188  0  0.632171  0  0.327156  0.414604  0  0.865082  0
H  H47  1  0.06722126  0.11191199  0.26570062  1  0  0.438689  0  0.805281  0  0  0.420139  0  0.858813  0  0  0.427904  0  0.850143  0  0.632172  0  0.327166  0.414627  0  0.865034  0
H  H48  1  0.06721976  0.38808711  0.76570053  1  0  0.438687  0  0.80527  0  0  0.420139  0  0.858801  0  0  0.427906  0  0.850129  0  0.632173  0  0.327164  0.414626  0  0.865024  0
H  H49  1  0.93277822  0.88808828  0.73429909  1  0  0.438666  0  0.805328  0  0  0.420113  0  0.858863  0  0  0.42788  0  0.850191  0  0.632173  0  0.327162  0.414601  0  0.865085  0
C  C50  1  0.61798885  0.26323104  0.39004702  1  0  -0.030531  0  3.672072  0  0  -0.019206  0  3.911165  0  0  -0.022771  0  3.929201  0  0.019875  0  0.008299  -0.017043  0  3.899263  0
C  C51  1  0.38201513  0.76323221  0.10995361  1  0  -0.030535  0  3.671904  0  0  -0.019174  0  3.911012  0  0  -0.022753  0  3.929039  0  0.019925  0  0.008358  -0.017012  0  3.899108  0
C  C52  1  0.38200011  0.73676854  0.60995394  1  0  -0.030622  0  3.671897  0  0  -0.019299  0  3.91112  0  0  -0.022871  0  3.929153  0  0.019861  0  0.008237  -0.017138  0  3.899222  0
C  C53  1  0.61799336  0.23676875  0.89004412  1  0  -0.030537  0  3.67216  0  0  -0.019232  0  3.911291  0  0  -0.022806  0  3.92932  0  0.020392  0  0.008328  -0.017069  0  3.899388  0
C  C54  1  0.54377010  0.24173302  0.30454512  1  0  -0.04464  0  3.660329  0  0  -0.069448  0  3.912303  0  0  -0.069525  0  3.92943  0  -0.033182  0  -0.068283  -0.069298  0  3.900778  0
C  C55  1  0.45623990  0.74173419  0.19545525  1  0  -0.044528  0  3.66019  0  0  -0.069339  0  3.912193  0  0  -0.069411  0  3.929314  0  -0.033187  0  -0.068217  -0.069188  0  3.900666  0
C  C56  1  0.45623990  0.75826587  0.69545335  1  0  -0.044423  0  3.660081  0  0  -0.069291  0  3.912163  0  0  -0.069361  0  3.92928  0  -0.032735  0  -0.068235  -0.069141  0  3.900639  0
C  C57  1  0.54376860  0.25826677  0.80454439  1  0  -0.044388  0  3.660061  0  0  -0.069206  0  3.912086  0  0  -0.069283  0  3.929211  0  -0.033684  0  -0.068199  -0.069056  0  3.900562  0
C  C58  1  0.49714621  0.31152327  0.24423326  1  0  -0.043602  0  3.671046  0  0  -0.068516  0  3.923808  0  0  -0.068833  0  3.940546  0  -0.098904  0  -0.065435  -0.068251  0  3.912549  0
C  C59  1  0.50284726  0.81152582  0.25576799  1  0  -0.043652  0  3.671184  0  0  -0.068576  0  3.923972  0  0  -0.0689  0  3.940716  0  -0.098852  0  -0.06553  -0.068312  0  3.912712  0
C  C60  1  0.50284425  0.68847493  0.75576653  1  0  -0.043655  0  3.671072  0  0  -0.068575  0  3.923816  0  0  -0.068895  0  3.940556  0  -0.098886  0  -0.06547  -0.068309  0  3.912556  0
C  C61  1  0.49715523  0.18847445  0.74423064  1  0  -0.043649  0  3.671059  0  0  -0.068557  0  3.923838  0  0  -0.068874  0  3.940571  0  -0.098821  0  -0.065468  -0.068292  0  3.912578  0
C  C62  1  0.52865294  0.40416474  0.26749410  1  0  -0.049289  0  3.691163  0  0  -0.036664  0  3.93294  0  0  -0.04027  0  3.951468  0  0.070368  0  0.001473  -0.034487  0  3.920746  0
C  C63  1  0.47135405  0.90416798  0.23250671  1  0  -0.049125  0  3.691117  0  0  -0.03658  0  3.932956  0  0  -0.040187  0  3.951489  0  0.070317  0  0.001541  -0.034403  0  3.920765  0
C  C64  1  0.47134654  0.59583277  0.73250434  1  0  -0.049283  0  3.691418  0  0  -0.036556  0  3.933042  0  0  -0.040166  0  3.951584  0  0.070407  0  0.001503  -0.034379  0  3.920847  0
C  C65  1  0.52865294  0.09583298  0.76749347  1  0  -0.049141  0  3.691226  0  0  -0.036584  0  3.933041  0  0  -0.040185  0  3.951563  0  0.070309  0  0.001487  -0.034406  0  3.920846  0
C  C66  1  0.78668573  0.63715750  0.48901586  1  0  -0.044544  0  3.671235  0  0  -0.073813  0  3.932387  0  0  -0.074025  0  3.950781  0  -0.053669  0  -0.071711  -0.073525  0  3.919913  0
C  C67  1  0.21331676  0.13715771  0.01098404  1  0  -0.044499  0  3.671215  0  0  -0.073775  0  3.932359  0  0  -0.073987  0  3.950753  0  -0.053449  0  -0.071705  -0.073487  0  3.919883  0
C  C68  1  0.21331826  0.36284346  0.51098286  1  0  -0.044618  0  3.67128  0  0  -0.073931  0  3.932467  0  0  -0.074145  0  3.950863  0  -0.053982  0  -0.071782  -0.073642  0  3.919991  0
C  C69  1  0.78668723  0.86284187  0.98901723  1  0  -0.044539  0  3.671261  0  0  -0.07385  0  3.932428  0  0  -0.074063  0  3.950825  0  -0.054233  0  -0.071737  -0.073563  0  3.919954  0
C  C70  1  0.85440574  0.65976927  0.57454974  1  0  -0.044077  0  3.688861  0  0  -0.061772  0  3.949771  0  0  -0.063786  0  3.969869  0  0.013022  0  -0.075271  -0.060372  0  3.936263  0
C  C71  1  0.14559675  0.15977155  0.92545080  1  0  -0.044107  0  3.68875  0  0  -0.061777  0  3.949674  0  0  -0.063791  0  3.96977  0  0.013006  0  -0.075285  -0.060379  0  3.936169  0
C  C72  1  0.14560426  0.34022824  0.42544936  1  0  -0.043996  0  3.688731  0  0  -0.061744  0  3.949693  0  0  -0.06376  0  3.969792  0  0.013412  0  -0.07525  -0.060346  0  3.936189  0
C  C73  1  0.85440123  0.84023010  0.07455136  1  0  -0.044004  0  3.688788  0  0  -0.061741  0  3.949707  0  0  -0.063764  0  3.969815  0  0.013516  0  -0.075278  -0.060345  0  3.936202  0
C  C74  1  0.87558599  0.59059731  0.63743031  1  0  -0.045988  0  3.700389  0  0  -0.06242  0  3.95819  0  0  -0.064536  0  3.979904  0  0.018507  0  -0.075929  -0.060874  0  3.94359  0
C  C75  1  0.12441800  0.09059959  0.86257032  1  0  -0.046054  0  3.700341  0  0  -0.0624  0  3.958083  0  0  -0.064514  0  3.979794  0  0.018336  0  -0.075918  -0.060856  0  3.943482  0
C  C76  1  0.12442251  0.40940158  0.36256933  1  0  -0.045954  0  3.70042  0  0  -0.062313  0  3.958167  0  0  -0.064428  0  3.97988  0  0.018438  0  -0.075867  -0.060772  0  3.943563  0
C  C77  1  0.87558148  0.90940344  0.13743066  1  0  -0.046117  0  3.700391  0  0  -0.062485  0  3.95815  0  0  -0.064603  0  3.979874  0  0.018317  0  -0.075938  -0.060939  0  3.943548  0
C  C78  1  0.82899665  0.49942497  0.61437633  1  0  -0.063711  0  3.711217  0  0  -0.095451  0  3.97619  0  0  -0.096958  0  3.995828  0  -0.058623  0  -0.079971  -0.09433  0  3.962918  0
C  C79  1  0.17100583  0.99942476  0.88562421  1  0  -0.063716  0  3.711282  0  0  -0.095479  0  3.976244  0  0  -0.096989  0  3.995884  0  -0.058566  0  -0.079953  -0.094359  0  3.96297  0
C  C80  1  0.17100433  0.50057461  0.38562411  1  0  -0.063852  0  3.711438  0  0  -0.095602  0  3.976387  0  0  -0.097112  0  3.996025  0  -0.058672  0  -0.080016  -0.094479  0  3.963116  0
C  C81  1  0.82899365  0.00057551  0.11437614  1  0  -0.063762  0  3.711272  0  0  -0.095504  0  3.976237  0  0  -0.097015  0  3.995881  0  -0.057283  0  -0.079968  -0.094382  0  3.962962  0
C  C82  1  0.71973787  0.37796674  0.50595824  1  0  0.373758  0  3.768528  0  0  0.353667  0  4.032957  0  0  0.374297  0  4.038121  0  0.925359  0  0.153956  0.339455  0  4.029578  0
C  C83  1  0.28025860  0.87796653  0.99404383  1  0  0.373726  0  3.768545  0  0  0.353662  0  4.032967  0  0  0.374294  0  4.038124  0  0.925324  0  0.153965  0.33945  0  4.029589  0
C  C84  1  0.28025860  0.62203353  0.49404065  1  0  0.37381  0  3.768501  0  0  0.353722  0  4.032956  0  0  0.374353  0  4.038117  0  0.925369  0  0.153955  0.339511  0  4.029578  0
C  C85  1  0.71974088  0.12203650  0.00595588  1  0  0.373989  0  3.768211  0  0  0.353873  0  4.03268  0  0  0.374514  0  4.03782  0  0.925744  0  0.154082  0.339665  0  4.029301  0
C  C86  1  0.67070287  0.52281651  0.37429127  1  0  0.38734  0  3.755265  0  0  0.367751  0  4.019899  0  0  0.390698  0  4.022509  0  0.922379  0  0.157932  0.35206  0  4.018063  0
C  C87  1  0.32929661  0.02281879  0.12571163  1  0  0.387532  0  3.755071  0  0  0.367761  0  4.019906  0  0  0.390711  0  4.022514  0  0.922005  0  0.158042  0.352071  0  4.018067  0
C  C88  1  0.32930112  0.47718100  0.62571191  1  0  0.387623  0  3.75504  0  0  0.367866  0  4.019858  0  0  0.390817  0  4.022463  0  0.922012  0  0.158034  0.352176  0  4.018021  0
C  C89  1  0.67070437  0.97718217  0.87428881  1  0  0.387568  0  3.754936  0  0  0.367713  0  4.019891  0  0  0.390664  0  4.022496  0  0.922378  0  0.15801  0.352023  0  4.018053  0
C  C90  1  0.74037881  0.54559252  0.46535735  1  0  -0.064073  0  3.773053  0  0  -0.053292  0  4.007262  0  0  -0.060299  0  4.03352  0  -0.123087  0  -0.016745  -0.048543  0  3.989475  0
C  C91  1  0.25961466  0.04559273  0.03464389  1  0  -0.064146  0  3.772956  0  0  -0.053283  0  4.007171  0  0  -0.060291  0  4.033429  0  -0.123016  0  -0.016738  -0.048533  0  3.989382  0
C  C92  1  0.25961916  0.45440775  0.53464354  1  0  -0.064096  0  3.772895  0  0  -0.053234  0  4.007109  0  0  -0.060244  0  4.033369  0  -0.122848  0  -0.016748  -0.048486  0  3.989322  0
C  C93  1  0.74038783  0.95440616  0.96535601  1  0  -0.064158  0  3.772853  0  0  -0.053246  0  4.007073  0  0  -0.060256  0  4.033332  0  -0.123  0  -0.016714  -0.048494  0  3.989282  0
C  C94  1  0.76253252  0.47592303  0.52873562  1  0  -0.060441  0  3.773921  0  0  -0.048034  0  4.006856  0  0  -0.054004  0  4.033538  0  -0.008091  0  -0.015884  -0.043905  0  3.988782  0
C  C95  1  0.23746696  0.97592351  0.97126537  1  0  -0.060394  0  3.773994  0  0  -0.048001  0  4.006918  0  0  -0.053973  0  4.033601  0  -0.008097  0  -0.015888  -0.043873  0  3.988846  0
C  C96  1  0.23746846  0.52407724  0.47126355  1  0  -0.060442  0  3.774008  0  0  -0.048042  0  4.006928  0  0  -0.054014  0  4.03361  0  -0.008127  0  -0.015888  -0.043916  0  3.988856  0
C  C97  1  0.76253403  0.02407745  0.02873508  1  0  -0.060385  0  3.773787  0  0  -0.048015  0  4.006743  0  0  -0.053989  0  4.033425  0  -0.009332  0  -0.015904  -0.043892  0  3.988672  0
C  C98  1  0.64924471  0.35572691  0.41448880  1  0  -0.061794  0  3.737564  0  0  -0.058439  0  3.971958  0  0  -0.062421  0  3.995443  0  -0.038032  0  -0.006227  -0.055828  0  3.956532  0
C  C99  1  0.35076529  0.85572877  0.08551221  1  0  -0.061799  0  3.737549  0  0  -0.058533  0  3.972027  0  0  -0.062512  0  3.995511  0  -0.037998  0  -0.006285  -0.055921  0  3.956597  0
C  C100  1  0.35075778  0.64427336  0.58551047  1  0  -0.061746  0  3.737474  0  0  -0.058465  0  3.971986  0  0  -0.062442  0  3.995467  0  -0.038119  0  -0.00622  -0.055853  0  3.956554  0
C  C101  1  0.64923269  0.14427288  0.91448741  1  0  -0.061986  0  3.737717  0  0  -0.058631  0  3.972135  0  0  -0.062616  0  3.995621  0  -0.038329  0  -0.006319  -0.056019  0  3.956704  0
C  C102  1  0.61085917  0.42648876  0.35226803  1  0  -0.062384  0  3.739993  0  0  -0.063161  0  3.978197  0  0  -0.068174  0  4.001553  0  -0.069459  0  -0.008823  -0.059839  0  3.962788  0
C  C103  1  0.38914482  0.92649062  0.14773451  1  0  -0.062554  0  3.74005  0  0  -0.063214  0  3.978277  0  0  -0.068232  0  4.001638  0  -0.06944  0  -0.008882  -0.059892  0  3.962869  0
C  C104  1  0.38914482  0.57351013  0.64773069  1  0  -0.062558  0  3.740122  0  0  -0.06327  0  3.978298  0  0  -0.068289  0  4.001656  0  -0.069407  0  -0.008843  -0.059949  0  3.962891  0
C  C105  1  0.61085015  0.07351034  0.85226620  1  0  -0.06255  0  3.74006  0  0  -0.063211  0  3.978285  0  0  -0.068228  0  4.001643  0  -0.069486  0  -0.008857  -0.05989  0  3.962877  0
C  C106  1  0.46453233  0.47368103  0.19781308  1  0  0.705103  0  3.855768  0  0  0.640093  0  4.167788  0  0  0.67725  0  4.154624  0  1.594671  0  0.233129  0.61466  0  4.176228  0
C  C107  1  0.53546716  0.97368703  0.30218536  1  0  0.705122  0  3.855562  0  0  0.640154  0  4.167523  0  0  0.677301  0  4.154362  0  1.594334  0  0.2332  0.61472  0  4.175967  0
C  C108  1  0.53545814  0.52631579  0.80218608  1  0  0.705065  0  3.855825  0  0  0.640023  0  4.167839  0  0  0.67717  0  4.154687  0  1.594578  0  0.233181  0.614593  0  4.176275  0
C  C109  1  0.46453533  0.02631600  0.69781326  1  0  0.705093  0  3.855768  0  0  0.640127  0  4.167738  0  0  0.677282  0  4.15457  0  1.594647  0  0.233167  0.614693  0  4.176179  0
C  C110  1  0.66900983  0.18304509  0.44993574  1  0  0.696917  0  3.883433  0  0  0.635811  0  4.193288  0  0  0.672877  0  4.179768  0  1.61864  0  0.223951  0.610264  0  4.202013  0
C  C111  1  0.33098965  0.68304350  0.05006524  1  0  0.696945  0  3.88326  0  0  0.635818  0  4.193133  0  0  0.672918  0  4.179562  0  1.618692  0  0.223903  0.610272  0  4.201856  0
C  C112  1  0.33098965  0.81695449  0.55006270  1  0  0.697091  0  3.883218  0  0  0.635992  0  4.193077  0  0  0.673063  0  4.179547  0  1.618675  0  0.224016  0.610445  0  4.201804  0
C  C113  1  0.66900983  0.31695815  0.94993447  1  0  0.696994  0  3.88317  0  0  0.635916  0  4.192983  0  0  0.673012  0  4.179416  0  1.618682  0  0.223983  0.61037  0  4.201708  0
O  O114  1  0.66906241  0.58208754  0.31691230  1  0  -0.471324  0  1.958634  0  0  -0.424703  0  2.171702  0  0  -0.442607  0  2.167122  0  -1.094191  0  -0.251196  -0.412542  0  2.174821  0
O  O115  1  0.33093256  0.08208706  0.18309158  1  0  -0.471416  0  1.958627  0  0  -0.424726  0  2.171772  0  0  -0.442632  0  2.167192  0  -1.093888  0  -0.251272  -0.412566  0  2.174891  0
O  O116  1  0.33093406  0.41791342  0.68308977  1  0  -0.471472  0  1.958661  0  0  -0.424787  0  2.171802  0  0  -0.442696  0  2.167225  0  -1.09389  0  -0.251257  -0.412627  0  2.174921  0
O  O117  1  0.66905791  0.91791597  0.81690820  1  0  -0.471403  0  1.95866  0  0  -0.424685  0  2.171838  0  0  -0.442588  0  2.167255  0  -1.09421  0  -0.251244  -0.412528  0  2.174961  0
O  O118  1  0.73885553  0.31654757  0.56139218  1  0  -0.42735  0  1.903444  0  0  -0.386271  0  2.104042  0  0  -0.402426  0  2.101449  0  -1.068854  0  -0.247715  -0.375315  0  2.105831  0
O  O119  1  0.26114245  0.81654736  0.93860998  1  0  -0.427368  0  1.903544  0  0  -0.386275  0  2.104103  0  0  -0.402431  0  2.101507  0  -1.0688  0  -0.247739  -0.375319  0  2.105893  0
O  O120  1  0.26114395  0.68345132  0.43860562  1  0  -0.427406  0  1.903487  0  0  -0.386294  0  2.104064  0  0  -0.402451  0  2.101472  0  -1.068878  0  -0.247714  -0.375339  0  2.105854  0
O  O121  1  0.73885854  0.18345498  0.06138982  1  0  -0.427482  0  1.903423  0  0  -0.386373  0  2.104002  0  0  -0.402531  0  2.101401  0  -1.068799  0  -0.247807  -0.375419  0  2.105794  0
O  O122  1  0.85183388  0.15566365  0.45983982  1  0  -0.675403  0  2.056169  0  0  -0.606635  0  2.305261  0  0  -0.635183  0  2.29178  0  -1.195055  0  -0.31799  -0.586226  0  2.313857  0
O  O123  1  0.14816710  0.65566137  0.04016380  1  0  -0.675387  0  2.056072  0  0  -0.606651  0  2.305188  0  0  -0.63521  0  2.291692  0  -1.195031  0  -0.317984  -0.586243  0  2.313786  0
O  O124  1  0.14816560  0.84433594  0.54015926  1  0  -0.675471  0  2.056087  0  0  -0.606708  0  2.305181  0  0  -0.635262  0  2.291705  0  -1.19507  0  -0.318024  -0.5863  0  2.31378  0
O  O125  1  0.85183238  0.34434029  0.95983782  1  0  -0.675372  0  2.056106  0  0  -0.606618  0  2.305157  0  0  -0.635184  0  2.291678  0  -1.19502  0  -0.317981  -0.586212  0  2.313754  0
O  O126  1  0.52530893  0.14307149  0.47854395  1  0  -0.633233  0  2.03863  0  0  -0.574303  0  2.302104  0  0  -0.602026  0  2.28749  0  -1.175346  0  -0.312357  -0.554659  0  2.311559  0
O  O127  1  0.47469356  0.64306921  0.02146041  1  0  -0.633265  0  2.038637  0  0  -0.57429  0  2.302076  0  0  -0.602023  0  2.287443  0  -1.175395  0  -0.312325  -0.554644  0  2.311527  0
O  O128  1  0.47469356  0.85692809  0.52145532  1  0  -0.633328  0  2.038591  0  0  -0.574381  0  2.302054  0  0  -0.602101  0  2.287434  0  -1.175361  0  -0.31235  -0.554736  0  2.31151  0
O  O129  1  0.52530292  0.35692968  0.97853912  1  0  -0.633337  0  2.038526  0  0  -0.574394  0  2.301959  0  0  -0.602126  0  2.28733  0  -1.175389  0  -0.312411  -0.55475  0  2.311411  0
O  O130  1  0.29694261  0.51308188  0.19641133  1  0  -0.626363  0  2.049146  0  0  -0.565207  0  2.317735  0  0  -0.593538  0  2.304606  0  -1.174807  0  -0.301946  -0.545098  0  2.325854  0
O  O131  1  0.70305537  0.01308830  0.30358447  1  0  -0.626362  0  2.048969  0  0  -0.565234  0  2.317616  0  0  -0.593525  0  2.304403  0  -1.174516  0  -0.302001  -0.545126  0  2.32574  0
O  O132  1  0.70304786  0.48691494  0.80358655  1  0  -0.626352  0  2.049129  0  0  -0.565239  0  2.317797  0  0  -0.593547  0  2.304623  0  -1.174666  0  -0.302005  -0.54513  0  2.325916  0
O  O133  1  0.29694411  0.98691542  0.69641079  1  0  -0.626374  0  2.049188  0  0  -0.565237  0  2.317772  0  0  -0.593567  0  2.304644  0  -1.174802  0  -0.301967  -0.545128  0  2.325895  0
O  O134  1  0.57962585  0.48058022  0.13971252  1  0  -0.693403  0  2.141456  0  0  -0.614346  0  2.390691  0  0  -0.64376  0  2.376665  0  -1.193308  0  -0.306318  -0.593757  0  2.399708  0
O  O135  1  0.42037063  0.98058208  0.36028509  1  0  -0.693512  0  2.141558  0  0  -0.614469  0  2.39075  0  0  -0.643862  0  2.376722  0  -1.19323  0  -0.30636  -0.593867  0  2.399748  0
O  O136  1  0.42037063  0.51942143  0.86028891  1  0  -0.693339  0  2.141421  0  0  -0.614314  0  2.390713  0  0  -0.643693  0  2.376657  0  -1.193344  0  -0.306335  -0.593727  0  2.399723  0
O  O137  1  0.57963186  0.01941957  0.63971354  1  0  -0.693471  0  2.141522  0  0  -0.614391  0  2.390693  0  0  -0.643808  0  2.376685  0  -1.193317  0  -0.30634  -0.593797  0  2.3997  0
O  O138  1  0.20256364  0.46249039  0.00198874  1  0  -0.993406  0  1.921834  0  0  -0.897804  0  2.200387  0  0  -0.931122  0  2.169976  0  -1.203588  0  -0.566257  -0.87402  0  2.220767  0
O  O139  1  0.79744335  0.96248811  0.49801207  1  0  -0.993345  0  1.92173  0  0  -0.897774  0  2.200353  0  0  -0.931094  0  2.169949  0  -1.203638  0  -0.566207  -0.87399  0  2.220731  0
O  O140  1  0.79743885  0.53750988  0.99801497  1  0  -0.993382  0  1.921878  0  0  -0.897776  0  2.200426  0  0  -0.931094  0  2.17002  0  -1.203677  0  -0.566243  -0.873991  0  2.220803  0
O  O141  1  0.20256063  0.03751216  0.50198856  1  0  -0.993461  0  1.921685  0  0  -0.897886  0  2.200307  0  0  -0.931202  0  2.1699  0  -1.203604  0  -0.566264  -0.874103  0  2.220687  0
O  O142  1  0.93800906  0.39705854  0.13110667  1  0  -0.813868  0  1.862017  0  0  -0.759442  0  2.05464  0  0  -0.780455  0  2.021851  0  -1.240827  0  -0.580972  -0.744454  0  2.077228  0
O  O143  1  0.06198742  0.89705971  0.36889158  1  0  -0.813936  0  1.86198  0  0  -0.759512  0  2.054607  0  0  -0.780513  0  2.021786  0  -1.240913  0  -0.581019  -0.744525  0  2.077193  0
O  O144  1  0.06198291  0.60294450  0.86889384  1  0  -0.813754  0  1.86204  0  0  -0.759345  0  2.054675  0  0  -0.780363  0  2.021896  0  -1.24092  0  -0.580948  -0.744357  0  2.07726  0
O  O145  1  0.93801357  0.10294264  0.63110823  1  0  -0.813839  0  1.862003  0  0  -0.759397  0  2.054654  0  0  -0.78041  0  2.021862  0  -1.240884  0  -0.580964  -0.744409  0  2.077241  0
O  O146  1  0.89326299  0.60572749  0.17242077  1  0  -0.79482  0  1.883272  0  0  -0.73791  0  2.089267  0  0  -0.757442  0  2.060921  0  -1.227004  0  -0.556794  -0.724089  0  2.108747  0
O  O147  1  0.10673800  0.10572770  0.32757904  1  0  -0.794816  0  1.883251  0  0  -0.737896  0  2.089247  0  0  -0.757433  0  2.060912  0  -1.226664  0  -0.55678  -0.724069  0  2.108719  0
O  O148  1  0.10673650  0.39427140  0.82757958  1  0  -0.794819  0  1.883227  0  0  -0.737904  0  2.08922  0  0  -0.757435  0  2.060873  0  -1.226913  0  -0.55677  -0.724073  0  2.108681  0
O  O149  1  0.89326148  0.89427119  0.67242131  1  0  -0.794811  0  1.883293  0  0  -0.737893  0  2.089284  0  0  -0.757423  0  2.06094  0  -1.226867  0  -0.556796  -0.724064  0  2.108754  0
