# generated using pymatgen
data_HoH16C15O11
_symmetry_space_group_name_H-M   'P 1'
_cell_length_a   8.04924464
_cell_length_b   9.30444518
_cell_length_c   12.74258146
_cell_angle_alpha   104.59126720
_cell_angle_beta   94.95113400
_cell_angle_gamma   110.06904220
_symmetry_Int_Tables_number   1
_chemical_formula_structural   HoH16C15O11
_chemical_formula_sum   'Ho2 H32 C30 O22'
_cell_volume   851.67074234
_cell_formula_units_Z   2
loop_
 _symmetry_equiv_pos_site_id
 _symmetry_equiv_pos_as_xyz
  1  'x, y, z'
loop_
 _atom_site_type_symbol
 _atom_site_label
 _atom_site_symmetry_multiplicity
 _atom_site_fract_x
 _atom_site_fract_y
 _atom_site_fract_z
 _atom_site_occupancy
 _atom_site_hle17_bader_spin_density
 _atom_site_hle17_ddec_charge
 _atom_site_hle17_ddec_spin_density
 _atom_site_hle17_ddec_sum_bond_order
 _atom_site_hle17_magmom
 _atom_site_hse06_10hf_bader_spin_density
 _atom_site_hse06_10hf_ddec_charge
 _atom_site_hse06_10hf_ddec_spin_density
 _atom_site_hse06_10hf_ddec_sum_bond_order
 _atom_site_hse06_10hf_magmom
 _atom_site_hse06_bader_spin_density
 _atom_site_hse06_ddec_charge
 _atom_site_hse06_ddec_spin_density
 _atom_site_hse06_ddec_sum_bond_order
 _atom_site_hse06_magmom
 _atom_site_pbe_bader_spin_density
 _atom_site_pbe_cm5_charge
 _atom_site_pbe_ddec_charge
 _atom_site_pbe_ddec_spin_density
 _atom_site_pbe_ddec_sum_bond_order
 _atom_site_pbe_magmom
Ho  Ho0  1  0.36518709  0.77806627  0.98790977  1  0  2.235809  0  1.614947  0  0  2.087529  0  2.087064  0  0  2.223437  0  1.886337  0  0  1.515234  2.049813  0  2.118327  0
Ho  Ho1  1  0.63480595  0.22192504  0.01208603  1  0  2.23578  0  1.614987  0  0  2.08747  0  2.087141  0  0  2.223394  0  1.886391  0  0  1.515192  2.049745  0  2.118403  0
H  H2  1  0.49319892  0.46836985  0.19657665  1  0  0.101176  0  0.962944  0  0  0.109086  0  1.029113  0  0  0.112014  0  1.027366  0  0  0.11615  0.106656  0  1.031303  0
H  H3  1  0.50679179  0.53161554  0.80342346  1  0  0.101225  0  0.963112  0  0  0.109042  0  1.029344  0  0  0.111925  0  1.027651  0  0  0.116143  0.106609  0  1.03154  0
H  H4  1  0.64344063  0.66299697  0.27974579  1  0  0.083657  0  0.950241  0  0  0.091098  0  1.022756  0  0  0.092317  0  1.021782  0  0  0.111802  0.090268  0  1.023233  0
H  H5  1  0.35655852  0.33700046  0.72025066  1  0  0.08372  0  0.950163  0  0  0.09113  0  1.022684  0  0  0.092349  0  1.021705  0  0  0.111817  0.090306  0  1.023158  0
H  H6  1  0.25357663  0.60294332  0.49469619  1  0  0.122027  0  0.955485  0  0  0.12949  0  1.018318  0  0  0.133444  0  1.015468  0  0  0.109524  0.126689  0  1.02036  0
H  H7  1  0.74643830  0.39707253  0.50531385  1  0  0.122002  0  0.955584  0  0  0.12944  0  1.018446  0  0  0.13339  0  1.015599  0  0  0.10951  0.12666  0  1.020455  0
H  H8  1  0.65589464  0.46404128  0.34090784  1  0  0.114873  0  0.958349  0  0  0.127181  0  1.016114  0  0  0.13052  0  1.01432  0  0  0.109779  0.124809  0  1.017387  0
H  H9  1  0.34411579  0.53596611  0.65909809  1  0  0.114874  0  0.958411  0  0  0.127196  0  1.016163  0  0  0.130535  0  1.014372  0  0  0.109814  0.124831  0  1.017441  0
H  H10  1  0.53954105  0.00953272  0.30562287  1  0  0.097133  0  0.914421  0  0  0.106207  0  0.978183  0  0  0.107863  0  0.977358  0  0  0.115467  0.105094  0  0.978705  0
H  H11  1  0.46046500  0.99046975  0.69437958  1  0  0.097064  0  0.91436  0  0  0.106173  0  0.978163  0  0  0.107834  0  0.977329  0  0  0.115449  0.105068  0  0.978692  0
H  H12  1  0.71688169  0.94125075  0.27484641  1  0  0.09589  0  0.932187  0  0  0.102108  0  1.004046  0  0  0.103865  0  1.002533  0  0  0.11527  0.100896  0  1.004958  0
H  H13  1  0.28311512  0.05872770  0.72514811  1  0  0.095909  0  0.932535  0  0  0.102207  0  1.004338  0  0  0.103968  0  1.002824  0  0  0.115318  0.101011  0  1.005249  0
H  H14  1  0.59250323  0.88513793  0.42793715  1  0  0.104776  0  0.975922  0  0  0.114003  0  1.040212  0  0  0.117072  0  1.039011  0  0  0.101174  0.111786  0  1.041171  0
H  H15  1  0.40749493  0.11489275  0.57207927  1  0  0.104839  0  0.975535  0  0  0.113986  0  1.039948  0  0  0.117  0  1.038813  0  0  0.101132  0.111773  0  1.040901  0
H  H16  1  0.65781239  0.80772422  0.58984566  1  0  0.093649  0  1.010358  0  0  0.102362  0  1.076647  0  0  0.103826  0  1.078429  0  0  0.094097  0.101242  0  1.075593  0
H  H17  1  0.34214214  0.19228717  0.41016484  1  0  0.093761  0  1.010566  0  0  0.102486  0  1.076784  0  0  0.103952  0  1.078563  0  0  0.094158  0.101364  0  1.075741  0
H  H18  1  0.03471510  0.34203057  0.56399972  1  0  0.109651  0  0.946098  0  0  0.122456  0  1.002601  0  0  0.125399  0  1.000972  0  0  0.106522  0.12031  0  1.003917  0
H  H19  1  0.96531512  0.65796305  0.43598292  1  0  0.10966  0  0.94601  0  0  0.122422  0  1.002546  0  0  0.125359  0  1.000928  0  0  0.10646  0.120275  0  1.003858  0
H  H20  1  0.09084835  0.26859628  0.73536548  1  0  0.104849  0  0.97189  0  0  0.116152  0  1.032791  0  0  0.12029  0  1.028944  0  0  0.10083  0.113212  0  1.035506  0
H  H21  1  0.90917794  0.73139372  0.26462179  1  0  0.104893  0  0.971903  0  0  0.116185  0  1.032798  0  0  0.12032  0  1.028956  0  0  0.1009  0.113245  0  1.035516  0
H  H22  1  0.74918941  0.76142755  0.71745385  1  0  0.093546  0  0.96153  0  0  0.101765  0  1.027695  0  0  0.103192  0  1.026989  0  0  0.11183  0.100765  0  1.028154  0
H  H23  1  0.25080837  0.23856617  0.28253324  1  0  0.093601  0  0.961519  0  0  0.101746  0  1.027718  0  0  0.103177  0  1.027011  0  0  0.111837  0.100745  0  1.028169  0
H  H24  1  0.93006592  0.81123195  0.82544617  1  0  0.093672  0  0.932064  0  0  0.103838  0  0.995995  0  0  0.106496  0  0.992846  0  0  0.115063  0.102038  0  0.998092  0
H  H25  1  0.06994509  0.18876699  0.17454417  1  0  0.093729  0  0.932377  0  0  0.103861  0  0.996262  0  0  0.106523  0  0.993118  0  0  0.115081  0.102062  0  0.998347  0
H  H26  1  0.31827262  0.43263251  0.91925895  1  0  0.438897  0  0.86183  0  0  0.408702  0  0.924227  0  0  0.420704  0  0.90699  0  0  0.296372  0.400607  0  0.935921  0
H  H27  1  0.68172420  0.56735903  0.08074418  1  0  0.438914  0  0.861807  0  0  0.408731  0  0.924187  0  0  0.420731  0  0.906953  0  0  0.296374  0.400633  0  0.935889  0
H  H28  1  0.13402221  0.44660023  0.94376600  1  0  0.443556  0  0.846855  0  0  0.418369  0  0.899481  0  0  0.429199  0  0.883954  0  0  0.305298  0.410974  0  0.91024  0
H  H29  1  0.86597209  0.55339120  0.05623618  1  0  0.443585  0  0.846835  0  0  0.418389  0  0.899477  0  0  0.429217  0  0.883952  0  0  0.305293  0.410995  0  0.910235  0
H  H30  1  0.95365520  0.63509931  0.90713274  1  0  0.444611  0  0.797458  0  0  0.426625  0  0.848779  0  0  0.434611  0  0.841264  0  0  0.339084  0.420986  0  0.854853  0
H  H31  1  0.04633449  0.36489324  0.09287643  1  0  0.444518  0  0.797593  0  0  0.426532  0  0.848908  0  0  0.434516  0  0.841401  0  0  0.339057  0.420888  0  0.854982  0
H  H32  1  0.03728787  0.77634817  0.02169456  1  0  0.443614  0  0.844816  0  0  0.412321  0  0.907884  0  0  0.423663  0  0.891497  0  0  0.315611  0.403924  0  0.920265  0
H  H33  1  0.96271102  0.22364235  0.97831557  1  0  0.443646  0  0.844946  0  0  0.412341  0  0.907897  0  0  0.423683  0  0.891508  0  0  0.315583  0.403938  0  0.920284  0
C  C34  1  0.45101506  0.66074523  0.15452744  1  0  0.657244  0  3.896396  0  0  0.608855  0  4.200395  0  0  0.640464  0  4.201247  0  0  0.190349  0.586615  0  4.205136  0
C  C35  1  0.54898627  0.33925469  0.84547351  1  0  0.657166  0  3.89647  0  0  0.608793  0  4.200389  0  0  0.6404  0  4.20124  0  0  0.190375  0.586545  0  4.205142  0
C  C36  1  0.50150103  0.58984683  0.24002113  1  0  -0.084412  0  3.678717  0  0  -0.137179  0  3.936009  0  0  -0.134175  0  3.935516  0  0  -0.071319  -0.138702  0  3.93534  0
C  C37  1  0.49849964  0.41017084  0.75998528  1  0  -0.084396  0  3.678744  0  0  -0.137046  0  3.935921  0  0  -0.134015  0  3.93545  0  0  -0.071306  -0.13855  0  3.93522  0
C  C38  1  0.44715670  0.53918495  0.40703747  1  0  0.231134  0  3.826662  0  0  0.222581  0  4.090897  0  0  0.231203  0  4.107848  0  0  0.068164  0.216541  0  4.079255  0
C  C39  1  0.55285648  0.46081658  0.59296444  1  0  0.231118  0  3.826598  0  0  0.222559  0  4.090843  0  0  0.231178  0  4.107794  0  0  0.068104  0.216516  0  4.079222  0
C  C40  1  0.36005122  0.55612062  0.49677651  1  0  -0.146918  0  3.75  0  0  -0.169244  0  4.005993  0  0  -0.170944  0  4.022263  0  0  -0.099825  -0.167936  0  3.994902  0
C  C41  1  0.63996035  0.44388331  0.50323280  1  0  -0.146834  0  3.750091  0  0  -0.169156  0  4.006105  0  0  -0.170851  0  4.022373  0  0  -0.0998  -0.167864  0  3.994989  0
C  C42  1  0.58729044  0.48188959  0.41010106  1  0  -0.191132  0  3.780452  0  0  -0.211897  0  4.036921  0  0  -0.215234  0  4.055834  0  0  -0.108485  -0.209365  0  4.023804  0
C  C43  1  0.41272021  0.51811192  0.58990619  1  0  -0.191025  0  3.780541  0  0  -0.211815  0  4.037  0  0  -0.21516  0  4.055934  0  0  -0.10846  -0.209295  0  4.023906  0
C  C44  1  0.69052962  0.10774176  0.19459265  1  0  0.731336  0  3.804244  0  0  0.682864  0  4.104923  0  0  0.717216  0  4.102506  0  0  0.219311  0.659438  0  4.111929  0
C  C45  1  0.30946410  0.89224487  0.80540472  1  0  0.731448  0  3.804142  0  0  0.683072  0  4.10477  0  0  0.717405  0  4.102376  0  0  0.219431  0.659654  0  4.111807  0
C  C46  1  0.68147225  0.04829897  0.29472314  1  0  -0.063547  0  3.637783  0  0  -0.115276  0  3.891291  0  0  -0.112077  0  3.891079  0  0  -0.058537  -0.117176  0  3.890547  0
C  C47  1  0.31852737  0.95171276  0.70528373  1  0  -0.063328  0  3.637389  0  0  -0.115312  0  3.891188  0  0  -0.112106  0  3.890982  0  0  -0.058542  -0.117283  0  3.890543  0
C  C48  1  0.81616460  0.11642682  0.48237527  1  0  0.242523  0  3.810317  0  0  0.232411  0  4.073412  0  0  0.240701  0  4.091553  0  0  0.070983  0.226545  0  4.061113  0
C  C49  1  0.18383432  0.88357655  0.51762458  1  0  0.242488  0  3.810444  0  0  0.232378  0  4.073516  0  0  0.240678  0  4.09164  0  0  0.070972  0.226528  0  4.061197  0
C  C50  1  0.70696525  0.96900085  0.49228446  1  0  -0.18143  0  3.783747  0  0  -0.201601  0  4.038906  0  0  -0.206062  0  4.061251  0  0  -0.111762  -0.198546  0  4.023935  0
C  C51  1  0.29302541  0.03100691  0.50771334  1  0  -0.181367  0  3.783379  0  0  -0.201477  0  4.038545  0  0  -0.205896  0  4.06092  0  0  -0.111713  -0.198431  0  4.023575  0
C  C52  1  0.74299746  0.92565338  0.58697898  1  0  -0.18312  0  3.785088  0  0  -0.20227  0  4.037399  0  0  -0.206382  0  4.059462  0  0  -0.11477  -0.199467  0  4.022666  0
C  C53  1  0.25700010  0.07435938  0.41302167  1  0  -0.183476  0  3.785711  0  0  -0.202634  0  4.03797  0  0  -0.206746  0  4.060014  0  0  -0.114916  -0.199834  0  4.02325  0
C  C54  1  0.95320064  0.22545276  0.57102495  1  0  -0.144314  0  3.757909  0  0  -0.16654  0  4.012842  0  0  -0.168803  0  4.031345  0  0  -0.098398  -0.164972  0  4.000461  0
C  C55  1  0.04681420  0.77455929  0.42896479  1  0  -0.144419  0  3.758128  0  0  -0.166591  0  4.013062  0  0  -0.168852  0  4.031557  0  0  -0.098263  -0.165022  0  4.000669  0
C  C56  1  0.98668877  0.18343727  0.66531313  1  0  -0.151093  0  3.761141  0  0  -0.17391  0  4.018956  0  0  -0.175944  0  4.035059  0  0  -0.10279  -0.172363  0  4.007967  0
C  C57  1  0.01331926  0.81656030  0.33467051  1  0  -0.151133  0  3.761262  0  0  -0.17394  0  4.019052  0  0  -0.175972  0  4.035153  0  0  -0.102963  -0.172393  0  4.008072  0
C  C58  1  0.72711956  0.90147759  0.87502182  1  0  0.744301  0  3.781426  0  0  0.697716  0  4.078944  0  0  0.732913  0  4.072069  0  0  0.236653  0.674389  0  4.085544  0
C  C59  1  0.27287221  0.09851369  0.12497469  1  0  0.744305  0  3.780705  0  0  0.69769  0  4.07823  0  0  0.732894  0  4.071358  0  0  0.236697  0.674353  0  4.084835  0
C  C60  1  0.83845573  0.85871353  0.78982085  1  0  -0.069148  0  3.622868  0  0  -0.122577  0  3.876205  0  0  -0.119091  0  3.87441  0  0  -0.06205  -0.124733  0  3.87641  0
C  C61  1  0.16151790  0.14128883  0.21016953  1  0  -0.0693  0  3.622976  0  0  -0.122554  0  3.876155  0  0  -0.119086  0  3.874384  0  0  -0.062057  -0.124688  0  3.87633  0
C  C62  1  0.88692638  0.03058232  0.67199351  1  0  0.25097  0  3.794516  0  0  0.24039  0  4.059783  0  0  0.249899  0  4.075428  0  0  0.069855  0.23376  0  4.049055  0
C  C63  1  0.11308106  0.96942368  0.32800494  1  0  0.251165  0  3.794466  0  0  0.240602  0  4.059713  0  0  0.250113  0  4.075355  0  0  0.069933  0.233981  0  4.048989  0
O  O64  1  0.31782855  0.70327487  0.15147336  1  0  -0.650937  0  1.943021  0  0  -0.610367  0  2.180474  0  0  -0.642698  0  2.170676  0  0  -0.375924  -0.594436  0  2.185851  0
O  O65  1  0.68217371  0.29672741  0.84852571  1  0  -0.65084  0  1.943029  0  0  -0.610315  0  2.180505  0  0  -0.642646  0  2.170709  0  0  -0.375922  -0.594385  0  2.185887  0
O  O66  1  0.55291455  0.67458251  0.08193762  1  0  -0.706161  0  2.012096  0  0  -0.651129  0  2.245409  0  0  -0.685643  0  2.235813  0  0  -0.373287  -0.632649  0  2.25079  0
O  O67  1  0.44708665  0.32541388  0.91806426  1  0  -0.706193  0  2.012234  0  0  -0.651101  0  2.245476  0  0  -0.685616  0  2.235882  0  0  -0.37325  -0.632616  0  2.250853  0
O  O68  1  0.38939054  0.58426252  0.31992694  1  0  -0.25128  0  2.309993  0  0  -0.186988  0  2.541054  0  0  -0.201985  0  2.541861  0  0  -0.185844  -0.176143  0  2.539714  0
O  O69  1  0.61061942  0.41574369  0.68008032  1  0  -0.251456  0  2.309882  0  0  -0.187145  0  2.540883  0  0  -0.202137  0  2.541673  0  0  -0.185934  -0.176302  0  2.539549  0
O  O70  1  0.58860838  0.00519198  0.10389122  1  0  -0.857555  0  2.224471  0  0  -0.798261  0  2.488428  0  0  -0.847167  0  2.47915  0  0  -0.457916  -0.777914  0  2.492414  0
O  O71  1  0.41138360  0.99479341  0.89610583  1  0  -0.857616  0  2.224397  0  0  -0.798322  0  2.488323  0  0  -0.84723  0  2.479064  0  0  -0.457965  -0.777963  0  2.492298  0
O  O72  1  0.78500647  0.24832470  0.19603037  1  0  -0.664808  0  1.904549  0  0  -0.624714  0  2.137534  0  0  -0.656601  0  2.124547  0  0  -0.358242  -0.609013  0  2.144632  0
O  O73  1  0.21497703  0.75167102  0.80396724  1  0  -0.664898  0  1.904741  0  0  -0.624837  0  2.13773  0  0  -0.656698  0  2.124722  0  0  -0.358295  -0.609128  0  2.144826  0
O  O74  1  0.79952454  0.16667873  0.39006862  1  0  -0.256788  0  2.323294  0  0  -0.191151  0  2.554887  0  0  -0.206563  0  2.556348  0  0  -0.182225  -0.180092  0  2.553235  0
O  O75  1  0.20048232  0.83332251  0.60992816  1  0  -0.256811  0  2.322926  0  0  -0.191125  0  2.554604  0  0  -0.206549  0  2.556072  0  0  -0.182207  -0.180049  0  2.55297  0
O  O76  1  0.24120875  0.49675192  0.91355852  1  0  -0.922849  0  1.859521  0  0  -0.874428  0  2.050965  0  0  -0.906674  0  2.011879  0  0  -0.654758  -0.859687  0  2.072733  0
O  O77  1  0.75878601  0.50324069  0.08644153  1  0  -0.922876  0  1.8595  0  0  -0.874455  0  2.05094  0  0  -0.9067  0  2.011859  0  0  -0.654742  -0.859708  0  2.072716  0
O  O78  1  0.01791016  0.66322601  0.98241407  1  0  -0.844201  0  1.866182  0  0  -0.788722  0  2.043833  0  0  -0.816031  0  2.013482  0  0  -0.567442  -0.774675  0  2.063057  0
O  O79  1  0.98207342  0.33676040  0.01759366  1  0  -0.844108  0  1.866388  0  0  -0.788623  0  2.043962  0  0  -0.815932  0  2.013611  0  0  -0.56741  -0.774576  0  2.063188  0
O  O80  1  0.77409308  0.04868719  0.92881191  1  0  -0.739944  0  2.11851  0  0  -0.682858  0  2.365064  0  0  -0.7202  0  2.351615  0  0  -0.380544  -0.664075  0  2.372226  0
O  O81  1  0.22590848  0.95130672  0.07117935  1  0  -0.739984  0  2.118231  0  0  -0.682898  0  2.364832  0  0  -0.720238  0  2.351374  0  0  -0.380619  -0.664129  0  2.372019  0
O  O82  1  0.59638368  0.78670348  0.88716744  1  0  -0.70787  0  2.013413  0  0  -0.656791  0  2.263306  0  0  -0.695199  0  2.250839  0  0  -0.381228  -0.637898  0  2.268712  0
O  O83  1  0.40362684  0.21329450  0.11284075  1  0  -0.707813  0  2.013185  0  0  -0.65674  0  2.263081  0  0  -0.695163  0  2.25063  0  0  -0.381246  -0.637841  0  2.268483  0
O  O84  1  0.94961345  0.99461003  0.76314625  1  0  -0.261451  0  2.318579  0  0  -0.198236  0  2.55483  0  0  -0.212856  0  2.554502  0  0  -0.189046  -0.187542  0  2.554248  0
O  O85  1  0.05037363  0.00539177  0.23685578  1  0  -0.261469  0  2.318511  0  0  -0.198313  0  2.554735  0  0  -0.212926  0  2.55441  0  0  -0.189052  -0.187638  0  2.55416  0
