# generated using pymatgen
data_Ag2H12C12O7
_symmetry_space_group_name_H-M   'P 1'
_cell_length_a   4.58959263
_cell_length_b   11.73852097
_cell_length_c   12.94985645
_cell_angle_alpha   72.38311026
_cell_angle_beta   85.66797705
_cell_angle_gamma   84.13787071
_symmetry_Int_Tables_number   1
_chemical_formula_structural   Ag2H12C12O7
_chemical_formula_sum   'Ag4 H24 C24 O14'
_cell_volume   660.74359960
_cell_formula_units_Z   2
loop_
 _symmetry_equiv_pos_site_id
 _symmetry_equiv_pos_as_xyz
  1  'x, y, z'
loop_
 _atom_site_type_symbol
 _atom_site_label
 _atom_site_symmetry_multiplicity
 _atom_site_fract_x
 _atom_site_fract_y
 _atom_site_fract_z
 _atom_site_occupancy
 _atom_site_hle17_bader_spin_density
 _atom_site_hle17_ddec_charge
 _atom_site_hle17_ddec_spin_density
 _atom_site_hle17_ddec_sum_bond_order
 _atom_site_hle17_magmom
 _atom_site_hse06_10hf_bader_spin_density
 _atom_site_hse06_10hf_ddec_charge
 _atom_site_hse06_10hf_ddec_spin_density
 _atom_site_hse06_10hf_ddec_sum_bond_order
 _atom_site_hse06_10hf_magmom
 _atom_site_hse06_bader_spin_density
 _atom_site_hse06_ddec_charge
 _atom_site_hse06_ddec_spin_density
 _atom_site_hse06_ddec_sum_bond_order
 _atom_site_hse06_magmom
 _atom_site_pbe_bader_spin_density
 _atom_site_pbe_cm5_charge
 _atom_site_pbe_ddec_charge
 _atom_site_pbe_ddec_spin_density
 _atom_site_pbe_ddec_sum_bond_order
 _atom_site_pbe_magmom
Ag  Ag0  1  0.61897854  0.83744798  0.08466869  1  0  0.664419  0  1.317194  0  0  0.576742  0  1.714407  0  0  0.599521  0  1.673017  0  0  0.478546  0.560343  0  1.743319  0
Ag  Ag1  1  0.38102234  0.16255867  0.91533125  1  0  0.664401  0  1.317226  0  0  0.576713  0  1.714457  0  0  0.599494  0  1.673063  0  0  0.478525  0.560318  0  1.743375  0
Ag  Ag2  1  0.34881597  0.61238241  0.97578600  1  0  0.622594  0  1.355311  0  0  0.50168  0  1.817584  0  0  0.537984  0  1.753199  0  0  0.412064  0.47604  0  1.862471  0
Ag  Ag3  1  0.65119299  0.38761614  0.02421133  1  0  0.622566  0  1.35534  0  0  0.501664  0  1.817602  0  0  0.537966  0  1.75322  0  0  0.412086  0.476027  0  1.862486  0
H  H4  1  0.55123203  0.77697266  0.72003941  1  0  0.417481  0  0.87619  0  0  0.386229  0  0.949518  0  0  0.398544  0  0.932232  0  0  0.297697  0.377588  0  0.960912  0
H  H5  1  0.44876565  0.22302770  0.27995696  1  0  0.417567  0  0.876135  0  0  0.386389  0  0.949306  0  0  0.398703  0  0.932019  0  0  0.297726  0.377748  0  0.960717  0
H  H6  1  0.84302370  0.65128330  0.82324053  1  0  0.42527  0  0.876599  0  0  0.392639  0  0.943617  0  0  0.404023  0  0.926855  0  0  0.291871  0.384599  0  0.955443  0
H  H7  1  0.15697183  0.34871709  0.17676207  1  0  0.425253  0  0.876625  0  0  0.392626  0  0.943632  0  0  0.404011  0  0.926871  0  0  0.291884  0.384588  0  0.955457  0
H  H8  1  0.81536606  0.76508996  0.86523697  1  0  0.417858  0  0.892141  0  0  0.384865  0  0.959904  0  0  0.396  0  0.94396  0  0  0.284165  0.377019  0  0.971121  0
H  H9  1  0.18463821  0.23491041  0.13476539  1  0  0.417873  0  0.892129  0  0  0.38489  0  0.959872  0  0  0.396026  0  0.943928  0  0  0.284183  0.377044  0  0.971089  0
H  H10  1  0.12740730  0.79254327  0.17630569  1  0  0.085392  0  1.001774  0  0  0.085069  0  1.09411  0  0  0.091156  0  1.086797  0  0  0.08564  0.080498  0  1.09964  0
H  H11  1  0.87259880  0.20745888  0.82369226  1  0  0.085405  0  1.001766  0  0  0.085085  0  1.094106  0  0  0.091167  0  1.086794  0  0  0.085637  0.080516  0  1.099637  0
H  H12  1  0.55653843  0.97148623  0.36888457  1  0  0.11005  0  0.957641  0  0  0.119794  0  1.020408  0  0  0.123566  0  1.018294  0  0  0.100796  0.117009  0  1.022088  0
H  H13  1  0.44346618  0.02851234  0.63111597  1  0  0.109997  0  0.957662  0  0  0.119751  0  1.020426  0  0  0.123522  0  1.018316  0  0  0.10079  0.116969  0  1.022102  0
H  H14  1  0.50806645  0.59479412  0.41167521  1  0  0.114751  0  0.935741  0  0  0.125729  0  0.997487  0  0  0.129468  0  0.995013  0  0  0.106696  0.123046  0  0.999386  0
H  H15  1  0.49194014  0.40520532  0.58832117  1  0  0.114773  0  0.935702  0  0  0.125718  0  0.99749  0  0  0.129461  0  0.995007  0  0  0.106689  0.123034  0  0.999389  0
H  H16  1  0.90611594  0.49089464  0.32752298  1  0  0.136848  0  0.918982  0  0  0.152407  0  0.973513  0  0  0.15475  0  0.972522  0  0  0.112639  0.150776  0  0.974234  0
H  H17  1  0.09388630  0.50910482  0.67247505  1  0  0.136816  0  0.918991  0  0  0.152375  0  0.973523  0  0  0.154717  0  0.97253  0  0  0.112618  0.150746  0  0.974243  0
H  H18  1  0.16441035  0.57176428  0.23484930  1  0  0.137872  0  0.940844  0  0  0.152121  0  0.998686  0  0  0.154583  0  0.998299  0  0  0.107552  0.15036  0  0.999059  0
H  H19  1  0.83559274  0.42823069  0.76514919  1  0  0.137904  0  0.940812  0  0  0.152157  0  0.998643  0  0  0.154618  0  0.998254  0  0  0.10755  0.150399  0  0.999016  0
H  H20  1  0.97349066  0.06808840  0.26225351  1  0  0.125773  0  0.924692  0  0  0.14194  0  0.979679  0  0  0.144563  0  0.978255  0  0  0.108766  0.140034  0  0.980763  0
H  H21  1  0.02651884  0.93190748  0.73774996  1  0  0.125778  0  0.92465  0  0  0.141921  0  0.97965  0  0  0.144542  0  0.978226  0  0  0.108766  0.140014  0  0.980736  0
H  H22  1  0.22021518  0.99329041  0.18860480  1  0  0.115656  0  0.957506  0  0  0.12559  0  1.029619  0  0  0.12845  0  1.028255  0  0  0.10033  0.12351  0  1.030694  0
H  H23  1  0.77978166  0.00671445  0.81139497  1  0  0.115675  0  0.957432  0  0  0.125593  0  1.029558  0  0  0.128457  0  1.02818  0  0  0.10032  0.123512  0  1.030635  0
H  H24  1  0.16665780  0.86552229  0.48470171  1  0  0.116108  0  0.920321  0  0  0.130082  0  0.975855  0  0  0.132861  0  0.974048  0  0  0.102951  0.128085  0  0.977237  0
H  H25  1  0.83334224  0.13447717  0.51529561  1  0  0.116108  0  0.920302  0  0  0.130059  0  0.97585  0  0  0.132834  0  0.974043  0  0  0.102932  0.128068  0  0.977236  0
H  H26  1  0.11819848  0.71426935  0.49275359  1  0  0.124437  0  0.923219  0  0  0.137861  0  0.982207  0  0  0.139784  0  0.982516  0  0  0.108192  0.136525  0  0.982058  0
H  H27  1  0.88179920  0.28573101  0.50724277  1  0  0.124454  0  0.923264  0  0  0.137887  0  0.982226  0  0  0.139804  0  0.982542  0  0  0.108211  0.13656  0  0.982073  0
C  C28  1  0.81777317  0.68244042  0.28718274  1  0  0.147945  0  3.765763  0  0  0.16805  0  3.998071  0  0  0.171287  0  4.021925  0  0  -0.013058  0.165861  0  3.981846  0
C  C29  1  0.18222049  0.31755816  0.71281578  1  0  0.147941  0  3.765865  0  0  0.168063  0  3.998152  0  0  0.171297  0  4.022  0  0  -0.01302  0.165875  0  3.981929  0
C  C30  1  0.93510426  0.79262688  0.23214850  1  0  -0.250028  0  3.807828  0  0  -0.261722  0  4.058033  0  0  -0.269234  0  4.077316  0  0  -0.132943  -0.256414  0  4.045025  0
C  C31  1  0.06489562  0.20737348  0.76785013  1  0  -0.250048  0  3.807862  0  0  -0.261747  0  4.058045  0  0  -0.26926  0  4.077349  0  0  -0.132942  -0.256442  0  4.045029  0
C  C32  1  0.84403867  0.89756622  0.26158594  1  0  0.140406  0  3.776863  0  0  0.161119  0  4.008421  0  0  0.164447  0  4.032684  0  0  -0.015693  0.158794  0  3.991911  0
C  C33  1  0.15596341  0.10243415  0.73841417  1  0  0.140442  0  3.776848  0  0  0.161168  0  4.00838  0  0  0.164499  0  4.032631  0  0  -0.015687  0.158855  0  3.991854  0
C  C34  1  0.62648312  0.89122568  0.34455152  1  0  -0.191208  0  3.683321  0  0  -0.220449  0  3.932333  0  0  -0.226226  0  3.953383  0  0  -0.098713  -0.216504  0  3.918211  0
C  C35  1  0.37351509  0.10877200  0.65544867  1  0  -0.191176  0  3.683292  0  0  -0.22045  0  3.932335  0  0  -0.226226  0  3.953378  0  0  -0.098743  -0.216507  0  3.918203  0
C  C36  1  0.50334928  0.78324687  0.39824938  1  0  0.140433  0  3.757279  0  0  0.161301  0  3.998471  0  0  0.163105  0  4.024058  0  0  -0.004883  0.160102  0  3.981188  0
C  C37  1  0.49665532  0.21675169  0.60174962  1  0  0.140401  0  3.757296  0  0  0.161262  0  3.998488  0  0  0.163063  0  4.024075  0  0  -0.004886  0.160071  0  3.981213  0
C  C38  1  0.60045781  0.67947540  0.36928689  1  0  -0.173264  0  3.66492  0  0  -0.206875  0  3.917227  0  0  -0.211184  0  3.936741  0  0  -0.092353  -0.204119  0  3.904266  0
C  C39  1  0.39954680  0.32052317  0.63071442  1  0  -0.173272  0  3.664992  0  0  -0.206862  0  3.917294  0  0  -0.211169  0  3.936806  0  0  -0.092357  -0.204105  0  3.904331  0
C  C40  1  0.92914076  0.57116216  0.25785406  1  0  -0.329564  0  3.680113  0  0  -0.365743  0  3.908894  0  0  -0.373851  0  3.917566  0  0  -0.16296  -0.360053  0  3.902802  0
C  C41  1  0.07085929  0.42883730  0.74214403  1  0  -0.32955  0  3.680035  0  0  -0.365723  0  3.908802  0  0  -0.373848  0  3.917521  0  0  -0.162936  -0.360037  0  3.902719  0
C  C42  1  0.77853908  0.54968817  0.16550999  1  0  0.724532  0  3.807631  0  0  0.668574  0  4.105896  0  0  0.704444  0  4.100015  0  0  0.218008  0.643991  0  4.109103  0
C  C43  1  0.22145879  0.45031131  0.83449047  1  0  0.724533  0  3.807689  0  0  0.66857  0  4.10596  0  0  0.704439  0  4.100072  0  0  0.217993  0.643989  0  4.109167  0
C  C44  1  0.98526197  0.01189599  0.20749663  1  0  -0.327958  0  3.687611  0  0  -0.364487  0  3.916771  0  0  -0.372284  0  3.926088  0  0  -0.165207  -0.358947  0  3.910275  0
C  C45  1  0.01473977  0.98810618  0.79250453  1  0  -0.328001  0  3.687537  0  0  -0.364462  0  3.916723  0  0  -0.37225  0  3.926027  0  0  -0.165176  -0.358926  0  3.910225  0
C  C46  1  0.85889829  0.09166243  0.10115881  1  0  0.720631  0  3.811497  0  0  0.672049  0  4.105276  0  0  0.705724  0  4.099844  0  0  0.211679  0.64897  0  4.108161  0
C  C47  1  0.14109656  0.90834156  0.89884512  1  0  0.720506  0  3.811378  0  0  0.671837  0  4.105252  0  0  0.70551  0  4.099825  0  0  0.211545  0.64876  0  4.108141  0
C  C48  1  0.28127976  0.77714753  0.49157247  1  0  -0.315861  0  3.691676  0  0  -0.360891  0  3.932986  0  0  -0.366712  0  3.939881  0  0  -0.157237  -0.356915  0  3.928334  0
C  C49  1  0.71872247  0.22285192  0.50842480  1  0  -0.315833  0  3.691792  0  0  -0.360877  0  3.932971  0  0  -0.366685  0  3.939847  0  0  -0.157205  -0.356932  0  3.928356  0
C  C50  1  0.43757957  0.73091719  0.59772356  1  0  0.704624  0  3.769055  0  0  0.663036  0  4.07012  0  0  0.695105  0  4.061248  0  0  0.229381  0.641189  0  4.075634  0
C  C51  1  0.56241514  0.26907601  0.40227797  1  0  0.704509  0  3.769173  0  0  0.663099  0  4.069964  0  0  0.695167  0  4.06109  0  0  0.229389  0.64126  0  4.075481  0
O  O52  1  0.57050145  0.62424850  0.11960625  1  0  -0.65263  0  2.19147  0  0  -0.564556  0  2.481783  0  0  -0.598299  0  2.467844  0  0  -0.324053  -0.540938  0  2.49057  0
O  O53  1  0.42950061  0.37575185  0.88039231  1  0  -0.652612  0  2.191473  0  0  -0.56455  0  2.481812  0  0  -0.59829  0  2.467873  0  0  -0.324036  -0.540928  0  2.490596  0
O  O54  1  0.87197998  0.45588846  0.13927977  1  0  -0.650849  0  2.154519  0  0  -0.569253  0  2.431012  0  0  -0.602499  0  2.416919  0  0  -0.315232  -0.546104  0  2.440024  0
O  O55  1  0.12801788  0.54411101  0.86071915  1  0  -0.650875  0  2.154579  0  0  -0.569266  0  2.431069  0  0  -0.602509  0  2.416974  0  0  -0.315241  -0.546119  0  2.440082  0
O  O56  1  0.65748083  0.05640873  0.05943935  1  0  -0.641326  0  2.1315  0  0  -0.566575  0  2.413181  0  0  -0.59628  0  2.400592  0  0  -0.324398  -0.545644  0  2.421138  0
O  O57  1  0.34250662  0.94359977  0.94056507  1  0  -0.64123  0  2.131307  0  0  -0.56648  0  2.413072  0  0  -0.596187  0  2.400485  0  0  -0.324359  -0.545546  0  2.421019  0
O  O58  1  0.96969427  0.19220564  0.05904656  1  0  -0.681823  0  2.090245  0  0  -0.609694  0  2.363451  0  0  -0.638559  0  2.348334  0  0  -0.331798  -0.5894  0  2.373304  0
O  O59  1  0.03031203  0.80779563  0.94095704  1  0  -0.681819  0  2.090295  0  0  -0.609663  0  2.363578  0  0  -0.638528  0  2.348465  0  0  -0.331754  -0.589352  0  2.373395  0
O  O60  1  0.55762246  0.62881092  0.62999289  1  0  -0.568119  0  1.895539  0  0  -0.525912  0  2.105858  0  0  -0.547094  0  2.099538  0  0  -0.299592  -0.511307  0  2.109871  0
O  O61  1  0.44236535  0.37118410  0.37001064  1  0  -0.568096  0  1.895419  0  0  -0.525931  0  2.1056  0  0  -0.547118  0  2.099284  0  0  -0.299616  -0.511325  0  2.109611  0
O  O62  1  0.43721499  0.81336769  0.64979468  1  0  -0.579205  0  2.044951  0  0  -0.525473  0  2.255489  0  0  -0.548307  0  2.237165  0  0  -0.343188  -0.509499  0  2.267162  0
O  O63  1  0.56278305  0.18663088  0.35020372  1  0  -0.579247  0  2.04502  0  0  -0.525632  0  2.255378  0  0  -0.548464  0  2.237051  0  0  -0.343221  -0.509659  0  2.267062  0
O  O64  1  0.70524086  0.72174144  0.82631892  1  0  -0.831184  0  1.938388  0  0  -0.765179  0  2.133495  0  0  -0.788765  0  2.097161  0  0  -0.575643  -0.748451  0  2.15852  0
O  O65  1  0.29475669  0.27825985  0.17368414  1  0  -0.831207  0  1.938438  0  0  -0.765249  0  2.13352  0  0  -0.788835  0  2.097185  0  0  -0.575684  -0.74852  0  2.15855  0
