# generated using pymatgen
data_CoH12C14S2(N3O2)2
_symmetry_space_group_name_H-M   'P 1'
_cell_length_a   8.83473084
_cell_length_b   10.62546825
_cell_length_c   12.06698272
_cell_angle_alpha   89.99984094
_cell_angle_beta   90.00065222
_cell_angle_gamma   104.63374767
_symmetry_Int_Tables_number   1
_chemical_formula_structural   CoH12C14S2(N3O2)2
_chemical_formula_sum   'Co2 H24 C28 S4 N12 O8'
_cell_volume   1096.01938655
_cell_formula_units_Z   2
loop_
 _symmetry_equiv_pos_site_id
 _symmetry_equiv_pos_as_xyz
  1  'x, y, z'
loop_
 _atom_site_type_symbol
 _atom_site_label
 _atom_site_symmetry_multiplicity
 _atom_site_fract_x
 _atom_site_fract_y
 _atom_site_fract_z
 _atom_site_occupancy
 _atom_site_pbe_bader_charge
 _atom_site_pbe_bader_spin_density
 _atom_site_pbe_cm5_charge
 _atom_site_pbe_ddec_charge
 _atom_site_pbe_ddec_spin_density
 _atom_site_pbe_ddec_sum_bond_order
 _atom_site_pbe_magmom
Co  Co0  1  0.99999784  0.50000352  0.50000088  1  1.084892  0.971252  0.684519  0.559464  1.096137  2.995153  0.96
Co  Co1  1  0.50000138  0.00000049  0.00000042  1  1.084924  -0.971253  0.684508  0.559316  -1.096141  2.995028  -0.96
H  H2  1  0.78186369  0.29492322  0.41113462  1  0.598125  9.4e-05  0.262498  0.334888  0.000455  1.020101  0.0
H  H3  1  0.71813342  0.20507519  0.91113271  1  0.598284  -9.5e-05  0.26248  0.334854  -0.000455  1.020171  0.0
H  H4  1  0.21813311  0.70507699  0.58886711  1  0.598152  9.4e-05  0.262501  0.334923  0.000455  1.020068  0.0
H  H5  1  0.28186988  0.79492404  0.08886488  1  0.598269  -9.5e-05  0.262474  0.334866  -0.000455  1.020165  0.0
H  H6  1  0.95429483  0.31430147  0.35468624  1  0.620193  -0.000344  0.294244  0.361574  9.7e-05  0.973775  0.0
H  H7  1  0.54570508  0.18569787  0.85468377  1  0.620201  0.000344  0.294264  0.361583  -9.7e-05  0.973744  0.0
H  H8  1  0.04570263  0.68570458  0.64531632  1  0.620136  -0.000344  0.294237  0.361555  9.7e-05  0.973793  0.0
H  H9  1  0.45429750  0.81429162  0.14531796  1  0.62012  0.000344  0.294267  0.361599  -9.7e-05  0.973732  0.0
H  H10  1  0.38360103  0.58798079  0.77135931  1  0.128954  4.5e-05  0.112212  0.127213  -1.9e-05  1.007417  0.0
H  H11  1  0.11640459  0.91202326  0.27136118  1  0.128645  -4.5e-05  0.112246  0.127257  1.8e-05  1.007323  0.0
H  H12  1  0.61638958  0.41202137  0.22863993  1  0.129022  4.5e-05  0.112213  0.127212  -1.8e-05  1.007412  0.0
H  H13  1  0.88359799  0.08798473  0.72864387  1  0.128747  -4.5e-05  0.112223  0.127275  1.8e-05  1.007347  0.0
H  H14  1  0.32109953  0.74991823  0.89783038  1  0.144678  0.000125  0.101572  0.070247  0.000217  1.094643  0.0
H  H15  1  0.17889975  0.75007714  0.39783487  1  0.144947  -0.000125  0.10155  0.070256  -0.000216  1.094799  0.0
H  H16  1  0.67890073  0.25008587  0.10216555  1  0.144988  0.000125  0.101563  0.070239  0.000217  1.094718  0.0
H  H17  1  0.82109628  0.24992794  0.60216852  1  0.144949  -0.000125  0.101575  0.070268  -0.000216  1.094801  0.0
H  H18  1  0.78161223  0.97407996  0.89452544  1  0.143265  2.3e-05  0.115442  0.084073  0.000112  1.054683  0.0
H  H19  1  0.71838790  0.52592515  0.39453171  1  0.143389  -2.2e-05  0.115446  0.084083  -0.000112  1.054659  0.0
H  H20  1  0.21838899  0.02591246  0.10547463  1  0.143294  2.2e-05  0.115525  0.08422  0.000112  1.054524  0.0
H  H21  1  0.28160497  0.47407701  0.60546505  1  0.143352  -2.2e-05  0.115502  0.0842  -0.000112  1.054644  0.0
H  H22  1  0.86427058  0.81758715  0.77269190  1  0.129523  7.8e-05  0.107669  0.114252  1.1e-05  1.039436  0.0
H  H23  1  0.63573162  0.68241984  0.27268959  1  0.129532  -7.8e-05  0.107684  0.114224  -1.1e-05  1.039454  0.0
H  H24  1  0.13572956  0.18240917  0.22731397  1  0.129476  7.8e-05  0.107654  0.114216  1.1e-05  1.039502  0.0
H  H25  1  0.36427090  0.31758425  0.72730220  1  0.129686  -7.8e-05  0.107674  0.114222  -1.1e-05  1.039517  0.0
C  C26  1  0.63137095  0.68876810  0.76082816  1  -0.045986  0.008125  0.004785  0.036863  0.004371  4.052454  0.005
C  C27  1  0.86863571  0.81122817  0.26082661  1  -0.045891  -0.008126  0.00469  0.036615  -0.004371  4.052478  -0.005
C  C28  1  0.36862115  0.31122044  0.23917606  1  -0.045637  0.008127  0.004827  0.036744  0.004372  4.052519  0.005
C  C29  1  0.13137134  0.18877592  0.73917015  1  -0.045939  -0.008128  0.004732  0.036672  -0.004372  4.052381  -0.005
C  C30  1  0.47663156  0.67079375  0.79748045  1  0.020951  -0.001748  -0.079087  -0.143607  -0.000846  3.917501  -0.002
C  C31  1  0.02337603  0.82920058  0.29747514  1  0.021484  0.001749  -0.079029  -0.143405  0.000846  3.917317  0.002
C  C32  1  0.52336549  0.32920354  0.20252045  1  0.021138  -0.001748  -0.079068  -0.143496  -0.000846  3.917447  -0.002
C  C33  1  0.97662882  0.17080740  0.70252162  1  0.021364  0.001748  -0.079004  -0.143478  0.000846  3.917535  0.002
C  C34  1  0.44045740  0.76234933  0.86789794  1  0.420232  0.007354  0.041302  0.084181  0.004035  3.906269  0.005
C  C35  1  0.05955165  0.73764991  0.36790065  1  0.419587  -0.007356  0.041281  0.084038  -0.004036  3.906458  -0.005
C  C36  1  0.55954709  0.23765379  0.13210130  1  0.419628  0.007355  0.041279  0.084115  0.004035  3.906283  0.005
C  C37  1  0.94044576  0.26235225  0.63210026  1  0.419702  -0.007355  0.041249  0.084055  -0.004035  3.90668  -0.005
C  C38  1  0.69709512  0.88706736  0.86645772  1  0.407025  0.006818  0.04171  0.090208  0.003678  3.912555  0.004
C  C39  1  0.80290594  0.61293481  0.36646030  1  0.406876  -0.006818  0.041619  0.090035  -0.003677  3.912541  -0.004
C  C40  1  0.30290157  0.11292506  0.13354402  1  0.406728  0.00682  0.041589  0.090008  0.003679  3.912467  0.004
C  C41  1  0.19709551  0.38707317  0.63353894  1  0.406754  -0.006821  0.041575  0.090012  -0.003679  3.912449  -0.004
C  C42  1  0.74249678  0.80000980  0.79717724  1  0.028215  -0.002018  -0.079591  -0.150146  -0.001016  3.958319  -0.002
C  C43  1  0.75750396  0.69998747  0.29717507  1  0.028189  0.002019  -0.079613  -0.150011  0.001016  3.958275  0.002
C  C44  1  0.25749985  0.19997873  0.20282780  1  0.02815  -0.002018  -0.079629  -0.150107  -0.001015  3.958476  -0.002
C  C45  1  0.24249255  0.30001177  0.70282003  1  0.028095  0.002018  -0.079613  -0.150062  0.001015  3.958443  0.002
C  C46  1  0.68070986  0.59859573  0.68842431  1  1.089102  -0.001076  0.217314  0.302288  -0.000719  4.020893  -0.001
C  C47  1  0.81930281  0.90140535  0.18842127  1  1.088886  0.001075  0.217305  0.302289  0.000719  4.0207  0.001
C  C48  1  0.31928540  0.40139572  0.31158405  1  1.08857  -0.001075  0.217236  0.302301  -0.000719  4.021234  -0.001
C  C49  1  0.18070311  0.09859874  0.81157881  1  1.089123  0.001075  0.217284  0.302334  0.000719  4.020887  0.001
C  C50  1  0.66404472  0.42519276  0.58462057  1  0.707768  -0.002505  0.197879  0.32455  -0.001391  4.074366  -0.002
C  C51  1  0.83596744  0.07481226  0.08462105  1  0.707679  0.002505  0.197913  0.324607  0.001391  4.074474  0.002
C  C52  1  0.33595655  0.57480356  0.41537785  1  0.70796  -0.002506  0.197933  0.324586  -0.001392  4.074298  -0.002
C  C53  1  0.16403764  0.92519281  0.91537654  1  0.707716  0.002505  0.197955  0.324551  0.001391  4.074377  0.002
S  S54  1  0.57628380  0.28627388  0.52150768  1  -0.078626  -0.000182  -0.191679  -0.397627  -0.000241  2.124402  0.0
S  S55  1  0.92373249  0.21373303  0.02151266  1  -0.078338  0.000182  -0.191701  -0.397595  0.000241  2.124259  0.0
S  S56  1  0.42371753  0.71372632  0.47849239  1  -0.078608  -0.000182  -0.191687  -0.397638  -0.000241  2.124253  0.0
S  S57  1  0.07627766  0.78627008  0.97848990  1  -0.078261  0.000181  -0.191729  -0.397648  0.000241  2.124269  0.0
N  N58  1  0.54800583  0.86960643  0.90283821  1  -1.14863  0.007915  -0.333819  -0.171364  0.003371  3.607328  0.005
N  N59  1  0.95200027  0.63039187  0.40283536  1  -1.148571  -0.007915  -0.333732  -0.17126  -0.003371  3.607378  -0.005
N  N60  1  0.45199378  0.13039183  0.09716352  1  -1.148427  0.007917  -0.333738  -0.171258  0.003372  3.60716  0.005
N  N61  1  0.04799713  0.36961028  0.59716140  1  -1.148506  -0.007918  -0.333752  -0.171332  -0.003372  3.607265  -0.005
N  N62  1  0.81208708  0.50114931  0.58301339  1  -0.701522  -0.003679  -0.262944  -0.212547  -0.001182  3.574048  -0.002
N  N63  1  0.68792346  0.99885755  0.08301313  1  -0.701526  0.003679  -0.262834  -0.212349  0.001183  3.573881  0.002
N  N64  1  0.18791253  0.49884895  0.41698752  1  -0.701547  -0.00368  -0.262899  -0.212471  -0.001183  3.573861  -0.002
N  N65  1  0.31207656  0.00114946  0.91698612  1  -0.701796  0.00368  -0.262875  -0.212347  0.001183  3.573928  0.002
N  N66  1  0.82030627  0.60953981  0.64755965  1  -0.754325  0.002311  -0.215233  -0.232992  0.00117  3.242855  0.002
N  N67  1  0.67970415  0.89046709  0.14756293  1  -0.754277  -0.002311  -0.21521  -0.232938  -0.001171  3.242558  -0.002
N  N68  1  0.17969412  0.39045358  0.35244291  1  -0.754113  0.002311  -0.215219  -0.232962  0.001171  3.24302  0.002
N  N69  1  0.32029474  0.10953993  0.85243963  1  -0.75422  -0.002312  -0.215161  -0.23293  -0.001171  3.24294  -0.002
O  O70  1  0.57803655  0.48646404  0.65435090  1  -1.027507  -0.000449  -0.108619  -0.179506  -0.000166  2.528603  0.0
O  O71  1  0.92197718  0.01353517  0.15435226  1  -1.027572  0.00045  -0.108707  -0.17974  0.000166  2.528668  0.0
O  O72  1  0.42196127  0.51352838  0.34565084  1  -1.027596  -0.00045  -0.10864  -0.179612  -0.000166  2.528794  0.0
O  O73  1  0.07802814  0.98646698  0.84564615  1  -1.027633  0.00045  -0.108712  -0.179696  0.000166  2.528636  0.0
O  O74  1  0.86812550  0.35474145  0.37067159  1  -1.223867  0.063932  -0.567937  -0.72228  0.035284  2.188952  0.052
O  O75  1  0.63186925  0.14525499  0.87067576  1  -1.22401  -0.063927  -0.567906  -0.722219  -0.03528  2.189045  -0.052
O  O76  1  0.13186964  0.64526071  0.62932599  1  -1.223828  0.063931  -0.567915  -0.722262  0.035283  2.189075  0.052
O  O77  1  0.36813881  0.85474131  0.12932017  1  -1.223904  -0.063928  -0.56792  -0.722247  -0.035281  2.189117  -0.052
