# generated using pymatgen
data_ZnH8C6N4ClO
_symmetry_space_group_name_H-M   'P 1'
_cell_length_a   8.61946558
_cell_length_b   8.71454985
_cell_length_c   13.15817084
_cell_angle_alpha   91.23636932
_cell_angle_beta   89.99994381
_cell_angle_gamma   89.99955826
_symmetry_Int_Tables_number   1
_chemical_formula_structural   ZnH8C6N4ClO
_chemical_formula_sum   'Zn4 H32 C24 N16 Cl4 O4'
_cell_volume   988.14277240
_cell_formula_units_Z   4
loop_
 _symmetry_equiv_pos_site_id
 _symmetry_equiv_pos_as_xyz
  1  'x, y, z'
loop_
 _atom_site_type_symbol
 _atom_site_label
 _atom_site_symmetry_multiplicity
 _atom_site_fract_x
 _atom_site_fract_y
 _atom_site_fract_z
 _atom_site_occupancy
 _atom_site_hle17_bader_spin_density
 _atom_site_hle17_ddec_charge
 _atom_site_hle17_ddec_spin_density
 _atom_site_hle17_ddec_sum_bond_order
 _atom_site_hle17_magmom
 _atom_site_hse06_10hf_bader_spin_density
 _atom_site_hse06_10hf_ddec_charge
 _atom_site_hse06_10hf_ddec_spin_density
 _atom_site_hse06_10hf_ddec_sum_bond_order
 _atom_site_hse06_10hf_magmom
 _atom_site_hse06_bader_spin_density
 _atom_site_hse06_ddec_charge
 _atom_site_hse06_ddec_spin_density
 _atom_site_hse06_ddec_sum_bond_order
 _atom_site_hse06_magmom
 _atom_site_pbe_bader_spin_density
 _atom_site_pbe_cm5_charge
 _atom_site_pbe_ddec_charge
 _atom_site_pbe_ddec_spin_density
 _atom_site_pbe_ddec_sum_bond_order
 _atom_site_pbe_magmom
Zn  Zn0  1  0.34663331  0.70984345  0.29237610  1  0  0.910907  0  2.047872  0  0  0.725088  0  2.547864  0  0  0.764784  0  2.498579  0  0  0.651555  0.697628  0  2.581704  0
Zn  Zn1  1  0.84663587  0.29015463  0.20762434  1  0  0.910917  0  2.047839  0  0  0.725083  0  2.547841  0  0  0.764778  0  2.498556  0  0  0.651561  0.697624  0  2.581681  0
Zn  Zn2  1  0.65336598  0.29015572  0.70762373  1  0  0.910924  0  2.047871  0  0  0.7251  0  2.547881  0  0  0.764798  0  2.498594  0  0  0.651559  0.69764  0  2.581717  0
Zn  Zn3  1  0.15336458  0.70984340  0.79237547  1  0  0.910911  0  2.047828  0  0  0.725071  0  2.547831  0  0  0.764768  0  2.498547  0  0  0.651547  0.697607  0  2.581669  0
H  H4  1  0.72258809  0.31236531  0.95892677  1  0  0.137571  0  0.95139  0  0  0.14389  0  1.017151  0  0  0.147729  0  1.014511  0  0  0.111727  0.141094  0  1.019158  0
H  H5  1  0.22258492  0.68763099  0.54107310  1  0  0.137536  0  0.95147  0  0  0.14389  0  1.017185  0  0  0.147737  0  1.014545  0  0  0.111711  0.141093  0  1.019191  0
H  H6  1  0.27741352  0.68763386  0.04107305  1  0  0.137527  0  0.951446  0  0  0.143862  0  1.017186  0  0  0.147707  0  1.014546  0  0  0.111698  0.141065  0  1.019192  0
H  H7  1  0.77741321  0.31236703  0.45892595  1  0  0.137521  0  0.951497  0  0  0.143863  0  1.017225  0  0  0.147706  0  1.014586  0  0  0.111705  0.141067  0  1.019232  0
H  H8  1  0.64314059  0.86248325  0.37122841  1  0  0.054126  0  0.956675  0  0  0.063083  0  1.027291  0  0  0.064892  0  1.022324  0  0  0.116806  0.061519  0  1.03103  0
H  H9  1  0.14314048  0.13751292  0.12877137  1  0  0.054096  0  0.956696  0  0  0.063045  0  1.027316  0  0  0.064861  0  1.022346  0  0  0.116803  0.061482  0  1.031053  0
H  H10  1  0.35685870  0.13751363  0.62877138  1  0  0.054127  0  0.956663  0  0  0.063074  0  1.027283  0  0  0.06489  0  1.022314  0  0  0.116805  0.06151  0  1.031021  0
H  H11  1  0.85686112  0.86248625  0.87122845  1  0  0.05414  0  0.956657  0  0  0.063058  0  1.027307  0  0  0.064895  0  1.022312  0  0  0.116808  0.061494  0  1.031045  0
H  H12  1  0.90046167  0.82287897  0.55600744  1  0  0.095074  0  0.966036  0  0  0.110536  0  1.036827  0  0  0.110671  0  1.038537  0  0  0.095537  0.110341  0  1.035717  0
H  H13  1  0.40046426  0.17712289  0.94399088  1  0  0.095076  0  0.965992  0  0  0.110544  0  1.036772  0  0  0.110676  0  1.03848  0  0  0.095537  0.110349  0  1.035662  0
H  H14  1  0.09953646  0.17712250  0.44399166  1  0  0.095091  0  0.966006  0  0  0.110565  0  1.036769  0  0  0.110696  0  1.03848  0  0  0.095562  0.11037  0  1.035658  0
H  H15  1  0.59953619  0.82287514  0.05600816  1  0  0.095096  0  0.965972  0  0  0.110557  0  1.036758  0  0  0.110694  0  1.038462  0  0  0.095544  0.110362  0  1.035649  0
H  H16  1  0.79510061  0.99119551  0.59136426  1  0  0.10357  0  0.964145  0  0  0.120496  0  1.032158  0  0  0.121495  0  1.031512  0  0  0.093029  0.119617  0  1.032761  0
H  H17  1  0.29510459  0.00880484  0.90863410  1  0  0.103602  0  0.964079  0  0  0.120498  0  1.032124  0  0  0.121499  0  1.031477  0  0  0.09301  0.119631  0  1.032717  0
H  H18  1  0.20490100  0.00880710  0.40863637  1  0  0.103596  0  0.964191  0  0  0.120496  0  1.032219  0  0  0.121496  0  1.031572  0  0  0.09302  0.119616  0  1.032824  0
H  H19  1  0.70489586  0.99119433  0.09136572  1  0  0.103622  0  0.964083  0  0  0.120523  0  1.032121  0  0  0.121523  0  1.031474  0  0  0.093021  0.119656  0  1.032714  0
H  H20  1  0.83652919  0.95089953  0.45962502  1  0  0.108902  0  0.969859  0  0  0.128594  0  1.032513  0  0  0.129451  0  1.032563  0  0  0.09699  0.127867  0  1.032548  0
H  H21  1  0.33653340  0.04909978  0.04037468  1  0  0.1089  0  0.969894  0  0  0.128594  0  1.03254  0  0  0.129451  0  1.032591  0  0  0.097003  0.127866  0  1.032575  0
H  H22  1  0.16347009  0.04910194  0.54037484  1  0  0.108885  0  0.969859  0  0  0.128582  0  1.032509  0  0  0.129439  0  1.03256  0  0  0.09697  0.127854  0  1.032544  0
H  H23  1  0.66346821  0.95089940  0.95962590  1  0  0.10889  0  0.969872  0  0  0.128597  0  1.03251  0  0  0.129452  0  1.032564  0  0  0.09698  0.127869  0  1.032545  0
H  H24  1  0.51382394  0.82163810  0.65175437  1  0  0.102305  0  0.952059  0  0  0.118093  0  1.024509  0  0  0.118092  0  1.025071  0  0  0.095047  0.117927  0  1.024253  0
H  H25  1  0.01382899  0.17836437  0.84824573  1  0  0.102278  0  0.952091  0  0  0.118085  0  1.024534  0  0  0.118084  0  1.025097  0  0  0.095055  0.117918  0  1.024276  0
H  H26  1  0.48617303  0.17836452  0.34824627  1  0  0.10227  0  0.952104  0  0  0.118074  0  1.024551  0  0  0.118073  0  1.025114  0  0  0.095038  0.117906  0  1.024292  0
H  H27  1  0.98617378  0.82163824  0.15175491  1  0  0.102291  0  0.952053  0  0  0.118078  0  1.024502  0  0  0.118076  0  1.025065  0  0  0.095047  0.117912  0  1.024245  0
H  H28  1  0.69242357  0.72150386  0.66643016  1  0  0.106887  0  0.935116  0  0  0.127324  0  0.995596  0  0  0.12732  0  0.996957  0  0  0.104869  0.127209  0  0.994753  0
H  H29  1  0.19242900  0.27849727  0.83357056  1  0  0.10686  0  0.93513  0  0  0.127305  0  0.995612  0  0  0.127302  0  0.996973  0  0  0.104858  0.127189  0  0.994769  0
H  H30  1  0.30757340  0.27849876  0.33357048  1  0  0.10688  0  0.93512  0  0  0.127326  0  0.995595  0  0  0.127323  0  0.996957  0  0  0.104863  0.127211  0  0.994753  0
H  H31  1  0.80757261  0.72150535  0.16643007  1  0  0.106878  0  0.935098  0  0  0.127316  0  0.995574  0  0  0.127312  0  0.996936  0  0  0.104857  0.127202  0  0.99473  0
H  H32  1  0.53877174  0.63718192  0.59210918  1  0  0.109123  0  0.945968  0  0  0.122856  0  1.018441  0  0  0.12436  0  1.016965  0  0  0.10534  0.121672  0  1.019577  0
H  H33  1  0.03877407  0.36282036  0.90789090  1  0  0.109125  0  0.945996  0  0  0.122865  0  1.018467  0  0  0.124369  0  1.016992  0  0  0.105365  0.121682  0  1.019597  0
H  H34  1  0.46122639  0.36282070  0.40789070  1  0  0.109095  0  0.94595  0  0  0.122831  0  1.018434  0  0  0.124336  0  1.016957  0  0  0.105341  0.121648  0  1.019567  0
H  H35  1  0.96122986  0.63717996  0.09211046  1  0  0.109098  0  0.945956  0  0  0.122827  0  1.018438  0  0  0.124331  0  1.016961  0  0  0.105326  0.121643  0  1.019576  0
C  C36  1  0.47118357  0.55016985  0.09756685  1  0  0.127575  0  3.839607  0  0  0.119406  0  4.091803  0  0  0.121723  0  4.116495  0  0  0.08997  0.117765  0  4.075259  0
C  C37  1  0.97118226  0.44983073  0.40243278  1  0  0.127731  0  3.83953  0  0  0.11955  0  4.091768  0  0  0.121866  0  4.116456  0  0  0.090025  0.11791  0  4.075224  0
C  C38  1  0.52882036  0.44983162  0.90243300  1  0  0.127717  0  3.839566  0  0  0.119535  0  4.0918  0  0  0.121853  0  4.116489  0  0  0.089992  0.117888  0  4.075251  0
C  C39  1  0.02881587  0.55016729  0.59756627  1  0  0.127601  0  3.839568  0  0  0.119442  0  4.091766  0  0  0.12176  0  4.116457  0  0  0.089962  0.117799  0  4.075219  0
C  C40  1  0.59466730  0.44488560  0.07456711  1  0  0.140554  0  3.815225  0  0  0.135025  0  4.060021  0  0  0.137574  0  4.084718  0  0  0.092942  0.133223  0  4.043426  0
C  C41  1  0.09466345  0.55511438  0.42543199  1  0  0.140436  0  3.815263  0  0  0.134882  0  4.060121  0  0  0.137435  0  4.084814  0  0  0.092844  0.13308  0  4.043528  0
C  C42  1  0.40533663  0.55511587  0.92543274  1  0  0.140404  0  3.815267  0  0  0.134848  0  4.060122  0  0  0.137395  0  4.084823  0  0  0.092867  0.133069  0  4.043496  0
C  C43  1  0.90533468  0.44488365  0.57456706  1  0  0.140484  0  3.815265  0  0  0.134927  0  4.060096  0  0  0.137474  0  4.084795  0  0  0.092938  0.133127  0  4.043502  0
C  C44  1  0.62804594  0.39156046  0.97612995  1  0  -0.200567  0  3.684932  0  0  -0.223157  0  3.93581  0  0  -0.226424  0  3.953115  0  0  -0.086577  -0.22091  0  3.924285  0
C  C45  1  0.12804342  0.60844114  0.52386930  1  0  -0.200463  0  3.684949  0  0  -0.223085  0  3.935808  0  0  -0.226358  0  3.953107  0  0  -0.086546  -0.220838  0  3.924282  0
C  C46  1  0.37195683  0.60844215  0.02386917  1  0  -0.200431  0  3.684967  0  0  -0.223038  0  3.935843  0  0  -0.226306  0  3.953142  0  0  -0.086543  -0.220797  0  3.92431  0
C  C47  1  0.87195355  0.39155803  0.47612900  1  0  -0.200492  0  3.685004  0  0  -0.22309  0  3.935868  0  0  -0.226364  0  3.953184  0  0  -0.086559  -0.220843  0  3.924341  0
C  C48  1  0.58668367  0.80570292  0.43546043  1  0  0.384121  0  3.76494  0  0  0.307852  0  4.040005  0  0  0.336189  0  4.040616  0  0  0.17788  0.288922  0  4.039137  0
C  C49  1  0.08668321  0.19429597  0.06454018  1  0  0.384063  0  3.765169  0  0  0.307803  0  4.040207  0  0  0.336131  0  4.040821  0  0  0.177848  0.288875  0  4.039336  0
C  C50  1  0.41331562  0.19429625  0.56454016  1  0  0.384054  0  3.765047  0  0  0.30779  0  4.040103  0  0  0.336118  0  4.04072  0  0  0.17785  0.288862  0  4.039233  0
C  C51  1  0.91331840  0.80570321  0.93545964  1  0  0.384051  0  3.765171  0  0  0.307816  0  4.040197  0  0  0.336131  0  4.040801  0  0  0.177872  0.288888  0  4.039327  0
C  C52  1  0.80723170  0.90044778  0.53275164  1  0  -0.180539  0  3.641637  0  0  -0.27826  0  3.879327  0  0  -0.275855  0  3.890723  0  0  -0.139547  -0.279498  0  3.871565  0
C  C53  1  0.30723371  0.09955363  0.96724749  1  0  -0.180617  0  3.641592  0  0  -0.278315  0  3.879273  0  0  -0.275907  0  3.890675  0  0  -0.139561  -0.279565  0  3.871513  0
C  C54  1  0.19276759  0.09955369  0.46724745  1  0  -0.180584  0  3.641659  0  0  -0.2783  0  3.879345  0  0  -0.275891  0  3.890746  0  0  -0.13954  -0.279535  0  3.871587  0
C  C55  1  0.69276790  0.90044554  0.03275309  1  0  -0.180632  0  3.641591  0  0  -0.278342  0  3.879279  0  0  -0.275938  0  3.890678  0  0  -0.139539  -0.279589  0  3.871509  0
C  C56  1  0.59748607  0.74448412  0.61364315  1  0  -0.175506  0  3.633134  0  0  -0.278129  0  3.882678  0  0  -0.274514  0  3.893264  0  0  -0.139869  -0.280283  0  3.875574  0
C  C57  1  0.09748929  0.25551657  0.88635839  1  0  -0.175431  0  3.633137  0  0  -0.278097  0  3.882706  0  0  -0.274486  0  3.893299  0  0  -0.139871  -0.280246  0  3.875601  0
C  C58  1  0.40251205  0.25551735  0.38635747  1  0  -0.175432  0  3.633129  0  0  -0.278088  0  3.882675  0  0  -0.274473  0  3.893259  0  0  -0.139851  -0.280235  0  3.875569  0
C  C59  1  0.90251348  0.74448490  0.11364147  1  0  -0.175425  0  3.633058  0  0  -0.278052  0  3.882623  0  0  -0.274439  0  3.893216  0  0  -0.139832  -0.280204  0  3.875519  0
N  N60  1  0.47798080  0.57682132  0.20106877  1  0  -0.314128  0  3.267458  0  0  -0.246282  0  3.578129  0  0  -0.263585  0  3.589603  0  0  -0.244771  -0.234662  0  3.570302  0
N  N61  1  0.97798101  0.42317921  0.29893010  1  0  -0.314124  0  3.267434  0  0  -0.246289  0  3.578128  0  0  -0.263592  0  3.589602  0  0  -0.244766  -0.234673  0  3.570304  0
N  N62  1  0.52202081  0.42317900  0.79893107  1  0  -0.314144  0  3.26747  0  0  -0.246315  0  3.578171  0  0  -0.263619  0  3.589646  0  0  -0.244778  -0.234695  0  3.570343  0
N  N63  1  0.02201828  0.57681881  0.70106895  1  0  -0.31409  0  3.267429  0  0  -0.24625  0  3.578098  0  0  -0.263554  0  3.589571  0  0  -0.244739  -0.234621  0  3.57026  0
N  N64  1  0.66463688  0.41546842  0.16616744  1  0  -0.308226  0  3.254957  0  0  -0.238065  0  3.559966  0  0  -0.254916  0  3.570617  0  0  -0.246263  -0.226709  0  3.552643  0
N  N65  1  0.16463409  0.58452988  0.33383235  1  0  -0.308173  0  3.254848  0  0  -0.238008  0  3.559857  0  0  -0.25486  0  3.570507  0  0  -0.246199  -0.226653  0  3.552534  0
N  N66  1  0.33536472  0.58452960  0.83383313  1  0  -0.308194  0  3.25485  0  0  -0.238019  0  3.559854  0  0  -0.25487  0  3.570506  0  0  -0.246211  -0.226669  0  3.552522  0
N  N67  1  0.83536403  0.41546700  0.66616667  1  0  -0.308222  0  3.254963  0  0  -0.238057  0  3.55998  0  0  -0.254907  0  3.570629  0  0  -0.246278  -0.226703  0  3.552658  0
N  N68  1  0.59353234  0.49563462  0.23957029  1  0  -0.025831  0  2.960862  0  0  -0.026533  0  3.242689  0  0  -0.017212  0  3.253075  0  0  -0.08899  -0.032251  0  3.23542  0
N  N69  1  0.09353145  0.50436306  0.26042953  1  0  -0.02588  0  2.960884  0  0  -0.02657  0  3.242711  0  0  -0.01725  0  3.253098  0  0  -0.089027  -0.032285  0  3.23544  0
N  N70  1  0.40646927  0.50436340  0.76042951  1  0  -0.02582  0  2.960823  0  0  -0.026506  0  3.242636  0  0  -0.017185  0  3.253022  0  0  -0.088996  -0.032224  0  3.235368  0
N  N71  1  0.90646900  0.49563381  0.73957025  1  0  -0.025849  0  2.960887  0  0  -0.026545  0  3.242713  0  0  -0.017223  0  3.253097  0  0  -0.088996  -0.032267  0  3.235442  0
N  N72  1  0.66173578  0.81548925  0.52318384  1  0  -0.060637  0  3.491022  0  0  0.046568  0  3.718224  0  0  0.026863  0  3.743701  0  0  -0.268039  0.05962  0  3.700647  0
N  N73  1  0.16173827  0.18451210  0.97681767  1  0  -0.060595  0  3.49107  0  0  0.046606  0  3.718295  0  0  0.026903  0  3.743776  0  0  -0.268045  0.059654  0  3.700721  0
N  N74  1  0.33826235  0.18451451  0.47681681  1  0  -0.060593  0  3.491046  0  0  0.046617  0  3.718245  0  0  0.026916  0  3.743725  0  0  -0.26803  0.059666  0  3.700667  0
N  N75  1  0.83826218  0.81548822  0.02318217  1  0  -0.060625  0  3.491072  0  0  0.046571  0  3.718281  0  0  0.026867  0  3.743766  0  0  -0.26806  0.059619  0  3.700708  0
Cl  Cl76  1  0.29936737  0.93196186  0.21922068  1  0  -0.585494  0  0.940904  0  0  -0.523444  0  1.215259  0  0  -0.538315  0  1.190067  0  0  -0.30798  -0.512725  0  1.232598  0
Cl  Cl77  1  0.79936695  0.06803543  0.28077901  1  0  -0.585509  0  0.940893  0  0  -0.523445  0  1.215236  0  0  -0.538314  0  1.190044  0  0  -0.307973  -0.512727  0  1.232579  0
Cl  Cl78  1  0.70063075  0.06803960  0.78078374  1  0  -0.585498  0  0.940877  0  0  -0.52344  0  1.215227  0  0  -0.538314  0  1.190038  0  0  -0.307971  -0.512722  0  1.232566  0
Cl  Cl79  1  0.20063350  0.93196259  0.71922155  1  0  -0.585502  0  0.940898  0  0  -0.523436  0  1.215244  0  0  -0.538309  0  1.190053  0  0  -0.307976  -0.512719  0  1.232587  0
O  O80  1  0.45729542  0.73685644  0.42574252  1  0  -0.529837  0  2.130665  0  0  -0.454979  0  2.40875  0  0  -0.480365  0  2.396594  0  0  -0.309651  -0.437407  0  2.416473  0
O  O81  1  0.95730071  0.26314540  0.07425714  1  0  -0.529783  0  2.130778  0  0  -0.4549  0  2.408828  0  0  -0.48028  0  2.396673  0  0  -0.309626  -0.437329  0  2.41655  0
O  O82  1  0.54270387  0.26314158  0.57425805  1  0  -0.529803  0  2.130753  0  0  -0.454937  0  2.408825  0  0  -0.480322  0  2.396672  0  0  -0.309641  -0.437366  0  2.416545  0
O  O83  1  0.04269974  0.73685263  0.92574190  1  0  -0.529811  0  2.13085  0  0  -0.45493  0  2.408896  0  0  -0.480314  0  2.39675  0  0  -0.309644  -0.437358  0  2.416617  0
