# generated using pymatgen
data_Nd2Co3H20C40(N4O13)2
_symmetry_space_group_name_H-M   'P 1'
_cell_length_a   7.62392388
_cell_length_b   10.56898449
_cell_length_c   30.05005035
_cell_angle_alpha   99.15416194
_cell_angle_beta   90.64524988
_cell_angle_gamma   89.90642671
_symmetry_Int_Tables_number   1
_chemical_formula_structural   Nd2Co3H20C40(N4O13)2
_chemical_formula_sum   'Nd4 Co6 H40 C80 N16 O52'
_cell_volume   2390.35667267
_cell_formula_units_Z   2
loop_
 _symmetry_equiv_pos_site_id
 _symmetry_equiv_pos_as_xyz
  1  'x, y, z'
loop_
 _atom_site_type_symbol
 _atom_site_label
 _atom_site_symmetry_multiplicity
 _atom_site_fract_x
 _atom_site_fract_y
 _atom_site_fract_z
 _atom_site_occupancy
 _atom_site_pbe_bader_charge
 _atom_site_pbe_bader_spin_density
 _atom_site_pbe_cm5_charge
 _atom_site_pbe_ddec_charge
 _atom_site_pbe_ddec_spin_density
 _atom_site_pbe_ddec_sum_bond_order
 _atom_site_pbe_magmom
Nd  Nd0  1  0.87274091  0.55245383  0.76825228  1  2.254209  -0.000241  1.532596  2.167985  -0.000891  2.164067  0.0
Nd  Nd1  1  0.37139491  0.44686807  0.73125192  1  2.255865  -0.000283  1.53133  2.169299  -0.000896  2.159258  0.0
Nd  Nd2  1  0.12723334  0.44754242  0.23174656  1  2.254211  -0.000241  1.532624  2.167917  -0.000891  2.164034  0.0
Nd  Nd3  1  0.62860436  0.55313014  0.26875139  1  2.255909  -0.000282  1.531381  2.16949  -0.000895  2.158951  0.0
Co  Co4  1  0.00000409  0.99998842  0.00000103  1  1.265796  2.613059  0.655477  0.853977  2.809614  2.445494  2.593
Co  Co5  1  0.50001120  0.00001394  0.49999433  1  1.114456  0.983307  0.629333  0.660719  1.045293  2.927042  0.974
Co  Co6  1  0.93690681  0.71163142  0.13064889  1  1.30834  2.617713  0.659793  0.955602  2.821879  2.39844  2.599
Co  Co7  1  0.44234433  0.28597415  0.36895663  1  1.300274  2.608861  0.657292  0.950399  2.808468  2.395121  2.59
Co  Co8  1  0.06308185  0.28836770  0.86934946  1  1.308238  2.617688  0.659806  0.955557  2.821862  2.398236  2.599
Co  Co9  1  0.55764673  0.71404214  0.63103236  1  1.300193  2.608888  0.657219  0.950376  2.808589  2.394934  2.59
H  H10  1  0.04047782  0.75146649  0.92236908  1  0.119586  0.000378  0.116401  0.142992  0.000133  0.986848  0.0
H  H11  1  0.52389034  0.25088959  0.57701211  1  0.121695  -1.5e-05  0.118131  0.143346  -0.000126  0.983794  0.0
H  H12  1  0.95951484  0.24852211  0.07763170  1  0.119322  0.000378  0.116399  0.142928  0.000133  0.986929  0.0
H  H13  1  0.47610468  0.74914588  0.42297893  1  0.121637  -1.5e-05  0.118182  0.143484  -0.000126  0.983765  0.0
H  H14  1  0.67123876  0.79952803  0.87751743  1  0.142217  0.000509  0.11941  0.138961  0.000212  0.988923  0.0
H  H15  1  0.15860631  0.19755429  0.62104521  1  0.103006  0.000115  0.119198  0.139321  5.2e-05  0.992491  0.0
H  H16  1  0.32878682  0.20045774  0.12248856  1  0.141915  0.000509  0.119335  0.138893  0.000212  0.989252  0.0
H  H17  1  0.84138618  0.80246779  0.37894942  1  0.10319  0.000115  0.119173  0.139277  5.2e-05  0.992559  0.0
H  H18  1  0.37850294  0.14386236  0.98810658  1  0.173137  0.000377  0.148141  0.114448  -0.000119  0.959035  0.0
H  H19  1  0.85710235  0.85932751  0.50881580  1  0.170729  5.3e-05  0.150785  0.118923  -0.00015  0.959539  0.0
H  H20  1  0.62148030  0.85612903  0.01188336  1  0.172833  0.000376  0.148068  0.114371  -0.000119  0.958997  0.0
H  H21  1  0.14288331  0.14071939  0.49116787  1  0.169693  5.3e-05  0.150715  0.118742  -0.00015  0.959709  0.0
H  H22  1  0.29884219  0.07749995  0.21767162  1  0.131104  0.000447  0.117093  0.143347  0.000168  0.996746  0.0
H  H23  1  0.79858516  0.92072649  0.28254949  1  0.13216  0.000435  0.117406  0.143935  0.000165  0.996641  0.0
H  H24  1  0.70114029  0.92248207  0.78234276  1  0.131835  0.000446  0.117178  0.143542  0.000168  0.996563  0.0
H  H25  1  0.20143644  0.07926311  0.71745505  1  0.131901  0.000435  0.117403  0.143951  0.000165  0.996501  0.0
H  H26  1  0.94433496  0.02284592  0.18456826  1  0.133911  0.00016  0.116005  0.138627  -4e-05  1.001184  0.0
H  H27  1  0.44658373  0.97877394  0.31553463  1  0.168083  0.000128  0.115901  0.139285  -5e-05  1.002744  0.0
H  H28  1  0.05564324  0.97712542  0.81543021  1  0.133613  0.00016  0.115963  0.138563  -4e-05  1.001191  0.0
H  H29  1  0.55344905  0.02124992  0.68444352  1  0.168621  0.000129  0.115934  0.139388  -5e-05  1.00281  0.0
H  H30  1  0.52025486  0.67548859  0.12090270  1  0.200863  0.000743  0.144187  0.113165  0.000117  0.98434  0.0
H  H31  1  0.02337738  0.32357757  0.37949709  1  0.208011  0.00073  0.14421  0.114362  9.8e-05  0.982111  0.0
H  H32  1  0.47969129  0.32448014  0.87912853  1  0.201082  0.000743  0.144187  0.113159  0.000117  0.984192  0.0
H  H33  1  0.97662181  0.67642157  0.62050295  1  0.207944  0.00073  0.144206  0.114331  9.8e-05  0.982117  0.0
H  H34  1  0.63508315  0.02967139  0.94077181  1  0.539134  0.000522  0.316184  0.294831  9.1e-05  0.98623  0.0
H  H35  1  0.11654107  0.97056067  0.55806029  1  0.551345  5.1e-05  0.317787  0.297229  -0.000175  0.978185  0.0
H  H36  1  0.36491739  0.97032201  0.05922957  1  0.539781  0.000521  0.316188  0.294798  9.1e-05  0.986318  0.0
H  H37  1  0.88346171  0.02946997  0.44192584  1  0.551166  5.1e-05  0.317737  0.297085  -0.000175  0.978454  0.0
H  H38  1  0.29039468  0.83321676  0.15660436  1  0.533832  0.000296  0.328143  0.308147  -7.9e-05  0.940693  0.0
H  H39  1  0.79234059  0.16280362  0.34485247  1  0.551792  0.00029  0.325674  0.307694  -0.000123  0.948061  0.0
H  H40  1  0.70957519  0.16674148  0.84343132  1  0.533991  0.000295  0.328136  0.308288  -7.9e-05  0.940463  0.0
H  H41  1  0.20766002  0.83717830  0.65515161  1  0.551821  0.00029  0.325654  0.307657  -0.000123  0.948054  0.0
H  H42  1  0.15789401  0.55726958  0.08237797  1  0.631836  -0.000245  0.326881  0.412003  -0.000439  0.863939  0.0
H  H43  1  0.66355546  0.44227209  0.41842294  1  0.615764  -0.000213  0.326998  0.411014  -0.000402  0.864009  0.0
H  H44  1  0.84214199  0.44274875  0.91762650  1  0.631945  -0.000244  0.326944  0.412052  -0.000439  0.863729  0.0
H  H45  1  0.33645819  0.55777401  0.58158070  1  0.617877  -0.000212  0.327061  0.411138  -0.000404  0.863703  0.0
H  H46  1  0.21606217  0.53021332  0.13026278  1  0.644408  0.000193  0.303061  0.398231  7.8e-05  0.928546  0.0
H  H47  1  0.71917192  0.46920986  0.37077600  1  0.646579  0.000161  0.304969  0.40021  6.1e-05  0.92431  0.0
H  H48  1  0.78392668  0.46977917  0.86974353  1  0.644707  0.000192  0.303001  0.398105  7.8e-05  0.928744  0.0
H  H49  1  0.28084821  0.53079309  0.62922194  1  0.646599  0.000161  0.304942  0.400082  6.2e-05  0.924485  0.0
C  C50  1  0.97471944  0.78681749  0.04375218  1  1.585839  -0.004525  0.195022  0.453732  -0.006116  4.266391  -0.003
C  C51  1  0.48599981  0.20124245  0.45466449  1  1.566098  -0.005768  0.195934  0.439163  -0.007829  4.226502  -0.004
C  C52  1  0.02528770  0.21316059  0.95625037  1  1.586906  -0.004531  0.195009  0.453497  -0.006119  4.266454  -0.003
C  C53  1  0.51399265  0.79879112  0.54532945  1  1.566209  -0.005771  0.195564  0.438877  -0.007828  4.226906  -0.004
C  C54  1  0.06938904  0.89152339  0.07733522  1  1.5633  -0.005475  0.207356  0.466271  -0.007712  4.199225  -0.004
C  C55  1  0.58210151  0.10107292  0.42047301  1  1.570199  -0.005083  0.203823  0.462271  -0.006728  4.228204  -0.003
C  C56  1  0.93063775  0.10845756  0.92266618  1  1.5619  -0.005467  0.207229  0.466052  -0.007709  4.199577  -0.004
C  C57  1  0.41788568  0.89896256  0.57952003  1  1.570428  -0.00508  0.203889  0.462179  -0.00673  4.227966  -0.003
C  C58  1  0.15556963  0.55342027  0.86254130  1  1.62834  -0.000878  0.239332  0.661474  -0.001885  4.157255  -0.001
C  C59  1  0.64656663  0.44796525  0.63672131  1  1.622254  0.00018  0.237083  0.656236  -0.000713  4.159528  0.0
C  C60  1  0.84442704  0.44656549  0.13746265  1  1.629098  -0.000882  0.239349  0.661578  -0.001892  4.157374  -0.001
C  C61  1  0.35342718  0.55206450  0.36327407  1  1.621891  0.000185  0.23692  0.656186  -0.000709  4.159422  0.0
C  C62  1  0.25844074  0.67046614  0.88151564  1  0.001698  0.003309  -0.003277  -0.030319  0.001183  3.941137  0.003
C  C63  1  0.74652902  0.32998932  0.61777835  1  -0.016397  0.002954  -0.003149  -0.029636  0.000966  3.937757  0.002
C  C64  1  0.74155465  0.32952059  0.11848970  1  0.001555  0.003309  -0.00331  -0.030464  0.001183  3.941202  0.003
C  C65  1  0.25347790  0.67003564  0.38221646  1  -0.015769  0.002954  -0.003023  -0.029473  0.000967  3.937486  0.002
C  C66  1  0.17583453  0.76243473  0.91248193  1  0.031282  0.00452  -0.078889  -0.165057  0.002226  3.913798  0.003
C  C67  1  0.66024834  0.23922162  0.58663248  1  0.019083  0.004312  -0.077838  -0.162324  0.002037  3.914656  0.003
C  C68  1  0.82416341  0.23754909  0.08751959  1  0.03161  0.00452  -0.078776  -0.164783  0.002226  3.91352  0.003
C  C69  1  0.33975325  0.76081386  0.41335924  1  0.018722  0.00431  -0.07792  -0.162574  0.002036  3.914689  0.003
C  C70  1  0.27527609  0.86906562  0.93108056  1  0.354942  0.000783  0.093588  0.157466  7.9e-05  4.042278  0.001
C  C71  1  0.75756538  0.13285731  0.56740196  1  0.358381  -0.002139  0.097119  0.154961  -0.002483  4.015399  -0.002
C  C72  1  0.72473376  0.13091058  0.06892589  1  0.354903  0.000783  0.093583  0.157563  7.9e-05  4.042208  0.001
C  C73  1  0.24242842  0.86717053  0.43259299  1  0.358563  -0.002138  0.097131  0.155025  -0.002483  4.015584  -0.002
C  C74  1  0.45073203  0.88293408  0.91747723  1  0.353343  0.003943  0.092977  0.133959  0.001967  4.039329  0.003
C  C75  1  0.93390537  0.11742228  0.58095026  1  0.366882  0.001396  0.092822  0.133227  0.000579  4.042628  0.001
C  C76  1  0.54928972  0.11703832  0.08253302  1  0.353303  0.003943  0.092966  0.133911  0.001967  4.039355  0.003
C  C77  1  0.06608704  0.88260073  0.41904077  1  0.367648  0.001395  0.092766  0.133222  0.000579  4.042731  0.001
C  C78  1  0.53577459  0.78972274  0.88752460  1  -0.009479  -0.00023  -0.076943  -0.163491  -0.000414  3.953775  0.0
C  C79  1  0.02233216  0.20915851  0.61124242  1  -0.001406  -0.000737  -0.077483  -0.164551  -0.000827  3.957001  -0.001
C  C80  1  0.46425511  0.21025352  0.11248919  1  -0.008547  -0.000231  -0.076953  -0.163539  -0.000415  3.954597  0.0
C  C81  1  0.97767341  0.79086260  0.38875018  1  -0.004063  -0.000736  -0.077475  -0.16459  -0.000826  3.957148  -0.001
C  C82  1  0.43664844  0.68210161  0.86966302  1  0.005056  0.001636  -0.018005  -0.077212  0.000788  3.97411  0.001
C  C83  1  0.92585026  0.31713999  0.62946131  1  0.044327  0.001717  -0.017225  -0.074888  0.00084  3.968319  0.001
C  C84  1  0.56336149  0.31788132  0.13034679  1  0.004496  0.001636  -0.01797  -0.077125  0.000788  3.974848  0.001
C  C85  1  0.07415796  0.68287634  0.37053236  1  0.046314  0.001716  -0.01727  -0.074879  0.000839  3.968087  0.001
C  C86  1  0.51664665  0.58218943  0.83560207  1  1.568355  0.000293  0.235864  0.647927  0.000189  4.163953  0.0
C  C87  1  0.00988975  0.41608065  0.66374074  1  1.541847  0.000255  0.235706  0.647466  0.000154  4.167184  0.0
C  C88  1  0.48333164  0.41780303  0.16440156  1  1.568914  0.000293  0.235826  0.647891  0.00019  4.163896  0.0
C  C89  1  0.99010676  0.58392997  0.33625726  1  1.541899  0.000255  0.235731  0.647287  0.000154  4.167252  0.0
C  C90  1  0.37137358  0.05163836  0.96631163  1  0.993318  -0.004499  0.164011  0.193454  -0.005846  3.930594  -0.003
C  C91  1  0.85209379  0.95047028  0.53115750  1  0.972261  -0.00681  0.16328  0.180025  -0.008015  3.908844  -0.005
C  C92  1  0.62861774  0.94834640  0.03368761  1  0.993887  -0.004499  0.16406  0.193585  -0.005847  3.930405  -0.003
C  C93  1  0.14790385  0.04956231  0.46883306  1  0.972633  -0.006806  0.163467  0.180328  -0.008011  3.908966  -0.005
C  C94  1  0.49766481  0.26116016  0.26600514  1  1.570298  -0.003148  0.239881  0.643005  -0.004728  4.139601  -0.001
C  C95  1  0.99654497  0.73900022  0.23379885  1  1.558384  -0.002706  0.239891  0.642855  -0.004168  4.13973  -0.001
C  C96  1  0.50235403  0.73883800  0.73399320  1  1.570174  -0.00315  0.239838  0.643175  -0.004732  4.139391  -0.001
C  C97  1  0.00345680  0.26097782  0.76619803  1  1.558118  -0.002718  0.23989  0.642569  -0.00418  4.139955  -0.001
C  C98  1  0.56013452  0.15689667  0.22948821  1  -0.04691  0.004081  -0.002089  -0.030016  0.001816  3.92389  0.003
C  C99  1  0.06003221  0.84304437  0.27056981  1  -0.037665  0.004111  -0.003002  -0.031322  0.001843  3.926463  0.003
C  C100  1  0.43986208  0.84308906  0.77051242  1  -0.046865  0.004078  -0.002079  -0.030153  0.001815  3.923844  0.003
C  C101  1  0.93998650  0.15693842  0.72942204  1  -0.037096  0.00411  -0.003127  -0.031335  0.001843  3.926618  0.003
C  C102  1  0.43813108  0.06557890  0.21031949  1  0.02341  0.001884  -0.083022  -0.190613  0.000875  3.937157  0.001
C  C103  1  0.93840877  0.93343193  0.28987893  1  0.018896  0.001589  -0.08198  -0.188809  0.000692  3.935216  0.001
C  C104  1  0.56185129  0.93440882  0.78968987  1  0.021233  0.001885  -0.083166  -0.190841  0.000874  3.936932  0.001
C  C105  1  0.06161142  0.06654805  0.71012075  1  0.018486  0.001592  -0.081811  -0.188598  0.000694  3.934929  0.001
C  C106  1  0.50353399  0.95675324  0.18292380  1  0.377537  0.002834  0.106287  0.16338  0.001474  4.003804  0.002
C  C107  1  0.00491057  0.04247468  0.31734372  1  0.346529  0.002979  0.106175  0.163487  0.001549  4.005487  0.002
C  C108  1  0.49644201  0.04322305  0.81709391  1  0.37912  0.002831  0.106493  0.163643  0.001473  4.003526  0.002
C  C109  1  0.99511207  0.95751769  0.68264899  1  0.346762  0.002978  0.10608  0.163404  0.001548  4.00574  0.002
C  C110  1  0.68545413  0.93745011  0.17469555  1  0.387727  0.001044  0.09087  0.142883  0.000316  4.024516  0.001
C  C111  1  0.18739719  0.06292427  0.32525724  1  0.383583  0.000555  0.09025  0.141132  -7e-05  4.030578  0.0
C  C112  1  0.31452058  0.06251948  0.82532246  1  0.387323  0.001042  0.090699  0.142158  0.000318  4.0252  0.001
C  C113  1  0.81262005  0.93708721  0.67472919  1  0.383447  0.000556  0.090459  0.141272  -6.7e-05  4.030634  0.0
C  C114  1  0.80535343  0.03227498  0.19222411  1  -0.034903  0.001249  -0.067795  -0.13524  0.000329  3.905534  0.001
C  C115  1  0.30708418  0.96867761  0.30781196  1  0.084465  0.001332  -0.068196  -0.134462  0.00038  3.905853  0.001
C  C116  1  0.19463027  0.96769549  0.80778531  1  -0.034313  0.001249  -0.067689  -0.134817  0.000329  3.905222  0.001
C  C117  1  0.69293694  0.03134248  0.69217229  1  0.084615  0.00133  -0.068325  -0.134848  0.000379  3.906456  0.001
C  C118  1  0.74224942  0.14251441  0.21948844  1  0.053605  -0.000888  -0.018513  -0.081819  -0.001051  3.952236  -0.001
C  C119  1  0.24285438  0.85806195  0.28065578  1  -0.061986  -0.001047  -0.018917  -0.0843  -0.001242  3.956611  -0.001
C  C120  1  0.25775248  0.85746079  0.78051394  1  0.053728  -0.000888  -0.018509  -0.081774  -0.001051  3.95221  -0.001
C  C121  1  0.75717202  0.14194568  0.71932912  1  -0.062273  -0.001044  -0.01888  -0.084106  -0.001239  3.956943  -0.001
C  C122  1  0.86955366  0.24722195  0.23460428  1  1.496209  -0.000236  0.212292  0.625393  -0.000296  4.165299  0.0
C  C123  1  0.36979272  0.75339283  0.26598628  1  1.494519  -0.000263  0.212379  0.625154  -0.000322  4.164899  0.0
C  C124  1  0.13044808  0.75276853  0.76539163  1  1.495001  -0.000237  0.212321  0.625299  -0.000297  4.165488  0.0
C  C125  1  0.63023776  0.24661581  0.73400534  1  1.512472  -0.000262  0.212441  0.625219  -0.000322  4.164687  0.0
C  C126  1  0.54939098  0.76871792  0.14032635  1  1.002059  -0.003264  0.174071  0.214758  -0.004104  3.895378  -0.002
C  C127  1  0.05227168  0.23067915  0.35992990  1  0.970251  -0.003  0.173847  0.213706  -0.003836  3.890214  -0.002
C  C128  1  0.45058670  0.23123645  0.85970614  1  1.002262  -0.003266  0.174119  0.214811  -0.004108  3.895392  -0.002
C  C129  1  0.94772077  0.76932279  0.64006196  1  0.970043  -0.003001  0.17392  0.21392  -0.003838  3.890094  -0.002
N  N130  1  0.23100092  0.97530131  0.96233447  1  -1.210371  0.050359  -0.351916  -0.379428  0.026905  3.527787  0.041
N  N131  1  0.71189804  0.02779006  0.53536357  1  -1.14246  -0.006753  -0.363145  -0.319497  -0.007328  3.623325  -0.004
N  N132  1  0.76900230  0.02467965  0.03766890  1  -1.209883  0.050358  -0.351998  -0.379828  0.026906  3.52775  0.041
N  N133  1  0.28809698  0.97224445  0.46462742  1  -1.142292  -0.006752  -0.363204  -0.319668  -0.007326  3.623342  -0.004
N  N134  1  0.50536478  0.00083624  0.94000169  1  -1.296212  0.000761  -0.378799  -0.271191  -0.000266  3.625601  0.001
N  N135  1  0.98710409  0.00012491  0.55797189  1  -1.290123  -0.001719  -0.377255  -0.270126  -0.001771  3.635783  -0.001
N  N136  1  0.49463841  0.99914950  0.06000028  1  -1.297906  0.00076  -0.378771  -0.270982  -0.000267  3.625381  0.001
N  N137  1  0.01289090  0.99990863  0.44201805  1  -1.290131  -0.001718  -0.377175  -0.26996  -0.00177  3.635623  -0.001
N  N138  1  0.70940827  0.81782558  0.14801183  1  -1.185757  0.055572  -0.342604  -0.38353  0.029266  3.503416  0.048
N  N139  1  0.21234667  0.18265517  0.35189767  1  -1.162015  0.056146  -0.343308  -0.38372  0.029518  3.509531  0.048
N  N140  1  0.29057060  0.18213929  0.85201558  1  -1.186697  0.055589  -0.342585  -0.383409  0.029271  3.503769  0.048
N  N141  1  0.78766133  0.81736492  0.64808656  1  -1.162592  0.056133  -0.343334  -0.383679  0.029513  3.509704  0.048
N  N142  1  0.42255828  0.84825246  0.16038081  1  -1.276599  0.002651  -0.368206  -0.256021  0.001215  3.585233  0.002
N  N143  1  0.92455748  0.15031990  0.34006714  1  -1.297614  0.002769  -0.368001  -0.25576  0.001269  3.582952  0.002
N  N144  1  0.57741405  0.15170763  0.83964766  1  -1.276173  0.002651  -0.368297  -0.256056  0.001215  3.584883  0.002
N  N145  1  0.07544294  0.84967154  0.65992848  1  -1.297579  0.002767  -0.368074  -0.25595  0.001268  3.583348  0.002
O  O146  1  0.13797641  0.98451736  0.06113371  1  -1.165824  0.066832  -0.304696  -0.520478  0.034415  2.348134  0.056
O  O147  1  0.65527670  0.00786399  0.43520610  1  -1.162519  0.055715  -0.296048  -0.507439  0.028281  2.29063  0.047
O  O148  1  0.86204124  0.01546744  0.93886989  1  -1.164688  0.066835  -0.304668  -0.520383  0.034417  2.348016  0.056
O  O149  1  0.34471320  0.99217632  0.56479119  1  -1.162781  0.055687  -0.296136  -0.507369  0.028268  2.290379  0.047
O  O150  1  0.95958314  0.80442858  0.00314310  1  -1.143352  0.074336  -0.307366  -0.51231  0.038074  2.320283  0.064
O  O151  1  0.47437218  0.17977226  0.49529821  1  -1.099741  -0.000539  -0.293932  -0.45828  -0.001994  2.422781  0.0
O  O152  1  0.04043317  0.19554471  0.99685853  1  -1.143714  0.074364  -0.307303  -0.512083  0.038083  2.320261  0.064
O  O153  1  0.52563866  0.82025749  0.50469621  1  -1.099519  -0.000552  -0.29363  -0.457966  -0.002003  2.423275  0.0
O  O154  1  0.07634887  0.87640727  0.11815012  1  -1.153448  0.065577  -0.290585  -0.503512  0.033865  2.364676  0.057
O  O155  1  0.58544927  0.12324991  0.38020024  1  -1.159843  0.062683  -0.297866  -0.516558  0.032463  2.387166  0.053
O  O156  1  0.92364648  0.12359190  0.88185390  1  -1.153466  0.065569  -0.29057  -0.503471  0.033861  2.36496  0.057
O  O157  1  0.41458122  0.87677983  0.61979320  1  -1.159646  0.062702  -0.297826  -0.516539  0.032475  2.38701  0.053
O  O158  1  0.92117937  0.69089133  0.06014518  1  -1.136549  0.079695  -0.307267  -0.505346  0.040682  2.310692  0.067
O  O159  1  0.42953896  0.29998791  0.44053687  1  -1.131712  0.063029  -0.300765  -0.494717  0.032051  2.291612  0.053
O  O160  1  0.07880161  0.30910211  0.93986117  1  -1.137045  0.079685  -0.30735  -0.505328  0.040674  2.310593  0.067
O  O161  1  0.57044697  0.70004471  0.55945800  1  -1.13194  0.063068  -0.300697  -0.4947  0.032068  2.29173  0.053
O  O162  1  0.19210287  0.45232844  0.87833715  1  -1.143798  0.077111  -0.301504  -0.540496  0.040353  2.394791  0.063
O  O163  1  0.68226790  0.54805679  0.62030316  1  -1.133861  0.074076  -0.302065  -0.540725  0.038544  2.383484  0.06
O  O164  1  0.80788590  0.54766209  0.12166540  1  -1.143542  0.077121  -0.30146  -0.540521  0.040358  2.3946  0.063
O  O165  1  0.31774536  0.45195276  0.37968116  1  -1.133481  0.074082  -0.3021  -0.5408  0.03854  2.383463  0.06
O  O166  1  0.03211070  0.56533315  0.83483812  1  -1.207812  0.001769  -0.431486  -0.711128  0.000227  2.411963  0.002
O  O167  1  0.52581573  0.43789624  0.66464156  1  -1.219963  0.002395  -0.42773  -0.709854  0.000641  2.412125  0.002
O  O168  1  0.96786375  0.43466318  0.16516938  1  -1.208791  0.001762  -0.431578  -0.711145  0.000223  2.412304  0.002
O  O169  1  0.47417281  0.56215172  0.33535382  1  -1.220176  0.002399  -0.427688  -0.709842  0.000643  2.412174  0.002
O  O170  1  0.41568875  0.50724840  0.80987133  1  -1.199414  0.00016  -0.395449  -0.666241  -7.4e-05  2.363815  0.0
O  O171  1  0.91144273  0.49117606  0.68960478  1  -1.203634  0.000261  -0.394445  -0.666552  9e-06  2.362254  0.0
O  O172  1  0.58425807  0.49277090  0.19013373  1  -1.19941  0.000159  -0.395555  -0.666484  -7.4e-05  2.363919  0.0
O  O173  1  0.08855115  0.50883455  0.31039255  1  -1.203491  0.000262  -0.394492  -0.666439  9e-06  2.362215  0.0
O  O174  1  0.68443038  0.57731921  0.83338000  1  -1.219129  0.000765  -0.400586  -0.685461  0.000348  2.334795  0.0
O  O175  1  0.17782199  0.41957693  0.66597289  1  -1.193954  0.000673  -0.400273  -0.685862  0.000309  2.326022  0.0
O  O176  1  0.31554257  0.42265788  0.16661812  1  -1.219359  0.000765  -0.400407  -0.685191  0.000348  2.334621  0.0
O  O177  1  0.82217331  0.58043564  0.33402954  1  -1.19413  0.000673  -0.400178  -0.685723  0.000309  2.325853  0.0
O  O178  1  0.53646590  0.24462915  0.30553391  1  -1.148006  0.056985  -0.28268  -0.533403  0.030106  2.394852  0.045
O  O179  1  0.03563066  0.75495993  0.19440366  1  -1.150474  0.055765  -0.283409  -0.535867  0.029489  2.383662  0.044
O  O180  1  0.46355556  0.75537956  0.69446535  1  -1.147751  0.056959  -0.282666  -0.533396  0.030096  2.394446  0.045
O  O181  1  0.96438684  0.24499318  0.80559121  1  -1.150392  0.055771  -0.283316  -0.535739  0.029489  2.383976  0.044
O  O182  1  0.40962457  0.35785007  0.25612405  1  -1.226666  -0.000384  -0.424199  -0.76737  -0.001097  2.358205  0.0
O  O183  1  0.90780490  0.64285560  0.24336400  1  -1.223411  -0.000395  -0.42231  -0.766569  -0.00114  2.350515  0.0
O  O184  1  0.59039154  0.64214231  0.74386965  1  -1.226794  -0.000385  -0.424148  -0.767361  -0.001098  2.358282  0.0
O  O185  1  0.09219046  0.35714166  0.75664025  1  -1.223152  -0.000399  -0.422348  -0.766428  -0.001143  2.350229  0.0
O  O186  1  0.81410599  0.36178396  0.24953511  1  -1.223585  -0.000425  -0.428424  -0.761967  -0.000579  2.388923  0.0
O  O187  1  0.31410426  0.63854790  0.25127312  1  -1.220847  -0.000411  -0.429554  -0.761795  -0.000563  2.392652  0.0
O  O188  1  0.18590343  0.63821412  0.75045290  1  -1.223381  -0.000425  -0.4285  -0.761999  -0.000579  2.388988  0.0
O  O189  1  0.68592107  0.36146078  0.74872281  1  -1.221216  -0.000411  -0.429731  -0.761941  -0.000563  2.392441  0.0
O  O190  1  0.03404144  0.22637699  0.23057876  1  -1.168507  -4.3e-05  -0.385771  -0.629265  -6.2e-05  2.165274  0.0
O  O191  1  0.53444842  0.77446846  0.27025674  1  -1.166364  -7.4e-05  -0.385321  -0.629085  -9.2e-05  2.165285  0.0
O  O192  1  0.96595114  0.77359817  0.76941728  1  -1.167753  -4.3e-05  -0.385728  -0.629265  -6.2e-05  2.165609  0.0
O  O193  1  0.46558605  0.22553446  0.72973689  1  -1.183592  -7.4e-05  -0.385349  -0.629076  -9.2e-05  2.165377  0.0
O  O194  1  0.19215230  0.59959163  0.11242124  1  -1.242093  0.040062  -0.55826  -0.755569  0.020046  2.049263  0.033
O  O195  1  0.69931046  0.39991351  0.38871470  1  -1.227865  0.038988  -0.558234  -0.754996  0.019471  2.040763  0.032
O  O196  1  0.80784055  0.40041430  0.88758881  1  -1.242449  0.04006  -0.55824  -0.755463  0.020043  2.049317  0.033
O  O197  1  0.30068226  0.60010578  0.61129009  1  -1.22999  0.038988  -0.558256  -0.754998  0.019472  2.040578  0.032
