# generated using pymatgen
data_HoH6C8NO8
_symmetry_space_group_name_H-M   'P 1'
_cell_length_a   7.65056020
_cell_length_b   7.60854133
_cell_length_c   9.84091226
_cell_angle_alpha   111.14520044
_cell_angle_beta   97.70068505
_cell_angle_gamma   91.34613099
_symmetry_Int_Tables_number   1
_chemical_formula_structural   HoH6C8NO8
_chemical_formula_sum   'Ho2 H12 C16 N2 O16'
_cell_volume   527.84662069
_cell_formula_units_Z   2
loop_
 _symmetry_equiv_pos_site_id
 _symmetry_equiv_pos_as_xyz
  1  'x, y, z'
loop_
 _atom_site_type_symbol
 _atom_site_label
 _atom_site_symmetry_multiplicity
 _atom_site_fract_x
 _atom_site_fract_y
 _atom_site_fract_z
 _atom_site_occupancy
 _atom_site_hle17_bader_spin_density
 _atom_site_hle17_ddec_charge
 _atom_site_hle17_ddec_spin_density
 _atom_site_hle17_ddec_sum_bond_order
 _atom_site_hle17_magmom
 _atom_site_hse06_10hf_bader_charge
 _atom_site_hse06_10hf_bader_spin_density
 _atom_site_hse06_10hf_ddec_charge
 _atom_site_hse06_10hf_ddec_spin_density
 _atom_site_hse06_10hf_ddec_sum_bond_order
 _atom_site_hse06_10hf_magmom
 _atom_site_hse06_bader_spin_density
 _atom_site_hse06_ddec_charge
 _atom_site_hse06_ddec_spin_density
 _atom_site_hse06_ddec_sum_bond_order
 _atom_site_hse06_magmom
 _atom_site_pbe_bader_spin_density
 _atom_site_pbe_cm5_charge
 _atom_site_pbe_ddec_charge
 _atom_site_pbe_ddec_spin_density
 _atom_site_pbe_ddec_sum_bond_order
 _atom_site_pbe_magmom
Ho  Ho0  1  0.64070232  0.96797927  0.80062207  1  0  2.232547  0  1.659877  0  2.209259  0  2.081224  0  2.146183  0  0  2.21758  0  1.941136  0  0  1.504591  2.044473  0  2.17729  0
Ho  Ho1  1  0.35930164  0.03202291  0.19937796  1  0  2.232493  0  1.660055  0  2.209204  0  2.081163  0  2.146422  0  0  2.217549  0  1.941318  0  0  1.504481  2.044404  0  2.177528  0
H  H2  1  0.58207208  0.44417875  0.39542126  1  0  0.140125  0  0.947137  0  0.132708  0  0.145471  0  1.01354  0  0  0.150639  0  1.008295  0  0  0.121632  0.141444  0  1.017763  0
H  H3  1  0.41793324  0.55581213  0.60457054  1  0  0.140104  0  0.947151  0  0.13233  0  0.145455  0  1.013551  0  0  0.15062  0  1.008312  0  0  0.121625  0.141429  0  1.017776  0
H  H4  1  0.02985912  0.86045160  0.59488504  1  0  0.127427  0  0.925107  0  0.167961  0  0.13476  0  0.987671  0  0  0.139129  0  0.983843  0  0  0.133526  0.13175  0  0.990134  0
H  H5  1  0.97014278  0.13954336  0.40512285  1  0  0.127487  0  0.925053  0  0.167811  0  0.13477  0  0.987674  0  0  0.139148  0  0.983834  0  0  0.133553  0.131759  0  0.990136  0
H  H6  1  0.98828725  0.52171061  0.15057804  1  0  0.116139  0  0.907154  0  0.16601  0  0.125824  0  0.966118  0  0  0.129909  0  0.961401  0  0  0.136928  0.122758  0  0.969638  0
H  H7  1  0.01172600  0.47830394  0.84942651  1  0  0.116208  0  0.907147  0  0.165911  0  0.125822  0  0.966147  0  0  0.12993  0  0.961384  0  0  0.136943  0.122756  0  0.969665  0
H  H8  1  0.12775864  0.76232291  0.36667330  1  0  0.310518  0  0.908712  0  0.564979  0  0.288082  0  0.971522  0  0  0.298587  0  0.962748  0  0  0.317356  0.280925  0  0.977344  0
H  H9  1  0.87224960  0.23768175  0.63333601  1  0  0.310535  0  0.908671  0  0.565029  0  0.288105  0  0.971478  0  0  0.298605  0  0.962702  0  0  0.317388  0.280952  0  0.977301  0
H  H10  1  0.46065753  0.30716009  0.87754393  1  0  0.42385  0  0.832781  0  0.600364  0  0.407395  0  0.885503  0  0  0.415533  0  0.877856  0  0  0.318869  0.401821  0  0.891636  0
H  H11  1  0.53933269  0.69283689  0.12245929  1  0  0.423861  0  0.832699  0  0.600421  0  0.407412  0  0.885416  0  0  0.41555  0  0.87777  0  0  0.318882  0.401839  0  0.891543  0
H  H12  1  0.31992720  0.16022837  0.88844025  1  0  0.442818  0  0.855323  0  0.66648  0  0.410989  0  0.919746  0  0  0.423488  0  0.901703  0  0  0.297939  0.402327  0  0.932455  0
H  H13  1  0.68006714  0.83975876  0.11154833  1  0  0.44284  0  0.855285  0  0.666494  0  0.411027  0  0.919683  0  0  0.423525  0  0.901641  0  0  0.29798  0.402366  0  0.93239  0
C  C14  1  0.68107093  0.30342043  0.12319703  1  0  0.70679  0  3.889756  0  1.617928  0  0.660931  0  4.176717  0  0  0.6969  0  4.171376  0  0  0.229006  0.637091  0  4.183047  0
C  C15  1  0.31894445  0.69658994  0.87679840  1  0  0.70667  0  3.889966  0  1.617717  0  0.66091  0  4.176778  0  0  0.696873  0  4.171444  0  0  0.229012  0.637095  0  4.18308  0
C  C16  1  0.77206002  0.46221571  0.25738495  1  0  -0.096169  0  3.763551  0  0.027572  0  -0.072251  0  4.008465  0  0  -0.081969  0  4.027986  0  0  -0.010244  -0.06567  0  3.993356  0
C  C17  1  0.22794013  0.53778821  0.74260808  1  0  -0.096156  0  3.763469  0  0.027917  0  -0.072344  0  4.008396  0  0  -0.082066  0  4.027924  0  0  -0.01034  -0.06577  0  3.993286  0
C  C18  1  0.70431662  0.51571971  0.38982804  1  0  -0.112746  0  3.568506  0  0.017704  0  -0.152452  0  3.819909  0  0  -0.149496  0  3.83145  0  0  -0.062194  -0.153308  0  3.810838  0
C  C19  1  0.29568716  0.48428119  0.61016550  1  0  -0.112727  0  3.56844  0  0.017876  0  -0.152439  0  3.819887  0  0  -0.149477  0  3.831424  0  0  -0.062188  -0.153301  0  3.810829  0
C  C20  1  0.79287255  0.66097014  0.51921599  1  0  0.346682  0  3.931066  0  0.768087  0  0.343544  0  4.195499  0  0  0.353203  0  4.218566  0  0  0.096412  0.336289  0  4.182702  0
C  C21  1  0.20711829  0.33903254  0.48078692  1  0  0.346818  0  3.930752  0  0.767928  0  0.343693  0  4.19517  0  0  0.353351  0  4.218235  0  0  0.096509  0.336437  0  4.182376  0
C  C22  1  0.95068341  0.74804303  0.50316707  1  0  0.004492  0  3.522174  0  0.418566  0  -0.047342  0  3.788194  0  0  -0.04344  0  3.80213  0  0  0.050629  -0.049528  0  3.778518  0
C  C23  1  0.04931992  0.25195353  0.49683024  1  0  0.004427  0  3.522242  0  0.418659  0  -0.047391  0  3.788313  0  0  -0.043495  0  3.802246  0  0  0.050563  -0.049575  0  3.778637  0
C  C24  1  0.92812097  0.55478414  0.24991609  1  0  0.11662  0  3.587641  0  0.435301  0  0.056803  0  3.854547  0  0  0.067778  0  3.864024  0  0  0.057614  0.050062  0  3.847439  0
C  C25  1  0.07188246  0.44522516  0.75008595  1  0  0.116477  0  3.587854  0  0.435537  0  0.056843  0  3.854622  0  0  0.067811  0  3.864077  0  0  0.057632  0.050102  0  3.847518  0
C  C26  1  0.95516573  0.95551207  0.04738579  1  0  0.571253  0  3.907442  0  1.640358  0  0.526024  0  4.204617  0  0  0.555973  0  4.202884  0  0  0.219301  0.505522  0  4.210214  0
C  C27  1  0.04483092  0.04449643  0.95260009  1  0  0.571239  0  3.907645  0  1.659497  0  0.526119  0  4.204692  0  0  0.55605  0  4.202973  0  0  0.219332  0.505624  0  4.210292  0
C  C28  1  0.42169662  0.92691367  0.48730671  1  0  0.564579  0  3.903446  0  1.652097  0  0.520251  0  4.199723  0  0  0.550026  0  4.198248  0  0  0.221321  0.499932  0  4.205545  0
C  C29  1  0.57830472  0.07307523  0.51271867  1  0  0.564423  0  3.903587  0  1.631301  0  0.520309  0  4.199589  0  0  0.550085  0  4.198112  0  0  0.221313  0.49999  0  4.205413  0
N  N30  1  0.00982911  0.69267237  0.37235648  1  0  -0.177735  0  3.519354  0  -1.342233  0  -0.106372  0  3.757207  0  0  -0.119174  0  3.771114  0  0  -0.336907  -0.097722  0  3.746868  0
N  N31  1  0.99017418  0.30733543  0.62764918  1  0  -0.177662  0  3.519464  0  -1.342133  0  -0.106352  0  3.757262  0  0  -0.119156  0  3.771182  0  0  -0.336862  -0.097705  0  3.746926  0
O  O32  1  0.73208578  0.27740013  0.00009856  1  0  -0.719834  0  1.988259  0  -1.217048  0  -0.670232  0  2.223821  0  0  -0.704618  0  2.210583  0  0  -0.366386  -0.653022  0  2.230503  0
O  O33  1  0.26791571  0.72260353  0.99990368  1  0  -0.71987  0  1.987887  0  -1.216896  0  -0.670291  0  2.223382  0  0  -0.704683  0  2.21015  0  0  -0.366431  -0.653088  0  2.230053  0
O  O34  1  0.55814474  0.19996358  0.13872260  1  0  -0.76449  0  2.115104  0  -1.23738  0  -0.710885  0  2.382876  0  0  -0.752444  0  2.367967  0  0  -0.418019  -0.693549  0  2.391836  0
O  O35  1  0.44185353  0.80003438  0.86128579  1  0  -0.764361  0  2.115812  0  -1.237609  0  -0.710789  0  2.383529  0  0  -0.752341  0  2.36863  0  0  -0.417946  -0.693465  0  2.392485  0
O  O36  1  0.73400315  0.71012574  0.64489500  1  0  -0.753972  0  2.08073  0  -1.219378  0  -0.705628  0  2.336534  0  0  -0.747105  0  2.330704  0  0  -0.467273  -0.685604  0  2.33642  0
O  O37  1  0.26599490  0.28987120  0.35509478  1  0  -0.75408  0  2.080308  0  -1.21932  0  -0.705717  0  2.33607  0  0  -0.747203  0  2.330232  0  0  -0.467332  -0.68569  0  2.335953  0
O  O38  1  0.79410662  0.89153970  0.99804175  1  0  -0.681945  0  2.117389  0  -1.220949  0  -0.624013  0  2.352839  0  0  -0.659506  0  2.340964  0  0  -0.35741  -0.606448  0  2.359358  0
O  O39  1  0.20590584  0.10846783  0.00195866  1  0  -0.681955  0  2.117011  0  -1.220849  0  -0.624058  0  2.352416  0  0  -0.659552  0  2.340547  0  0  -0.357451  -0.606487  0  2.358925  0
O  O40  1  0.04417121  0.95334330  0.16344516  1  0  -0.625829  0  2.05772  0  -1.194425  0  -0.584851  0  2.305923  0  0  -0.616526  0  2.294838  0  0  -0.350027  -0.56951  0  2.311474  0
O  O41  1  0.95583621  0.04665450  0.83655292  1  0  -0.625847  0  2.058354  0  -1.194462  0  -0.584914  0  2.306521  0  0  -0.616576  0  2.29544  0  0  -0.350042  -0.569569  0  2.31207  0
O  O42  1  0.41123126  0.85750936  0.58341823  1  0  -0.605234  0  2.078214  0  -1.188781  0  -0.558908  0  2.320106  0  0  -0.590448  0  2.311054  0  0  -0.333176  -0.543104  0  2.324321  0
O  O43  1  0.58874317  0.14248844  0.41657753  1  0  -0.605402  0  2.077424  0  -1.18842  0  -0.559105  0  2.319148  0  0  -0.59066  0  2.31009  0  0  -0.333297  -0.543296  0  2.323361  0
O  O44  1  0.31251884  0.88910662  0.36740679  1  0  -0.676881  0  2.077201  0  -1.210703  0  -0.621711  0  2.316937  0  0  -0.657951  0  2.304502  0  0  -0.376159  -0.603947  0  2.32242  0
O  O45  1  0.68745767  0.11087397  0.63258826  1  0  -0.676704  0  2.078176  0  -1.211063  0  -0.621541  0  2.31777  0  0  -0.65777  0  2.305336  0  0  -0.376064  -0.603783  0  2.323257  0
O  O46  1  0.40355050  0.18092436  0.82373168  1  0  -0.888901  0  1.869364  0  -1.253642  0  -0.846652  0  2.060079  0  0  -0.876071  0  2.029624  0  0  -0.627265  -0.832983  0  2.077182  0
O  O47  1  0.59644302  0.81906689  0.17626615  1  0  -0.888925  0  1.869254  0  -1.253714  0  -0.846686  0  2.059952  0  0  -0.876114  0  2.029502  0  0  -0.627321  -0.833022  0  2.077048  0
