# generated using pymatgen
data_CuH40C34N8(ClO2)2
_symmetry_space_group_name_H-M   'P 1'
_cell_length_a   12.66471713
_cell_length_b   12.66483156
_cell_length_c   20.29550063
_cell_angle_alpha   90.01090839
_cell_angle_beta   89.98947011
_cell_angle_gamma   120.01306563
_symmetry_Int_Tables_number   1
_chemical_formula_structural   CuH40C34N8(ClO2)2
_chemical_formula_sum   'Cu3 H120 C102 N24 Cl6 O12'
_cell_volume   2818.82496254
_cell_formula_units_Z   3
loop_
 _symmetry_equiv_pos_site_id
 _symmetry_equiv_pos_as_xyz
  1  'x, y, z'
loop_
 _atom_site_type_symbol
 _atom_site_label
 _atom_site_symmetry_multiplicity
 _atom_site_fract_x
 _atom_site_fract_y
 _atom_site_fract_z
 _atom_site_occupancy
 _atom_site_pbe_bader_charge
 _atom_site_pbe_bader_spin_density
 _atom_site_pbe_cm5_charge
 _atom_site_pbe_ddec_charge
 _atom_site_pbe_ddec_spin_density
 _atom_site_pbe_ddec_sum_bond_order
 _atom_site_pbe_magmom
Cu  Cu0  1  0.37828326  0.37827916  0.00000030  1  1.006848  0.557874  0.73302  0.616036  0.740711  2.326512  0.557
Cu  Cu1  1  0.62160432  0.99993266  0.66663021  1  1.003443  -0.558046  0.732346  0.616107  -0.768978  2.323319  -0.557
Cu  Cu2  1  0.99994276  0.62160076  0.33337121  1  1.003454  0.558057  0.732354  0.61592  0.74019  2.323743  0.557
H  H3  1  0.11917107  0.23511861  0.04565225  1  0.15173  0.002457  0.116567  0.098458  0.001229  1.033009  0.001
H  H4  1  0.76449092  0.88378026  0.71227201  1  0.129746  -0.002465  0.116233  0.098229  -0.001269  1.034007  -0.001
H  H5  1  0.11589432  0.88055254  0.37890562  1  0.148579  0.002452  0.11644  0.098239  0.001224  1.033344  0.001
H  H6  1  0.23511923  0.11916932  0.95434552  1  0.152062  0.002453  0.116542  0.09843  0.001225  1.033025  0.001
H  H7  1  0.88379117  0.76452357  0.28773538  1  0.129797  0.002471  0.116226  0.098109  0.001227  1.03398  0.001
H  H8  1  0.88053399  0.11590234  0.62109301  1  0.148514  -0.00245  0.11643  0.09822  -0.001272  1.033317  -0.001
H  H9  1  0.01829792  0.12863204  0.15131157  1  0.105521  0.001483  0.11418  0.118475  0.000766  0.975898  0.001
H  H10  1  0.87116281  0.88939195  0.81782754  1  0.079993  -0.001484  0.113813  0.118194  -0.000785  0.976457  -0.001
H  H11  1  0.11054212  0.98186236  0.48443140  1  0.064875  0.001492  0.114009  0.118142  0.000758  0.976355  0.001
H  H12  1  0.12863111  0.01829859  0.84868477  1  0.10552  0.001464  0.114195  0.118512  0.000758  0.975916  0.001
H  H13  1  0.88938610  0.87117346  0.18217664  1  0.080115  0.001504  0.11389  0.118349  0.000765  0.976376  0.001
H  H14  1  0.98186353  0.11056017  0.51557137  1  0.064429  -0.001492  0.11407  0.118163  -0.000786  0.976379  -0.001
H  H15  1  0.14207956  0.09540516  0.23709884  1  0.135136  5.8e-05  0.114075  0.129429  2.2e-05  1.016145  0.0
H  H16  1  0.90473012  0.04644955  0.90366982  1  0.16025  -4.4e-05  0.11407  0.129135  -2.9e-05  1.01638  0.0
H  H17  1  0.95360415  0.85851643  0.57038189  1  0.14057  4.3e-05  0.114187  0.129575  2.5e-05  1.016285  0.0
H  H18  1  0.09540536  0.14208081  0.76289818  1  0.13511  4.3e-05  0.114086  0.129389  2.5e-05  1.016278  0.0
H  H19  1  0.04643103  0.90472476  0.09632920  1  0.160363  5.8e-05  0.114087  0.129129  2.2e-05  1.016308  0.0
H  H20  1  0.85852094  0.95360752  0.42962289  1  0.141459  -4.3e-05  0.114196  0.12957  -2.9e-05  1.016394  0.0
H  H21  1  0.44420860  0.25669988  0.10015483  1  0.141624  0.0025  0.11626  0.103399  0.001205  1.014613  0.001
H  H22  1  0.74330334  0.18741140  0.76695176  1  0.123602  -0.002512  0.116277  0.103516  -0.001251  1.014249  -0.001
H  H23  1  0.81240884  0.55572515  0.43384367  1  0.130297  0.002521  0.116328  0.103472  0.001204  1.014378  0.001
H  H24  1  0.25670523  0.44421131  0.89984564  1  0.142006  0.002497  0.116276  0.103419  0.001204  1.014612  0.001
H  H25  1  0.18742172  0.74331693  0.23304426  1  0.123322  0.002512  0.116249  0.103399  0.001202  1.014253  0.001
H  H26  1  0.55573134  0.81241202  0.56616312  1  0.130054  -0.002525  0.116363  0.103477  -0.001255  1.014385  -0.001
H  H27  1  0.47052987  0.20183422  0.20575080  1  0.437817  6.6e-05  0.333086  0.292341  3e-05  0.907681  0.0
H  H28  1  0.79824809  0.26852838  0.87246550  1  0.474234  -7.2e-05  0.333123  0.292568  -4.1e-05  0.907824  0.0
H  H29  1  0.73134787  0.52988332  0.53933963  1  0.481789  7.2e-05  0.333056  0.292048  4e-05  0.90761  0.0
H  H30  1  0.20185081  0.47053031  0.79424715  1  0.437854  7.3e-05  0.333073  0.292332  4e-05  0.907739  0.0
H  H31  1  0.26851848  0.79824702  0.12752786  1  0.462338  6.6e-05  0.333091  0.292487  3e-05  0.907815  0.0
H  H32  1  0.52988939  0.73132787  0.46066546  1  0.481871  -7.2e-05  0.33314  0.292142  -4.2e-05  0.907531  0.0
H  H33  1  0.53462087  0.17982919  0.31389293  1  0.1173  -9e-06  0.122421  0.092064  -1.1e-05  0.987484  0.0
H  H34  1  0.82005877  0.35458829  0.98067907  1  0.112374  1.2e-05  0.122312  0.091994  4e-06  0.987586  0.0
H  H35  1  0.64559896  0.46582435  0.64745338  1  0.116913  4e-06  0.122364  0.0922  7e-06  0.987181  0.0
H  H36  1  0.17984294  0.53462825  0.68611102  1  0.116356  4e-06  0.122431  0.092081  7e-06  0.987535  0.0
H  H37  1  0.35458155  0.82006293  0.01931796  1  0.11264  -1e-05  0.122306  0.092034  -1.1e-05  0.987598  0.0
H  H38  1  0.46583859  0.64559895  0.35254500  1  0.117156  1.3e-05  0.122367  0.092202  4e-06  0.987173  0.0
H  H39  1  0.51698159  0.04803242  0.21396394  1  0.006619  -3.2e-05  0.08863  0.080652  -1.7e-05  1.022944  0.0
H  H40  1  0.95176079  0.46877173  0.88073152  1  -0.000178  2.8e-05  0.088568  0.080261  1.5e-05  1.022915  0.0
H  H41  1  0.53115881  0.48305066  0.54759352  1  0.00032  3.7e-05  0.088508  0.080419  1.9e-05  1.022724  0.0
H  H42  1  0.04804506  0.51698694  0.78603673  1  0.006541  3.7e-05  0.088681  0.080712  1.9e-05  1.02294  0.0
H  H43  1  0.46876543  0.95175206  0.11926702  1  -0.000247  -3.2e-05  0.088584  0.080222  -1.7e-05  1.022938  0.0
H  H44  1  0.48306333  0.53115692  0.45240662  1  -0.000108  2.8e-05  0.088509  0.080374  1.4e-05  1.022727  0.0
H  H45  1  0.41953574  0.91699659  0.26149043  1  0.061775  2.6e-05  0.088875  0.098687  2.5e-05  1.006092  0.0
H  H46  1  0.08279942  0.50243940  0.92821119  1  0.050286  3.1e-05  0.088743  0.097865  2.7e-05  1.006474  0.0
H  H47  1  0.49744802  0.58042073  0.59505364  1  0.053051  -2.7e-05  0.088848  0.09865  -2.6e-05  1.006548  0.0
H  H48  1  0.91700703  0.41953607  0.73850891  1  0.061894  -2.6e-05  0.088847  0.098626  -2.6e-05  1.005988  0.0
H  H49  1  0.50243416  0.08279863  0.07179100  1  0.050124  2.6e-05  0.088705  0.097754  2.5e-05  1.006371  0.0
H  H50  1  0.58043010  0.49744609  0.40494466  1  0.052583  3.2e-05  0.088829  0.098604  2.8e-05  1.006503  0.0
H  H51  1  0.59251402  0.98233911  0.34348088  1  0.005589  -4e-06  0.08824  0.051515  -3e-06  0.964173  0.0
H  H52  1  0.01764635  0.61026251  0.01019226  1  0.013717  -4e-06  0.088285  0.051772  -5e-06  0.964002  0.0
H  H53  1  0.38962025  0.40747413  0.67704702  1  0.013156  4e-06  0.088328  0.05176  2e-06  0.964276  0.0
H  H54  1  0.98234538  0.59251330  0.65651797  1  0.005598  4e-06  0.088269  0.051482  2e-06  0.964225  0.0
H  H55  1  0.61025934  0.01764827  0.98980658  1  0.013712  -4e-06  0.088268  0.051784  -3e-06  0.964052  0.0
H  H56  1  0.40747848  0.38962046  0.32295118  1  0.013436  -4e-06  0.088347  0.051736  -5e-06  0.964265  0.0
H  H57  1  0.80366847  0.12948605  0.30646643  1  0.010027  1.1e-05  0.081874  0.111918  5e-06  1.007238  0.0
H  H58  1  0.87052158  0.67422714  0.97320586  1  -0.002114  -4e-06  0.081819  0.112026  -7e-06  1.006954  0.0
H  H59  1  0.32562742  0.19632931  0.64009989  1  0.002703  -1e-06  0.081839  0.112331  1e-06  1.006542  0.0
H  H60  1  0.12949416  0.80366798  0.69353108  1  0.0102  -1e-06  0.081863  0.111891  1e-06  1.007223  0.0
H  H61  1  0.67423112  0.87053425  0.02679244  1  -0.002107  1.1e-05  0.081844  0.112104  5e-06  1.007032  0.0
H  H62  1  0.19633501  0.32563702  0.35990217  1  0.002718  -4e-06  0.081843  0.112358  -7e-06  1.006518  0.0
H  H63  1  0.71486666  0.20225139  0.30981552  1  0.047435  4.6e-05  0.084168  0.116955  2.7e-05  1.052916  0.0
H  H64  1  0.79763336  0.51258168  0.97657851  1  0.017806  5.6e-05  0.084218  0.117034  3.4e-05  1.052857  0.0
H  H65  1  0.48728065  0.28507890  0.64344244  1  0.013367  -4.7e-05  0.084101  0.117077  -2.7e-05  1.052635  0.0
H  H66  1  0.20225715  0.71486664  0.69019230  1  0.047137  -4.6e-05  0.084169  0.117  -2.8e-05  1.05286  0.0
H  H67  1  0.51257921  0.79763186  0.02341684  1  0.017861  4.7e-05  0.084194  0.117012  2.7e-05  1.052865  0.0
H  H68  1  0.28508411  0.48728461  0.35655620  1  0.013679  5.6e-05  0.08412  0.117107  3.4e-05  1.052622  0.0
H  H69  1  0.74653271  0.15806931  0.23266540  1  0.016086  3e-06  0.081196  0.112651  -1e-06  1.021453  0.0
H  H70  1  0.84181584  0.58843028  0.89941313  1  0.014863  -3e-06  0.081385  0.112846  -5e-06  1.021089  0.0
H  H71  1  0.41143698  0.25338933  0.56630713  1  0.009115  4e-06  0.081332  0.112946  5e-06  1.021373  0.0
H  H72  1  0.15807216  0.74653898  0.76733599  1  0.016004  4e-06  0.081174  0.112643  5e-06  1.021486  0.0
H  H73  1  0.58843420  0.84182276  0.10058295  1  0.01485  3e-06  0.081353  0.112866  -1e-06  1.021126  0.0
H  H74  1  0.25339858  0.41144562  0.43369228  1  0.009169  -3e-06  0.081343  0.112957  -5e-06  1.021395  0.0
H  H75  1  0.63918919  0.92721152  0.20265602  1  -0.010334  8e-06  0.076936  0.101477  5e-06  1.050041  0.0
H  H76  1  0.07252551  0.71154390  0.86925402  1  -0.000464  4e-06  0.077158  0.10202  4e-06  1.0501  0.0
H  H77  1  0.28837460  0.36091814  0.53608533  1  -0.020882  -5e-06  0.076997  0.10136  -4e-06  1.050334  0.0
H  H78  1  0.92721105  0.63918998  0.79734134  1  -0.010257  -5e-06  0.076895  0.101417  -4e-06  1.050115  0.0
H  H79  1  0.71154368  0.07252488  0.13074514  1  -0.000398  7e-06  0.077179  0.102044  5e-06  1.050099  0.0
H  H80  1  0.36092387  0.28837891  0.46391207  1  -0.020514  4e-06  0.076975  0.101358  4e-06  1.050356  0.0
H  H81  1  0.53759304  0.81849539  0.26021741  1  0.04806  1e-06  0.08473  0.128334  -3e-06  1.037636  0.0
H  H82  1  0.18134814  0.71879988  0.92676046  1  0.043172  5e-06  0.084883  0.128903  1e-06  1.037119  0.0
H  H83  1  0.28109350  0.46250578  0.59358828  1  0.047187  -4e-06  0.084589  0.12824  -1e-06  1.037629  0.0
H  H84  1  0.81849623  0.53759276  0.73977902  1  0.048312  -4e-06  0.084716  0.128324  -1e-06  1.037614  0.0
H  H85  1  0.71879734  0.18134997  0.07323649  1  0.043111  1e-06  0.084861  0.128902  -3e-06  1.037055  0.0
H  H86  1  0.46250856  0.28109521  0.40641178  1  0.047182  5e-06  0.084573  0.12825  1e-06  1.037595  0.0
H  H87  1  0.69757243  0.89880075  0.27590810  1  0.02601  1.4e-05  0.079834  0.115601  6e-06  1.025765  0.0
H  H88  1  0.10127063  0.79865182  0.94240776  1  0.027977  6e-06  0.079789  0.115871  2e-06  1.025917  0.0
H  H89  1  0.20124756  0.30252047  0.60923903  1  0.024378  -5e-06  0.079778  0.115696  -2e-06  1.025844  0.0
H  H90  1  0.89880335  0.69757337  0.72408834  1  0.026066  -5e-06  0.079827  0.115591  -2e-06  1.025745  0.0
H  H91  1  0.79865172  0.10126943  0.05759017  1  0.027994  1.4e-05  0.07979  0.115886  6e-06  1.025925  0.0
H  H92  1  0.30251982  0.20125093  0.39075757  1  0.024371  6e-06  0.079783  0.115704  2e-06  1.025899  0.0
H  H93  1  0.35935583  0.94049787  0.37385714  1  0.503228  1e-05  0.270961  0.258473  2.8e-05  1.028088  0.0
H  H94  1  0.05950106  0.41891732  0.04056056  1  0.500274  -1.1e-05  0.270797  0.258697  1.2e-05  1.028899  0.0
H  H95  1  0.58105660  0.64069765  0.70745764  1  0.502086  -1e-05  0.271064  0.258893  -2.6e-05  1.027474  0.0
H  H96  1  0.94051046  0.35936583  0.62614459  1  0.503035  -1e-05  0.270992  0.258465  -2.6e-05  1.02811  0.0
H  H97  1  0.41891082  0.05950146  0.95943598  1  0.500245  1e-05  0.270799  0.258667  2.7e-05  1.028937  0.0
H  H98  1  0.64071704  0.58105926  0.29254638  1  0.501836  -1.1e-05  0.270998  0.258824  1.2e-05  1.027525  0.0
H  H99  1  0.26014619  0.89922757  0.45929951  1  0.108735  -0.000181  0.100955  0.096829  -0.000105  1.066453  0.0
H  H100  1  0.10072303  0.36091342  0.12597762  1  0.108381  0.00021  0.100911  0.096799  9.7e-05  1.065898  0.0
H  H101  1  0.63912756  0.73995125  0.79285648  1  0.095146  0.000181  0.101052  0.096817  9.9e-05  1.066132  0.0
H  H102  1  0.89922826  0.26015789  0.54070044  1  0.108846  0.000182  0.100983  0.096864  0.0001  1.066518  0.0
H  H103  1  0.36091390  0.10072868  0.87402579  1  0.108338  -0.000181  0.100953  0.096834  -0.000105  1.065855  0.0
H  H104  1  0.73996346  0.63912848  0.20714196  1  0.095096  0.000209  0.101029  0.096703  9.6e-05  1.066187  0.0
H  H105  1  0.20006555  0.78819043  0.56713356  1  0.116899  -0.001215  0.110545  0.121085  -0.00066  1.003402  -0.001
H  H106  1  0.21177015  0.41182150  0.23379817  1  0.094537  0.001237  0.110706  0.121588  0.000636  1.003334  0.001
H  H107  1  0.58825411  0.80013119  0.90067753  1  0.104104  0.001235  0.110716  0.121426  0.00064  1.003596  0.001
H  H108  1  0.78819453  0.20008806  0.43286702  1  0.117254  0.001216  0.110528  0.121143  0.000637  1.003524  0.001
H  H109  1  0.41182317  0.21177603  0.76620016  1  0.094705  -0.001234  0.110673  0.121588  -0.00066  1.003366  -0.001
H  H110  1  0.80013991  0.58825513  0.09932389  1  0.103897  0.001237  0.110701  0.121452  0.000638  1.00374  0.001
H  H111  1  0.36245550  0.84059318  0.65229007  1  0.149389  -0.002561  0.109561  0.090037  -0.001329  1.050244  -0.002
H  H112  1  0.15949130  0.52193456  0.31896897  1  0.15681  0.002562  0.109493  0.089711  0.001279  1.050999  0.002
H  H113  1  0.47795230  0.63766342  0.98582410  1  0.13498  0.002579  0.109659  0.09076  0.001275  1.050053  0.002
H  H114  1  0.84059635  0.36245938  0.34770554  1  0.149295  0.002559  0.10959  0.090012  0.001276  1.050371  0.002
H  H115  1  0.52192816  0.15947326  0.68103293  1  0.156557  -0.002563  0.109486  0.089681  -0.001331  1.050969  -0.002
H  H116  1  0.63767237  0.47794881  0.01417576  1  0.134991  0.002581  0.109673  0.090715  0.001276  1.050083  0.002
H  H117  1  0.62377997  0.11883774  0.53741845  1  0.146371  -0.002635  0.11099  0.098041  -0.001325  1.031241  -0.002
H  H118  1  0.88135221  0.50515949  0.20409957  1  0.139269  0.002681  0.11124  0.097837  0.001309  1.031398  0.002
H  H119  1  0.49477738  0.37630854  0.87092545  1  0.139589  0.002659  0.111206  0.09783  0.00128  1.031917  0.002
H  H120  1  0.11885885  0.62379635  0.46258752  1  0.146089  0.002636  0.111008  0.098103  0.001275  1.0311  0.002
H  H121  1  0.50514346  0.88135493  0.79589642  1  0.139276  -0.002645  0.111278  0.097924  -0.001325  1.03148  -0.002
H  H122  1  0.37630944  0.49476823  0.12907783  1  0.139744  0.002694  0.111194  0.097835  0.001314  1.031758  0.002
C  C123  1  0.16796152  0.21526868  0.08346009  1  0.435392  9.5e-05  0.041189  0.066708  0.000661  3.920834  0.0
C  C124  1  0.78442774  0.95243096  0.75009515  1  0.429951  -0.000142  0.041555  0.066955  -0.000809  3.920721  0.0
C  C125  1  0.04727657  0.83191035  0.41675298  1  0.441114  3.8e-05  0.041622  0.067744  0.000634  3.919991  0.0
C  C126  1  0.21527006  0.16796490  0.91654020  1  0.435156  0.000111  0.041198  0.066715  0.000664  3.92076  0.0
C  C127  1  0.95242882  0.78443404  0.24990700  1  0.429908  0.000128  0.041612  0.067284  0.000646  3.920689  0.0
C  C128  1  0.83191314  0.04728020  0.58324835  1  0.442235  -3.3e-05  0.041616  0.067765  -0.000792  3.920019  0.0
C  C129  1  0.11374857  0.15717859  0.14237625  1  -0.044775  0.004719  -0.07979  -0.105358  0.003288  3.99751  0.004
C  C130  1  0.84268625  0.95634563  0.80894351  1  3.6e-05  -0.004621  -0.07907  -0.104673  -0.003399  3.997067  -0.004
C  C131  1  0.04350694  0.88640239  0.47559559  1  0.025709  0.004668  -0.079798  -0.105594  0.003276  3.99755  0.004
C  C132  1  0.15718217  0.11374845  0.85762133  1  -0.044681  0.004702  -0.079814  -0.105492  0.003273  3.997465  0.004
C  C133  1  0.95634751  0.84270531  0.19106272  1  -0.000518  0.004641  -0.079194  -0.105051  0.00329  3.997092  0.004
C  C134  1  0.88640076  0.04352589  0.52439944  1  0.026098  -0.004669  -0.079788  -0.105605  -0.003403  3.997396  -0.004
C  C135  1  0.18148689  0.13836483  0.19020401  1  0.031283  -0.001664  -0.072157  -0.133248  -0.001212  3.923319  -0.001
C  C136  1  0.86168001  0.04292898  0.85681244  1  0.007355  0.001735  -0.072508  -0.133222  0.001211  3.923421  0.001
C  C137  1  0.95702406  0.81889755  0.52353496  1  -0.055034  -0.001775  -0.072153  -0.133299  -0.001281  3.924485  -0.001
C  C138  1  0.13836649  0.18148455  0.80979319  1  0.031378  -0.001722  -0.072188  -0.133082  -0.001248  3.923217  -0.001
C  C139  1  0.04292355  0.86169168  0.14319191  1  0.007947  -0.001679  -0.072494  -0.133053  -0.001223  3.923328  -0.001
C  C140  1  0.81889718  0.95702460  0.47646630  1  -0.05568  0.001772  -0.072226  -0.133383  0.001232  3.92447  0.001
C  C141  1  0.30326044  0.17375959  0.17594769  1  0.380886  0.00446  0.103778  0.211313  0.003122  4.02051  0.004
C  C142  1  0.82622117  0.12930160  0.84268348  1  0.387705  -0.004522  0.103835  0.211342  -0.003273  4.019911  -0.004
C  C143  1  0.87050763  0.69706767  0.50942610  1  0.408164  0.004582  0.104178  0.211436  0.00316  4.021009  0.004
C  C144  1  0.17377093  0.30326137  0.82405082  1  0.380808  0.004496  0.103884  0.211264  0.003149  4.020394  0.004
C  C145  1  0.12929815  0.82623178  0.15731999  1  0.387098  0.004487  0.103828  0.21123  0.003126  4.020136  0.004
C  C146  1  0.69706891  0.87050465  0.49057521  1  0.407862  -0.004578  0.104181  0.211483  -0.003279  4.020899  -0.004
C  C147  1  0.35100059  0.22936511  0.11499583  1  0.465861  5.1e-05  0.043616  -0.01402  0.000858  3.90632  0.0
C  C148  1  0.77059083  0.12148887  0.78174610  1  0.479521  -4.5e-05  0.043212  -0.014769  -0.001046  3.90612  0.0
C  C149  1  0.87832289  0.64901307  0.44856003  1  0.493007  -9e-05  0.043386  -0.014495  0.000854  3.905602  0.0
C  C150  1  0.22936693  0.35100139  0.88500389  1  0.465508  5.5e-05  0.04356  -0.014078  0.000861  3.906441  0.0
C  C151  1  0.12148204  0.77059115  0.21825329  1  0.479974  3.8e-05  0.043293  -0.014543  0.000864  3.906014  0.0
C  C152  1  0.64902270  0.87832124  0.55144217  1  0.493287  8.7e-05  0.043377  -0.014492  -0.001033  3.905578  0.0
C  C153  1  0.35041453  0.08990499  0.27592964  1  1.395689  0.000228  0.253439  0.487353  0.00021  4.029605  0.0
C  C154  1  0.91005335  0.26039826  0.94272096  1  1.394201  -0.000263  0.252868  0.485717  -0.000252  4.030817  0.0
C  C155  1  0.73949155  0.65005439  0.60946876  1  1.397155  0.00028  0.253236  0.486116  0.000252  4.02953  0.0
C  C156  1  0.08990953  0.35042256  0.72407126  1  1.396844  0.000278  0.253464  0.487339  0.00025  4.029432  0.0
C  C157  1  0.26038923  0.91005253  0.05727951  1  1.393327  0.000227  0.252823  0.485727  0.000211  4.030689  0.0
C  C158  1  0.65005684  0.73948995  0.39053266  1  1.397245  -0.000265  0.253201  0.486062  -0.000253  4.029461  0.0
C  C159  1  0.45841171  0.08575307  0.30764795  1  0.327532  6.4e-05  0.017622  0.017425  2.6e-05  3.871658  0.0
C  C160  1  0.91415111  0.37255544  0.97443985  1  0.336493  -6.3e-05  0.0178  0.017913  -3.8e-05  3.872833  0.0
C  C161  1  0.62748726  0.54186155  0.64125905  1  0.328282  0.000437  0.017646  0.017174  0.000325  3.870941  0.0
C  C162  1  0.08576484  0.45842087  0.69235366  1  0.327126  0.000438  0.017551  0.017228  0.000325  3.871853  0.0
C  C163  1  0.37254911  0.91415046  0.02556086  1  0.336336  6.4e-05  0.017772  0.017786  2.6e-05  3.87269  0.0
C  C164  1  0.54187304  0.62748234  0.35874191  1  0.327943  -6.2e-05  0.017617  0.017082  -3.8e-05  3.870928  0.0
C  C165  1  0.49748881  0.01066722  0.26433903  1  -0.045572  -2.7e-05  -0.161775  -0.232753  -2.3e-05  3.868321  0.0
C  C166  1  0.98912568  0.48669304  0.93110909  1  -0.016871  2e-05  -0.161713  -0.23111  1.5e-05  3.86871  0.0
C  C167  1  0.51324486  0.50253482  0.59797042  1  -0.027287  6.4e-05  -0.161734  -0.232274  4.8e-05  3.868484  0.0
C  C168  1  0.01067639  0.49749468  0.73566202  1  -0.045217  6.4e-05  -0.161789  -0.232729  4.7e-05  3.868179  0.0
C  C169  1  0.48668662  0.98912198  0.06889104  1  -0.016823  -2.7e-05  -0.161695  -0.230857  -2.3e-05  3.868339  0.0
C  C170  1  0.50254312  0.51324223  0.40202972  1  -0.026863  2e-05  -0.161716  -0.232184  1.4e-05  3.868282  0.0
C  C171  1  0.60908304  0.00692223  0.29079393  1  0.046526  2.3e-05  -0.093535  0.141569  1.3e-05  3.861415  0.0
C  C172  1  0.99291690  0.60209453  0.95752111  1  0.033037  -1.3e-05  -0.093765  0.140096  -1.4e-05  3.863551  0.0
C  C173  1  0.39781247  0.39088183  0.62438217  1  0.025295  1.1e-05  -0.093885  0.140111  9e-06  3.863779  0.0
C  C174  1  0.00692340  0.60908481  0.70920538  1  0.04631  1e-05  -0.093549  0.141615  9e-06  3.861294  0.0
C  C175  1  0.60209258  0.99291968  0.04247681  1  0.033172  2.3e-05  -0.093744  0.139997  1.3e-05  3.863698  0.0
C  C176  1  0.39088635  0.39781473  0.37561651  1  0.024684  -1.3e-05  -0.093876  0.140207  -1.4e-05  3.86365  0.0
C  C177  1  0.72499337  0.13114242  0.28469282  1  -0.077156  7.8e-05  -0.250753  -0.402872  5.9e-05  3.924056  0.0
C  C178  1  0.86872928  0.59381824  0.95143625  1  -0.032245  8e-05  -0.250538  -0.402527  5.5e-05  3.923385  0.0
C  C179  1  0.40604855  0.27495051  0.61833109  1  -0.025759  -7e-05  -0.250457  -0.403044  -5.2e-05  3.924571  0.0
C  C180  1  0.13114570  0.72499489  0.71531044  1  -0.077027  -7.1e-05  -0.250719  -0.402854  -5.2e-05  3.923936  0.0
C  C181  1  0.59381871  0.86873345  0.04855942  1  -0.032197  7.7e-05  -0.250507  -0.402606  6e-05  3.923627  0.0
C  C182  1  0.27495668  0.40605493  0.38166835  1  -0.026081  7.8e-05  -0.250513  -0.403155  5.4e-05  3.924604  0.0
C  C183  1  0.62159650  0.90707223  0.25558530  1  -0.061042  1.3e-05  -0.255668  -0.407003  1.1e-05  3.914912  0.0
C  C184  1  0.09279483  0.71425378  0.92217115  1  -0.068218  1.1e-05  -0.255933  -0.408095  9e-06  3.915743  0.0
C  C185  1  0.28562554  0.37848639  0.58900318  1  -0.042889  -8e-06  -0.25541  -0.406405  -7e-06  3.915103  0.0
C  C186  1  0.90707310  0.62159795  0.74441247  1  -0.061396  -8e-06  -0.255603  -0.406917  -7e-06  3.91494  0.0
C  C187  1  0.71425596  0.09279829  0.07782658  1  -0.068331  1.3e-05  -0.255924  -0.408112  1.1e-05  3.915708  0.0
C  C188  1  0.37848773  0.28562719  0.41099474  1  -0.042535  1e-05  -0.255383  -0.406466  9e-06  3.91507  0.0
C  C189  1  0.49290977  0.08789450  0.42643006  1  1.417332  -0.00117  0.234732  0.463958  -0.000851  4.171239  -0.001
C  C190  1  0.91214098  0.40502617  0.09320076  1  1.390926  0.001175  0.234788  0.463784  0.000813  4.171168  0.001
C  C191  1  0.59502014  0.50725033  0.76000980  1  1.389389  0.001211  0.235101  0.463836  0.000844  4.170479  0.001
C  C192  1  0.08790608  0.49292399  0.57356916  1  1.416858  0.001199  0.234858  0.464017  0.000844  4.170979  0.001
C  C193  1  0.40502135  0.91214349  0.90680100  1  1.390902  -0.001188  0.234885  0.463922  -0.00085  4.171017  -0.001
C  C194  1  0.50726216  0.59501871  0.23999151  1  1.390604  0.001167  0.235086  0.463929  0.000813  4.170587  0.001
C  C195  1  0.44739491  0.01683717  0.48925321  1  0.016695  -0.006682  -0.009046  -0.059007  -0.004838  3.957941  -0.005
C  C196  1  0.98322554  0.43061726  0.15597960  1  -0.025171  0.006652  -0.009074  -0.059348  0.004635  3.961004  0.005
C  C197  1  0.56934471  0.55272317  0.82280919  1  0.017241  0.006716  -0.009086  -0.059746  0.004672  3.960281  0.005
C  C198  1  0.01684797  0.44740815  0.51074528  1  0.016522  0.006689  -0.009056  -0.059055  0.004661  3.957932  0.005
C  C199  1  0.43062036  0.98323538  0.84402384  1  -0.025139  -0.006673  -0.009116  -0.059377  -0.004837  3.961112  -0.005
C  C200  1  0.55273065  0.56933971  0.17719414  1  0.016317  0.006691  -0.00921  -0.05997  0.004647  3.960225  0.005
C  C201  1  0.32661287  0.92406439  0.49861081  1  -0.047564  0.003612  -0.064248  -0.052727  0.002449  3.93648  0.002
C  C202  1  0.07590534  0.40252411  0.16531782  1  -0.002317  -0.003657  -0.064217  -0.052482  -0.002557  3.937589  -0.002
C  C203  1  0.59745824  0.67351423  0.83217546  1  -0.032491  -0.003635  -0.064784  -0.052908  -0.002557  3.93663  -0.002
C  C204  1  0.92407092  0.32662348  0.50139032  1  -0.047411  -0.003603  -0.064256  -0.052738  -0.002534  3.936654  -0.002
C  C205  1  0.40251748  0.07590743  0.83468365  1  -0.002561  0.003616  -0.064213  -0.052421  0.002456  3.937475  0.002
C  C206  1  0.67352332  0.59745943  0.16782621  1  -0.031654  -0.003684  -0.064763  -0.052638  -0.002572  3.936332  -0.002
C  C207  1  0.29250492  0.86199459  0.55829324  1  -0.024086  -0.005876  -0.079073  -0.10373  -0.004187  3.948594  -0.005
C  C208  1  0.13801123  0.43051829  0.22497792  1  0.018789  0.005847  -0.078999  -0.104783  0.004053  3.950865  0.005
C  C209  1  0.56951366  0.70765522  0.89186080  1  -0.01214  0.00588  -0.078841  -0.104363  0.004049  3.95036  0.005
C  C210  1  0.86200172  0.29252582  0.44170769  1  -0.024837  0.005876  -0.079027  -0.103783  0.004032  3.948832  0.005
C  C211  1  0.43050605  0.13800444  0.77502030  1  0.01863  -0.005833  -0.079071  -0.10496  -0.004191  3.950785  -0.005
C  C212  1  0.70766889  0.56952122  0.10813842  1  -0.008516  0.005883  -0.078718  -0.104389  0.004066  3.950371  0.005
C  C213  1  0.38101589  0.89102753  0.60632221  1  0.443502  0.001155  0.048893  0.09306  6.9e-05  3.905539  0.001
C  C214  1  0.10909075  0.49011701  0.27298884  1  0.4414  -0.001132  0.048404  0.093615  -0.000233  3.905976  -0.001
C  C215  1  0.50986369  0.61914140  0.93986270  1  0.45593  -0.001165  0.048654  0.093186  -0.000235  3.906318  -0.001
C  C216  1  0.89102912  0.38103236  0.39367453  1  0.443859  -0.001155  0.048675  0.092895  -0.000241  3.905283  -0.001
C  C217  1  0.49009806  0.10907706  0.72700993  1  0.441696  0.001142  0.048505  0.093806  6.4e-05  3.905905  0.001
C  C218  1  0.61915064  0.50985678  0.06013965  1  0.454415  -0.001153  0.048603  0.093178  -0.000229  3.906158  -0.001
C  C219  1  0.52983727  0.04423394  0.54089406  1  0.456798  -6.2e-05  0.051203  0.070003  -0.001184  3.891773  0.0
C  C220  1  0.95592686  0.48579224  0.20758407  1  0.483611  3.2e-05  0.050894  0.070382  0.001007  3.892102  0.0
C  C221  1  0.51415531  0.47025875  0.87441593  1  0.497169  -8.3e-05  0.051228  0.070508  0.000958  3.893437  0.0
C  C222  1  0.04424641  0.52985151  0.45910613  1  0.456819  7.2e-05  0.05121  0.07  0.000999  3.891586  0.0
C  C223  1  0.48578637  0.95593030  0.79241648  1  0.483912  4e-06  0.050816  0.070123  -0.001174  3.892287  0.0
C  C224  1  0.47026324  0.51414543  0.12558513  1  0.467026  3.2e-05  0.051276  0.070469  0.000978  3.893256  0.0
N  N225  1  0.28599996  0.25271794  0.07136863  1  -1.222688  0.086719  -0.341977  -0.193863  0.059195  3.654993  0.074
N  N226  1  0.74709029  0.03310284  0.73807143  1  -1.20976  -0.086712  -0.34181  -0.193547  -0.061484  3.653722  -0.074
N  N227  1  0.96665959  0.71380188  0.40483386  1  -1.211136  0.086866  -0.341789  -0.193816  0.059156  3.653528  0.074
N  N228  1  0.25271805  0.28600023  0.92863248  1  -1.222764  0.086755  -0.341949  -0.193765  0.059217  3.654891  0.074
N  N229  1  0.03308552  0.74707714  0.26192625  1  -1.209806  0.086678  -0.341838  -0.193654  0.059167  3.653799  0.074
N  N230  1  0.71381439  0.96665079  0.59516966  1  -1.211964  -0.08686  -0.341841  -0.19383  -0.061445  3.653477  -0.074
N  N231  1  0.38103632  0.15858513  0.21899768  1  -1.215557  0.001031  -0.394618  -0.380734  0.00057  3.56635  0.001
N  N232  1  0.84145135  0.22228554  0.88575385  1  -1.269183  -0.001029  -0.394364  -0.380636  -0.00059  3.567095  -0.001
N  N233  1  0.77756170  0.61940790  0.55253883  1  -1.267136  0.001046  -0.394814  -0.38012  0.000581  3.566428  0.001
N  N234  1  0.15859638  0.38103951  0.78100146  1  -1.215897  0.001038  -0.394628  -0.380659  0.00058  3.566244  0.001
N  N235  1  0.22226508  0.84144157  0.11424295  1  -1.257035  0.001041  -0.394346  -0.380555  0.00057  3.567185  0.001
N  N236  1  0.61941451  0.77754324  0.44746901  1  -1.266936  -0.001028  -0.394847  -0.380123  -0.000591  3.566324  -0.001
N  N237  1  0.42380976  0.03276021  0.37259419  1  -1.254073  -0.000612  -0.419495  -0.374184  -0.000405  3.582812  0.0
N  N238  1  0.96723179  0.39107812  0.03934542  1  -1.248756  0.000758  -0.419243  -0.374021  0.000478  3.582651  0.001
N  N239  1  0.60901485  0.57637076  0.70619675  1  -1.231577  0.000749  -0.420049  -0.374264  0.000473  3.58224  0.001
N  N240  1  0.03277119  0.42382594  0.62740478  1  -1.253411  0.00075  -0.419583  -0.374209  0.000471  3.582935  0.001
N  N241  1  0.39107041  0.96723389  0.96065347  1  -1.248789  -0.000616  -0.419279  -0.374038  -0.000407  3.582759  0.0
N  N242  1  0.57639067  0.60902009  0.29380375  1  -1.23123  0.000757  -0.4199  -0.374099  0.00048  3.582161  0.001
N  N243  1  0.49711880  0.98041394  0.59740312  1  -1.214697  -0.099616  -0.346661  -0.219392  -0.070345  3.642307  -0.085
N  N244  1  0.01975842  0.51688123  0.26408768  1  -1.24737  0.099705  -0.346176  -0.219155  0.06772  3.640713  0.086
N  N245  1  0.48302682  0.50300939  0.93089967  1  -1.241293  0.099872  -0.346976  -0.219758  0.067885  3.643422  0.086
N  N246  1  0.98042235  0.49713447  0.40259553  1  -1.214266  0.099633  -0.346546  -0.21917  0.06774  3.642112  0.085
N  N247  1  0.51685949  0.01974506  0.73590800  1  -1.247412  -0.099711  -0.346158  -0.219153  -0.070342  3.640628  -0.086
N  N248  1  0.50301883  0.48302461  0.06910090  1  -1.214021  0.099782  -0.346968  -0.219733  0.067874  3.643386  0.086
Cl  Cl249  1  0.50860193  0.25405234  0.97258277  1  -0.746227  -4.8e-05  -0.380621  -0.632601  -0.000216  0.915808  0.0
Cl  Cl250  1  0.74589917  0.25451679  0.63930614  1  -0.746655  -2.3e-05  -0.380824  -0.632662  0.000112  0.915396  -0.001
Cl  Cl251  1  0.74550993  0.49134928  0.30594588  1  -0.746065  -0.000256  -0.38079  -0.632442  -0.000378  0.915279  0.0
Cl  Cl252  1  0.25405580  0.50860146  0.02741290  1  -0.746209  -0.00035  -0.380631  -0.63263  -0.000437  0.915814  0.0
Cl  Cl253  1  0.25452045  0.74590112  0.36069348  1  -0.746706  2.3e-05  -0.380807  -0.632655  -0.000174  0.915506  0.001
Cl  Cl254  1  0.49136019  0.74550951  0.69405818  1  -0.746047  -4.3e-05  -0.380789  -0.632475  9.6e-05  0.915279  -0.001
O  O255  1  0.24594542  0.03473272  0.29826391  1  -1.144418  0.000577  -0.278014  -0.458077  0.000372  2.153669  0.0
O  O256  1  0.96520659  0.21112824  0.96506218  1  -1.141121  -6.2e-05  -0.277844  -0.457388  -3.4e-05  2.153349  0.0
O  O257  1  0.78870869  0.75457083  0.63171058  1  -1.145368  5.8e-05  -0.277472  -0.456959  2.2e-05  2.154104  0.0
O  O258  1  0.03473031  0.24595293  0.70173617  1  -1.144541  6.3e-05  -0.278027  -0.458039  2.6e-05  2.153524  0.0
O  O259  1  0.21112720  0.96521280  0.03493978  1  -1.140383  0.000579  -0.277797  -0.457365  0.000373  2.153267  0.0
O  O260  1  0.75457687  0.78872615  0.36828673  1  -1.145518  -5.8e-05  -0.277519  -0.457023  -3.1e-05  2.153872  0.0
O  O261  1  0.58720464  0.18976654  0.42576653  1  -1.147239  -0.001175  -0.30748  -0.506501  -0.000755  2.14322  -0.001
O  O262  1  0.81021424  0.39732561  0.09259765  1  -1.142575  0.00137  -0.307722  -0.506591  0.000841  2.14195  0.001
O  O263  1  0.60269559  0.41301629  0.75935533  1  -1.143407  0.001233  -0.307335  -0.505918  0.000761  2.141709  0.001
O  O264  1  0.18977800  0.58721755  0.57423213  1  -1.147036  0.001236  -0.307503  -0.506456  0.000764  2.142934  0.001
O  O265  1  0.39732347  0.81021736  0.90740388  1  -1.142523  -0.001177  -0.307726  -0.506605  -0.000757  2.141748  -0.001
O  O266  1  0.41303330  0.60269348  0.24064629  1  -1.143608  0.001366  -0.307325  -0.505906  0.000836  2.141909  0.001
