# generated using pymatgen
data_SmCuH13C15N2O13
_symmetry_space_group_name_H-M   'P 1'
_cell_length_a   8.10618365
_cell_length_b   10.96676753
_cell_length_c   11.80323199
_cell_angle_alpha   101.05547560
_cell_angle_beta   106.48786590
_cell_angle_gamma   102.64036564
_symmetry_Int_Tables_number   1
_chemical_formula_structural   SmCuH13C15N2O13
_chemical_formula_sum   'Sm2 Cu2 H26 C30 N4 O26'
_cell_volume   944.92903564
_cell_formula_units_Z   2
loop_
 _symmetry_equiv_pos_site_id
 _symmetry_equiv_pos_as_xyz
  1  'x, y, z'
loop_
 _atom_site_type_symbol
 _atom_site_label
 _atom_site_symmetry_multiplicity
 _atom_site_fract_x
 _atom_site_fract_y
 _atom_site_fract_z
 _atom_site_occupancy
 _atom_site_hle17_ddec_charge
 _atom_site_hle17_ddec_spin_density
 _atom_site_hle17_ddec_sum_bond_order
 _atom_site_hle17_magmom
 _atom_site_hse06_10hf_ddec_charge
 _atom_site_hse06_10hf_ddec_spin_density
 _atom_site_hse06_10hf_ddec_sum_bond_order
 _atom_site_hse06_10hf_magmom
 _atom_site_hse06_ddec_charge
 _atom_site_hse06_ddec_spin_density
 _atom_site_hse06_ddec_sum_bond_order
 _atom_site_hse06_magmom
 _atom_site_pbe_cm5_charge
 _atom_site_pbe_ddec_charge
 _atom_site_pbe_ddec_spin_density
 _atom_site_pbe_ddec_sum_bond_order
 _atom_site_pbe_magmom
Sm  Sm0  1  0.98608369  0.66250161  0.42135938  1  2.31465  -4e-05  1.552415  0.0  2.232364  -0.000167  1.882635  0.0  2.272699  -4.5e-05  1.843836  0.0  1.47234  2.134163  -0.000367  2.037627  0.0
Sm  Sm1  1  0.01391340  0.33749754  0.57863893  1  2.314588  -3.9e-05  1.552501  0.0  2.232285  -0.000166  1.882734  0.0  2.272621  -4.2e-05  1.843934  0.0  1.472368  2.134063  -0.000366  2.037752  0.0
Cu  Cu2  1  0.96466295  0.76964599  0.94414634  1  0.82461  -0.692685  1.895375  -0.513  0.793594  -0.775092  2.302193  -0.622  0.880685  -0.839428  2.235093  -0.706  0.75249  0.740777  -0.729085  2.348692  -0.567
Cu  Cu3  1  0.03533171  0.23035026  0.05585439  1  0.824491  -0.692682  1.895664  -0.513  0.793522  -0.775079  2.302418  -0.622  0.880583  -0.839411  2.235349  -0.706  0.752512  0.740798  -0.729064  2.348797  -0.567
H  H4  1  0.17333276  0.88742430  0.64830026  1  0.428853  0.000156  0.874528  0.0  0.401709  6.9e-05  0.932642  0.0  0.412163  5.6e-05  0.917405  0.0  0.298261  0.394373  6.7e-05  0.943071  0.0
H  H5  1  0.82667244  0.11257591  0.35170323  1  0.428831  0.000155  0.874583  0.0  0.40164  6.9e-05  0.932749  0.0  0.412093  5.5e-05  0.917514  0.0  0.298233  0.394301  6.7e-05  0.94318  0.0
H  H6  1  0.24560011  0.91347124  0.54201391  1  0.411744  5e-06  0.907268  0.0  0.379809  6e-06  0.974151  0.0  0.391568  7e-06  0.957046  0.0  0.290088  0.371834  0.0  0.985381  0.0
H  H7  1  0.75440547  0.08652994  0.45798982  1  0.411746  5e-06  0.907289  0.0  0.3798  5e-06  0.974195  0.0  0.391563  7e-06  0.957085  0.0  0.290059  0.371823  0.0  0.985427  0.0
H  H8  1  0.60470979  0.32246764  0.34962356  1  0.02782  -6e-06  0.897164  0.0  0.039945  -0.0  0.957697  0.0  0.040015  -3e-06  0.953901  0.0  0.118744  0.039282  1e-06  0.960852  0.0
H  H9  1  0.39528032  0.67753333  0.65036776  1  0.027839  -2e-06  0.897108  0.0  0.039963  -1e-06  0.957641  0.0  0.040035  -2e-06  0.953845  0.0  0.11876  0.0393  1e-06  0.960801  0.0
H  H10  1  0.78318084  0.86769266  0.44323108  1  0.450166  -4e-06  0.840855  0.0  0.420528  -6e-06  0.902035  0.0  0.430799  -2e-06  0.886893  0.0  0.305044  0.412996  -1.2e-05  0.912989  0.0
H  H11  1  0.21682362  0.13230560  0.55677023  1  0.450129  -1e-06  0.840897  0.0  0.420489  -6e-06  0.90208  0.0  0.43076  -2e-06  0.886937  0.0  0.30502  0.412954  -1.2e-05  0.913039  0.0
H  H12  1  0.84955428  0.87323919  0.33006116  1  0.450174  -0.00012  0.839154  0.0  0.420955  -0.00012  0.8994  0.0  0.430892  -6.4e-05  0.884805  0.0  0.307126  0.413819  -0.00019  0.909672  0.0
H  H13  1  0.15045039  0.12676293  0.66994001  1  0.450199  -0.00012  0.839111  0.0  0.42099  -0.000121  0.899336  0.0  0.430928  -6.4e-05  0.884743  0.0  0.307162  0.41385  -0.00019  0.909609  0.0
H  H14  1  0.70247315  0.67397854  0.52273416  1  0.437362  -3e-06  0.812209  0.0  0.423087  -4e-06  0.860738  0.0  0.431222  -3e-06  0.851689  0.0  0.3293  0.417204  -8e-06  0.866302  0.0
H  H15  1  0.29752576  0.32601870  0.47726589  1  0.437414  -0.0  0.812147  0.0  0.423135  -4e-06  0.860682  0.0  0.43127  -3e-06  0.851634  0.0  0.329308  0.417253  -8e-06  0.866236  0.0
H  H16  1  0.83935156  0.66319823  0.64243245  1  0.441628  -4.3e-05  0.859858  0.0  0.411002  -2.6e-05  0.922168  0.0  0.42289  -2.3e-05  0.905029  0.0  0.296972  0.402431  -4.4e-05  0.934384  0.0
H  H17  1  0.16064482  0.33680578  0.35756995  1  0.441607  -4.3e-05  0.859878  0.0  0.410948  -2.6e-05  0.922228  0.0  0.422832  -2.3e-05  0.905094  0.0  0.296967  0.402375  -4.4e-05  0.934447  0.0
H  H18  1  0.49096198  0.54434102  0.19859673  1  0.131107  -0.000112  0.968993  0.0  0.137608  7.5e-05  1.030675  0.0  0.141836  8.2e-05  1.026988  0.0  0.118078  0.134323  5.4e-05  1.033627  0.0
H  H19  1  0.50904066  0.45565910  0.80139776  1  0.131063  -0.000112  0.968984  0.0  0.137601  7.5e-05  1.030641  0.0  0.14183  8.2e-05  1.026955  0.0  0.118062  0.134309  5.4e-05  1.033596  0.0
H  H20  1  0.55196542  0.64890009  0.03899299  1  0.120573  -0.000688  0.967084  -0.001  0.129312  -0.00064  1.026666  -0.001  0.133678  -0.00046  1.024381  0.0  0.112052  0.126089  -0.000786  1.028671  -0.001
H  H21  1  0.44804092  0.35110300  0.96100698  1  0.120586  -0.000688  0.967096  -0.001  0.129335  -0.000641  1.026651  -0.001  0.133698  -0.00046  1.024371  0.0  0.112056  0.126111  -0.000786  1.028661  -0.001
H  H22  1  0.31395734  0.74161574  0.92277075  1  0.091338  -0.001012  0.943977  -0.002  0.100948  -0.000857  1.005051  -0.002  0.103196  -0.000619  1.002703  -0.001  0.12394  0.099072  -0.001037  1.007106  -0.002
H  H23  1  0.68604770  0.25838737  0.07723236  1  0.091369  -0.001016  0.943925  -0.002  0.100989  -0.000857  1.004984  -0.002  0.103237  -0.000619  1.002637  -0.001  0.123961  0.099111  -0.001037  1.007043  -0.002
H  H24  1  0.50167871  0.94641286  0.28080128  1  0.119815  -0.00011  0.913805  0.0  0.133657  5e-05  0.9642  0.0  0.137298  5.1e-05  0.961601  0.0  0.121925  0.130639  4e-05  0.966872  0.0
H  H25  1  0.49832008  0.05359406  0.71920124  1  0.11978  -0.000108  0.913742  0.0  0.133636  5e-05  0.964133  0.0  0.137285  5.1e-05  0.961526  0.0  0.121906  0.130615  4e-05  0.966807  0.0
H  H26  1  0.58173929  0.05523680  0.12774781  1  0.114961  -0.000587  0.967633  0.0  0.121436  -0.000589  1.032501  0.0  0.126178  -0.00043  1.029813  0.0  0.11053  0.11802  -0.00072  1.034601  -0.001
H  H27  1  0.41826396  0.94477503  0.87226067  1  0.11492  -0.000588  0.967619  0.0  0.12138  -0.000589  1.032512  0.0  0.126122  -0.00043  1.029823  0.0  0.110519  0.117959  -0.00072  1.034613  -0.001
H  H28  1  0.37164801  0.17110422  0.02198285  1  0.089073  -0.000858  0.946337  -0.002  0.098003  -0.000776  1.009678  -0.001  0.100445  -0.000573  1.007427  -0.001  0.123999  0.096091  -0.000937  1.011513  -0.002
H  H29  1  0.62834225  0.82889388  0.97801140  1  0.089063  -0.000864  0.946232  -0.002  0.097981  -0.000777  1.009586  -0.001  0.100422  -0.000573  1.007333  -0.001  0.123974  0.096059  -0.000937  1.011434  -0.002
C  C30  1  0.70680723  0.41499155  0.36455976  1  0.601351  2.7e-05  3.914862  0.0  0.532434  2e-06  4.233095  0.0  0.566272  3e-06  4.221491  0.0  0.146025  0.510715  2e-06  4.229951  0.0
C  C31  1  0.29319019  0.58500178  0.63543594  1  0.601406  2.1e-05  3.915036  0.0  0.532485  2e-06  4.23326  0.0  0.566319  3e-06  4.221664  0.0  0.146024  0.510759  2e-06  4.230121  0.0
C  C32  1  0.20202839  0.51478481  0.26865067  1  0.716571  -0.000567  3.873365  -0.001  0.665153  -0.000489  4.178754  -0.001  0.702824  -0.00023  4.164548  0.0  0.235922  0.640036  -0.000784  4.183695  -0.001
C  C33  1  0.79797456  0.48520954  0.73134714  1  0.716763  -0.000556  3.873123  -0.001  0.665293  -0.000487  4.178566  -0.001  0.702956  -0.00023  4.164366  0.0  0.236003  0.640168  -0.000784  4.183514  -0.001
C  C34  1  0.23373295  0.58080903  0.17247807  1  -0.073148  -0.005539  3.655265  -0.006  -0.060447  -0.00211  3.891971  -0.002  -0.068636  -0.002098  3.90997  -0.002  0.010679  -0.05619  -0.002169  3.881457  -0.002
C  C35  1  0.76627060  0.41919016  0.82751983  1  -0.073483  -0.005566  3.655365  -0.006  -0.060655  -0.002111  3.892015  -0.002  -0.068842  -0.002099  3.910011  -0.002  0.010577  -0.0564  -0.00217  3.881492  -0.002
C  C36  1  0.39347714  0.58567500  0.14714159  1  0.000292  0.012042  3.611628  0.007  -0.027549  0.004713  3.858795  0.002  -0.021058  0.005332  3.870761  0.003  -0.050274  -0.032199  0.004186  3.852134  0.002
C  C37  1  0.60652361  0.41432032  0.85285764  1  0.000446  0.012082  3.611682  0.007  -0.0275  0.004715  3.858926  0.002  -0.021008  0.005331  3.870888  0.003  -0.050246  -0.032135  0.004186  3.852241  0.002
C  C38  1  0.42739756  0.64448708  0.05840324  1  -0.086745  -0.009522  3.668966  -0.01  -0.100054  -0.004135  3.919968  -0.005  -0.105744  -0.003704  3.935699  -0.005  -0.069989  -0.096593  -0.004435  3.90991  -0.005
C  C39  1  0.57261153  0.35551310  0.94159338  1  -0.086847  -0.009545  3.669232  -0.01  -0.100162  -0.004136  3.920293  -0.005  -0.105851  -0.003703  3.93602  -0.004  -0.070056  -0.096709  -0.004434  3.910235  -0.005
C  C40  1  0.29978772  0.69672712  0.99543707  1  0.13934  0.010289  3.673349  0.007  0.106857  0.002704  3.93446  0.002  0.116966  0.004433  3.951761  0.003  0.053746  0.10029  0.001389  3.923423  0.001
C  C41  1  0.70021104  0.30327298  0.00455835  1  0.139326  0.010333  3.673369  0.007  0.106859  0.002705  3.934468  0.002  0.116969  0.004432  3.951756  0.003  0.053718  0.100289  0.001388  3.923437  0.001
C  C42  1  0.11298496  0.63717177  0.10724173  1  0.064017  0.007959  3.722472  0.005  0.058836  0.002251  3.969659  0.001  0.062771  0.003648  3.989154  0.002  0.1113  0.056052  0.00126  3.957897  0.0
C  C43  1  0.88701874  0.36282456  0.89276080  1  0.064126  0.007987  3.722369  0.005  0.058916  0.002254  3.969607  0.001  0.062854  0.00365  3.989088  0.002  0.11141  0.056124  0.001261  3.957857  0.0
C  C44  1  0.93523972  0.64123921  0.12160771  1  0.659205  0.007186  3.878111  0.006  0.612245  0.00125  4.182373  0.001  0.650126  0.001287  4.172023  0.001  0.223998  0.586284  0.001186  4.186123  0.002
C  C45  1  0.06476104  0.35875605  0.87838558  1  0.659422  0.007184  3.877845  0.006  0.612408  0.001247  4.182202  0.001  0.650287  0.001286  4.171852  0.001  0.224087  0.586445  0.001184  4.185961  0.002
C  C46  1  0.21665662  0.94279438  0.35681374  1  0.700389  -0.000759  3.892933  -0.001  0.645858  -0.000701  4.196921  -0.001  0.681168  -0.000429  4.186281  -0.001  0.230004  0.621629  -0.000999  4.201834  -0.001
C  C47  1  0.78334809  0.05721453  0.64319114  1  0.700312  -0.000762  3.893292  -0.001  0.645679  -0.0007  4.19742  -0.001  0.68099  -0.000429  4.186785  -0.001  0.229946  0.62145  -0.000999  4.202326  -0.001
C  C48  1  0.25564573  0.99998632  0.25716838  1  -0.059412  -0.003916  3.648352  -0.004  -0.049091  -0.001372  3.893549  -0.001  -0.054384  -0.001369  3.909184  -0.002  0.013627  -0.046628  -0.001432  3.885065  -0.001
C  C49  1  0.74435211  0.00001476  0.74282957  1  -0.059438  -0.003923  3.648482  -0.004  -0.049025  -0.001372  3.89363  -0.001  -0.054319  -0.001368  3.90926  -0.002  0.013609  -0.04658  -0.001432  3.885142  -0.001
C  C50  1  0.41374080  0.99586743  0.23234058  1  0.00308  0.009328  3.631046  0.006  -0.02582  0.003574  3.880578  0.002  -0.020247  0.0041  3.89372  0.002  -0.05034  -0.030014  0.003047  3.873159  0.002
C  C51  1  0.58625854  0.00413757  0.76766257  1  0.003093  0.009331  3.631048  0.006  -0.025821  0.003572  3.880511  0.002  -0.020277  0.004098  3.893694  0.002  -0.050346  -0.029999  0.003046  3.873081  0.002
C  C52  1  0.45790391  0.05572406  0.14676413  1  -0.092967  -0.007198  3.690638  -0.008  -0.107655  -0.003167  3.948522  -0.004  -0.113362  -0.00283  3.964998  -0.004  -0.070188  -0.104144  -0.003392  3.938089  -0.004
C  C53  1  0.54209360  0.94428285  0.85323728  1  -0.093019  -0.007205  3.690601  -0.008  -0.107686  -0.003166  3.948484  -0.004  -0.113397  -0.002829  3.964955  -0.004  -0.07019  -0.104176  -0.003392  3.938049  -0.004
C  C54  1  0.34437394  0.12077021  0.08862903  1  0.130753  0.008636  3.679168  0.006  0.098545  0.002396  3.939405  0.001  0.108328  0.003746  3.955941  0.002  0.050545  0.09208  0.00128  3.928848  0.001
C  C55  1  0.65562078  0.87923279  0.91137033  1  0.130837  0.008661  3.679035  0.006  0.098639  0.002396  3.939266  0.001  0.108427  0.003745  3.9558  0.002  0.050577  0.092175  0.00128  3.928714  0.001
C  C56  1  0.14465728  0.06185607  0.19102610  1  0.064158  0.005698  3.723609  0.003  0.054401  0.001639  3.983687  0.0  0.058067  0.002781  4.000657  0.001  0.110723  0.051262  0.000675  3.974312  0.0
C  C57  1  0.85533631  0.93814400  0.80896999  1  0.064279  0.005704  3.723532  0.003  0.054472  0.001638  3.983618  0.0  0.058148  0.002779  4.000576  0.001  0.110783  0.051353  0.000674  3.974217  0.0
C  C58  1  0.96494899  0.06687180  0.19955623  1  0.630307  0.007224  3.88886  0.006  0.577882  0.001488  4.197334  0.002  0.613272  0.001507  4.191086  0.001  0.219623  0.553598  0.001413  4.201722  0.002
C  C59  1  0.03505029  0.93312644  0.80044744  1  0.630294  0.007217  3.88896  0.006  0.577919  0.001488  4.19737  0.002  0.613307  0.001507  4.191127  0.001  0.219643  0.553622  0.001413  4.201757  0.002
N  N60  1  0.14851400  0.69339461  0.02106696  1  -0.311796  -0.077959  3.4065  -0.101  -0.273295  -0.052576  3.713397  -0.072  -0.304031  -0.042997  3.736479  -0.063  -0.35747  -0.255329  -0.057691  3.700423  -0.075
N  N61  1  0.85148750  0.30660263  0.97893106  1  -0.311754  -0.077972  3.406555  -0.101  -0.273281  -0.052576  3.713488  -0.072  -0.304004  -0.042997  3.736563  -0.063  -0.357455  -0.255329  -0.057694  3.700504  -0.075
N  N62  1  0.19207189  0.12324213  0.11094801  1  -0.308738  -0.06314  3.381649  -0.082  -0.269266  -0.044055  3.687764  -0.06  -0.296739  -0.036005  3.706761  -0.053  -0.351707  -0.253168  -0.048603  3.677427  -0.063
N  N63  1  0.80792132  0.87675700  0.88905208  1  -0.308813  -0.06314  3.381552  -0.082  -0.269334  -0.044055  3.687695  -0.06  -0.296821  -0.036003  3.706692  -0.053  -0.351694  -0.253216  -0.048601  3.677349  -0.063
O  O64  1  0.20773422  0.84294490  0.58096903  1  -0.924673  2.5e-05  1.893371  0.0  -0.887189  9.1e-05  2.083266  0.0  -0.906473  0.000122  2.050979  0.0  -0.661365  -0.86427  1e-05  2.10953  0.0
O  O65  1  0.79226839  0.15705530  0.41903480  1  -0.924677  2.6e-05  1.893454  0.0  -0.887152  9.1e-05  2.08346  0.0  -0.906433  0.000123  2.051151  0.0  -0.661323  -0.864227  1e-05  2.109728  0.0
O  O66  1  0.65950059  0.51383369  0.34717369  1  -0.639742  -1.9e-05  2.029218  0.0  -0.595383  1.3e-05  2.268367  0.0  -0.619085  1.1e-05  2.257994  0.0  -0.351388  -0.572959  7e-06  2.275016  0.0
O  O67  1  0.34049837  0.48617031  0.65282583  1  -0.639805  -2.1e-05  2.0294  0.0  -0.595449  1.3e-05  2.268552  0.0  -0.61915  1.1e-05  2.258181  0.0  -0.351442  -0.573016  7e-06  2.275194  0.0
O  O68  1  0.81194342  0.81453771  0.37762552  1  -0.92106  -0.00017  1.808569  0.0  -0.882277  -0.000121  1.987703  0.0  -0.899681  -4.9e-05  1.955955  0.0  -0.647268  -0.860819  -0.00021  2.014911  0.0
O  O69  1  0.18806421  0.18546540  0.62237555  1  -0.921026  -0.000174  1.808562  0.0  -0.882252  -0.000121  1.987712  0.0  -0.899659  -5e-05  1.955958  0.0  -0.647261  -0.860792  -0.00021  2.014924  0.0
O  O70  1  0.87293851  0.41774398  0.39997495  1  -0.76306  -6.3e-05  2.127648  0.0  -0.717645  -3e-05  2.387776  0.0  -0.742279  -1.5e-05  2.377072  0.0  -0.42094  -0.685713  -4.2e-05  2.392864  0.0
O  O71  1  0.12705854  0.58224836  0.60001796  1  -0.763094  -6.3e-05  2.127807  0.0  -0.717657  -3e-05  2.387914  0.0  -0.742298  -1.5e-05  2.377219  0.0  -0.420895  -0.685723  -4.2e-05  2.393005  0.0
O  O72  1  0.83005752  0.70389296  0.57163331  1  -0.898165  -4.8e-05  1.846584  0.0  -0.857305  -6e-06  2.034672  0.0  -0.875963  1e-05  2.007222  0.0  -0.630949  -0.836086  -3e-05  2.057379  0.0
O  O73  1  0.16993827  0.29610618  0.42836560  1  -0.898193  -5.1e-05  1.846579  0.0  -0.8573  -6e-06  2.034716  0.0  -0.875959  1e-05  2.007269  0.0  -0.630941  -0.836082  -3.1e-05  2.057418  0.0
O  O74  1  0.13528939  0.82315295  0.32688437  1  -0.710423  -0.000757  2.077401  -0.001  -0.662576  -0.000345  2.321602  -0.001  -0.690513  -0.000137  2.315104  0.0  -0.353673  -0.63501  -0.000639  2.326731  -0.001
O  O75  1  0.86470210  0.17683845  0.67311575  1  -0.710217  -0.000759  2.078256  -0.001  -0.662318  -0.000345  2.322454  -0.001  -0.69025  -0.000138  2.315957  0.0  -0.353528  -0.634748  -0.000638  2.327566  -0.001
O  O76  1  0.28008796  0.01893130  0.46459265  1  -0.623438  -0.001297  1.959866  -0.002  -0.564672  -0.000651  2.170425  -0.001  -0.590975  -0.000373  2.158955  -0.001  -0.303012  -0.546335  -0.001001  2.178211  -0.001
O  O77  1  0.71991393  0.98106689  0.53540306  1  -0.623517  -0.001294  1.959332  -0.002  -0.564721  -0.000651  2.169941  -0.001  -0.591031  -0.000373  2.158474  -0.001  -0.303064  -0.546381  -0.001002  2.177723  -0.001
O  O78  1  0.89539009  0.00494093  0.26169486  1  -0.590072  -0.013022  2.004916  -0.018  -0.531686  -0.007095  2.219418  -0.01  -0.557548  -0.00331  2.210576  -0.005  -0.285056  -0.513519  -0.011105  2.225291  -0.015
O  O79  1  0.10461403  0.99506316  0.73831077  1  -0.590099  -0.013025  2.004819  -0.018  -0.531784  -0.007097  2.219337  -0.01  -0.557647  -0.003311  2.210499  -0.005  -0.285144  -0.513609  -0.011109  2.225205  -0.015
O  O80  1  0.88795587  0.13641759  0.13828090  1  -0.571491  -0.086169  2.049168  -0.119  -0.543424  -0.059193  2.331597  -0.089  -0.584717  -0.044971  2.324463  -0.073  -0.314491  -0.516224  -0.068387  2.336861  -0.098
O  O81  1  0.11204105  0.86358450  0.86172212  1  -0.57152  -0.086164  2.049236  -0.119  -0.543418  -0.059191  2.331603  -0.089  -0.584717  -0.044969  2.32447  -0.073  -0.314463  -0.516203  -0.068384  2.336877  -0.098
O  O82  1  0.84457839  0.69818205  0.05192664  1  -0.569284  -0.086641  2.033794  -0.12  -0.545035  -0.058555  2.31916  -0.088  -0.586683  -0.044275  2.309735  -0.072  -0.309155  -0.517908  -0.067838  2.326274  -0.097
O  O83  1  0.15541606  0.30181035  0.94807508  1  -0.569374  -0.08666  2.033619  -0.12  -0.545103  -0.058565  2.318996  -0.088  -0.586751  -0.044283  2.309568  -0.072  -0.309201  -0.517992  -0.067854  2.326106  -0.097
O  O84  1  0.88032394  0.58877077  0.19516415  1  -0.670693  -0.014289  2.006295  -0.019  -0.635688  -0.007358  2.248959  -0.01  -0.661605  -0.003472  2.240406  -0.005  -0.363256  -0.608081  -0.011629  2.255814  -0.016
O  O85  1  0.11967225  0.41120614  0.80483273  1  -0.670706  -0.014279  2.006392  -0.019  -0.635712  -0.007356  2.249149  -0.01  -0.661592  -0.003471  2.240527  -0.005  -0.363306  -0.60811  -0.011625  2.256007  -0.016
O  O86  1  0.21672328  0.58461660  0.37203525  1  -0.726887  -0.001328  1.999146  -0.002  -0.684705  -0.000659  2.241326  -0.001  -0.708543  -0.000356  2.227108  0.0  -0.396848  -0.658158  -0.001049  2.251999  -0.001
O  O87  1  0.78328771  0.41539530  0.62797477  1  -0.726844  -0.001329  1.99918  -0.002  -0.684626  -0.00066  2.24137  -0.001  -0.708479  -0.000355  2.227196  0.0  -0.396899  -0.658084  -0.001049  2.252042  -0.001
O  O88  1  0.17215818  0.39251478  0.24137262  1  -0.621457  7.4e-05  2.023577  -0.002  -0.575312  0.000573  2.269575  -0.001  -0.606976  0.001088  2.25691  0.0  -0.299729  -0.553653  2e-06  2.278279  -0.001
O  O89  1  0.82783910  0.60748832  0.75863573  1  -0.621592  6.9e-05  2.023253  -0.002  -0.575495  0.000572  2.26936  -0.001  -0.607167  0.001088  2.256697  0.0  -0.299771  -0.553817  2e-06  2.27807  -0.001
