# generated using pymatgen
data_Zn4H18C27N2O17
_symmetry_space_group_name_H-M   'P 1'
_cell_length_a   10.83198490
_cell_length_b   10.91973258
_cell_length_c   19.49402290
_cell_angle_alpha   97.54665873
_cell_angle_beta   92.05652058
_cell_angle_gamma   98.09814118
_symmetry_Int_Tables_number   1
_chemical_formula_structural   Zn4H18C27N2O17
_chemical_formula_sum   'Zn4 H18 C27 N2 O17'
_cell_volume   2259.55613551
_cell_formula_units_Z   1
loop_
 _symmetry_equiv_pos_site_id
 _symmetry_equiv_pos_as_xyz
  1  'x, y, z'
loop_
 _atom_site_type_symbol
 _atom_site_label
 _atom_site_symmetry_multiplicity
 _atom_site_fract_x
 _atom_site_fract_y
 _atom_site_fract_z
 _atom_site_occupancy
 _atom_site_pbe_bader_charge
 _atom_site_pbe_bader_spin_density
 _atom_site_pbe_cm5_charge
 _atom_site_pbe_ddec_charge
 _atom_site_pbe_ddec_spin_density
 _atom_site_pbe_ddec_sum_bond_order
 _atom_site_pbe_magmom
Zn  Zn0  1  0.40263841  0.58471459  0.44404991  1  1.314605  0  0.673231  0.961285  0  2.389021  0
Zn  Zn1  1  0.39884575  0.38354547  0.55081848  1  1.317078  0  0.675271  0.967277  0  2.359159  0
Zn  Zn2  1  0.61576361  0.62385247  0.56551846  1  1.320835  0  0.679143  0.979736  0  2.323994  0
Zn  Zn3  1  0.60105570  0.40068117  0.43724085  1  1.315988  0  0.672859  0.961748  0  2.390574  0
H  H4  1  0.30150876  0.51794708  0.23101646  1  0.10705  0  0.106942  0.115101  0  0.999505  0
H  H5  1  0.44669772  0.31110759  0.75133311  1  0.153632  0  0.128879  0.146895  0  0.96465  0
H  H6  1  0.65389318  0.53465333  0.00866642  1  0.075044  0  0.111805  0.11824  0  0.980893  0
H  H7  1  0.65672727  0.39509479  0.09786815  1  0.068418  0  0.104289  0.105868  0  0.997907  0
H  H8  1  0.66745211  0.41005557  0.22693148  1  0.103206  0  0.10872  0.115803  0  0.992333  0
H  H9  1  0.38109501  0.40623152  0.98719739  1  0.068341  0  0.107901  0.105144  0  0.999142  0
H  H10  1  0.63829493  0.68315427  0.91423275  1  0.113262  0  0.125694  0.142307  0  0.964352  0
H  H11  1  0.49922430  0.01005980  0.58029261  1  0.122899  0  0.122891  0.144628  0  0.963117  0
H  H12  1  0.50032365  0.98239649  0.42030860  1  0.118888  0  0.120219  0.141714  0  0.968101  0
H  H13  1  0.02458908  0.64661002  0.51405646  1  0.134565  0  0.121677  0.143689  0  0.964813  0
H  H14  1  0.98479085  0.35773544  0.49174585  1  0.125846  0  0.121727  0.143392  0  0.966279  0
H  H15  1  0.99210060  0.49040830  0.07462134  1  0.015236  0  0.082389  0.10379  0  1.00963  0
H  H16  1  0.05369858  0.46521380  0.99162999  1  0.024003  0  0.085434  0.110553  0  1.00082  0
H  H17  1  0.96450505  0.33950859  0.02506658  1  0.023824  0  0.089273  0.116666  0  0.998248  0
H  H18  1  0.19318470  0.32226794  0.03702987  1  0.047152  0  0.089151  0.077649  0  0.979525  0
H  H19  1  0.13211561  0.34754886  0.11923239  1  0.018324  0  0.08992  0.07911  0  0.974098  0
H  H20  1  0.21070459  0.57677572  0.12809645  1  0.031753  0  0.095902  0.095811  0  0.972725  0
H  H21  1  0.27542249  0.55267659  0.04672584  1  0.050588  0  0.091431  0.088276  0  0.989662  0
C  C22  1  0.49393838  0.16496469  0.48156888  1  1.544644  0  0.226205  0.645492  0  4.168774  0
C  C23  1  0.50840862  0.82895280  0.51712783  1  1.580385  0  0.228576  0.648055  0  4.157935  0
C  C24  1  0.17363901  0.46543220  0.49809220  1  1.593725  0  0.228475  0.650943  0  4.158889  0
C  C25  1  0.83614116  0.53649953  0.50553171  1  1.553337  0  0.228136  0.650703  0  4.157353  0
C  C26  1  0.51640378  0.50700704  0.68463497  1  1.642553  0  0.232107  0.614766  0  4.176685  0
C  C27  1  0.49151027  0.47723942  0.31357208  1  1.58165  0  0.228419  0.60626  0  4.155986  0
C  C28  1  0.48483582  0.46535052  0.23648595  1  -0.044792  0  -0.019856  -0.036494  0  4.0005  0
C  C29  1  0.37829306  0.48989062  0.20093477  1  -0.046105  0  -0.081954  -0.146323  0  3.94583  0
C  C30  1  0.36935144  0.48087386  0.12878068  1  0.033601  0  -0.001919  0.07638  0  3.925067  0
C  C31  1  0.47259948  0.44848855  0.09139361  1  -0.006269  0  -0.005331  0.066528  0  3.980064  0
C  C32  1  0.57933242  0.42341692  0.12739215  1  -0.038458  0  -0.087419  -0.129501  0  3.985675  0
C  C33  1  0.58558198  0.43063956  0.19908673  1  -0.093018  0  -0.08426  -0.094342  0  3.995739  0
C  C34  1  0.50738930  0.38487910  0.85705624  1  0.239489  0  0.086341  0.02862  0  3.886835  0
C  C35  1  0.48848013  0.39296310  0.78694317  1  0.010868  0  -0.060508  -0.114747  0  3.920081  0
C  C36  1  0.57997944  0.60795922  0.80914458  1  0.217995  0  0.094252  0.077519  0  3.916241  0
C  C37  1  0.59840580  0.59987891  0.87908075  1  0.016646  0  -0.067308  -0.164453  0  3.903617  0
C  C38  1  0.56020144  0.48765467  0.90548190  1  0.011485  0  0.013772  0.102981  0  4.000661  0
C  C39  1  0.46995930  0.44342042  0.01595578  1  -0.047573  0  -0.077342  -0.103415  0  3.982763  0
C  C40  1  0.56758315  0.48703010  0.98061970  1  -0.02344  0  -0.087911  -0.139476  0  3.990821  0
C  C41  1  0.52601457  0.50519681  0.76141913  1  0.007613  0  0.000963  -0.057905  0  3.932451  0
C  C42  1  0.49818884  0.96416223  0.52704651  1  -0.070769  0  -0.068922  -0.162125  0  3.869147  0
C  C43  1  0.49499108  0.02825769  0.47308051  1  0.019773  0  -0.072619  -0.168782  0  3.882286  0
C  C44  1  0.97443727  0.55156167  0.50511355  1  0.003177  0  -0.072493  -0.171132  0  3.875572  0
C  C45  1  0.03540685  0.45248628  0.49693381  1  -0.096508  0  -0.071114  -0.16522  0  3.877712  0
C  C46  1  0.25231575  0.50817334  0.09307855  1  -0.029919  0  -0.158688  -0.198713  0  3.970483  0
C  C47  1  0.15366563  0.39175605  0.07259266  1  -0.029121  0  -0.163018  -0.089801  0  3.962499  0
C  C48  1  0.03438564  0.42319598  0.03912676  1  -0.056131  0  -0.243204  -0.351808  0  3.985655  0
N  N49  1  0.60983451  0.73355016  0.78783698  1  0.427358  0  0.061008  0.51753  0  4.222815  0
N  N50  1  0.47542304  0.25970531  0.87853819  1  0.393011  0  0.058091  0.515994  0  4.22389  0
O  O51  1  0.50505778  0.49862531  0.50131375  1  -1.236141  0  -0.576137  -1.039441  0  2.551615  0
O  O52  1  0.54187111  0.22088116  0.43303707  1  -1.156607  0  -0.316943  -0.546423  0  2.282089  0
O  O53  1  0.46382938  0.76484345  0.45981590  1  -1.173812  0  -0.318134  -0.553927  0  2.301842  0
O  O54  1  0.22234049  0.37784123  0.52130867  1  -1.159036  0  -0.316014  -0.546362  0  2.271677  0
O  O55  1  0.78975313  0.62678755  0.53855152  1  -1.156486  0  -0.314404  -0.545563  0  2.265102  0
O  O56  1  0.42402092  0.43566950  0.65188383  1  -1.162031  0  -0.306108  -0.529414  0  2.306087  0
O  O57  1  0.58569621  0.44196652  0.34266704  1  -1.173251  0  -0.31746  -0.548805  0  2.326382  0
O  O58  1  0.60386791  0.57521854  0.65975453  1  -1.169595  0  -0.30772  -0.537796  0  2.330911  0
O  O59  1  0.40284040  0.52238730  0.34514883  1  -1.177738  0  -0.318054  -0.54944  0  2.326134  0
O  O60  1  0.23128623  0.56106681  0.47567339  1  -1.169935  0  -0.314765  -0.548555  0  2.297908  0
O  O61  1  0.77604189  0.43553097  0.47276935  1  -1.173944  0  -0.317088  -0.55249  0  2.310797  0
O  O62  1  0.44648872  0.21496754  0.53537099  1  -1.169505  0  -0.314948  -0.54842  0  2.295408  0
O  O63  1  0.56198205  0.78881566  0.56739352  1  -1.15415  0  -0.309153  -0.536929  0  2.275682  0
O  O64  1  0.52687933  0.77010212  0.75406763  1  -0.428754  0  -0.123769  -0.313372  0  1.875866  0
O  O65  1  0.71312062  0.79359627  0.80783203  1  -0.437616  0  -0.131316  -0.322774  0  1.845494  0
O  O66  1  0.37177638  0.20058120  0.85778491  1  -0.435274  0  -0.135461  -0.330241  0  1.845815  0
O  O67  1  0.55547298  0.22219616  0.91400597  1  -0.431864  0  -0.129753  -0.322261  0  1.868815  0
