# generated using pymatgen
data_Zn4H34C32N4O13
_symmetry_space_group_name_H-M   'P 1'
_cell_length_a   17.77800094
_cell_length_b   18.59746842
_cell_length_c   19.89897952
_cell_angle_alpha   61.78776177
_cell_angle_beta   64.75577207
_cell_angle_gamma   89.96995024
_symmetry_Int_Tables_number   1
_chemical_formula_structural   Zn4H34C32N4O13
_chemical_formula_sum   'Zn8 H68 C64 N8 O26'
_cell_volume   5074.22580046
_cell_formula_units_Z   2
loop_
 _symmetry_equiv_pos_site_id
 _symmetry_equiv_pos_as_xyz
  1  'x, y, z'
loop_
 _atom_site_type_symbol
 _atom_site_label
 _atom_site_symmetry_multiplicity
 _atom_site_fract_x
 _atom_site_fract_y
 _atom_site_fract_z
 _atom_site_occupancy
 _atom_site_pbe_bader_charge
 _atom_site_pbe_bader_spin_density
 _atom_site_pbe_cm5_charge
 _atom_site_pbe_ddec_charge
 _atom_site_pbe_ddec_spin_density
 _atom_site_pbe_ddec_sum_bond_order
 _atom_site_pbe_magmom
Zn  Zn0  1  0.12653665  0.54048017  0.92541796  1  1.315248  0  0.667472  0.952138  0  2.422608  0
Zn  Zn1  1  0.96040718  0.54900306  0.06976394  1  1.312591  0  0.664917  0.950598  0  2.391257  0
Zn  Zn2  1  0.96915802  0.38282008  0.06356606  1  1.302993  0  0.667683  0.949865  0  2.443838  0
Zn  Zn3  1  0.95236653  0.54465970  0.91171213  1  1.31479  0  0.666532  0.961919  0  2.324593  0
Zn  Zn4  1  0.37806286  0.97129068  0.06192522  1  1.306119  0  0.667784  0.953134  0  2.423714  0
Zn  Zn5  1  0.54025463  0.12592669  0.91891764  1  1.311459  0  0.66747  0.94866  0  2.44523  0
Zn  Zn6  1  0.53489078  0.95942151  0.91493567  1  1.311437  0  0.666433  0.952465  0  2.391098  0
Zn  Zn7  1  0.55509033  0.96422331  0.06972561  1  1.305797  0  0.666623  0.963242  0  2.328091  0
H  H8  1  0.22096913  0.83571059  0.30763477  1  0.073165  0  0.102161  0.118396  0  1.018286  0
H  H9  1  0.29134009  0.64881807  0.67786293  1  0.074306  0  0.101446  0.116601  0  1.019529  0
H  H10  1  0.66849152  0.28886419  0.67072386  1  0.058588  0  0.101571  0.117237  0  1.016404  0
H  H11  1  0.85532202  0.21792597  0.31508124  1  0.074659  0  0.102497  0.118898  0  1.014777  0
H  H12  1  0.21198200  0.31628886  0.88498653  1  0.028937  0  0.09136  0.085981  0  0.978021  0
H  H13  1  0.12918612  0.23199326  0.98450428  1  0.018095  0  0.0927  0.091435  0  0.983666  0
H  H14  1  0.22080982  0.14206420  0.97838788  1  0.038193  0  0.092637  0.09196  0  0.985091  0
H  H15  1  0.30381243  0.22751416  0.88021853  1  0.023609  0  0.091559  0.086742  0  0.976889  0
H  H16  1  0.20241663  0.11100486  0.12273098  1  0.05431  0  0.092342  0.091893  0  0.98779  0
H  H17  1  0.27409568  0.17168314  0.12762660  1  0.008951  0  0.090205  0.084502  0  0.978977  0
H  H18  1  0.11325687  0.20357181  0.12752606  1  0.031985  0  0.091542  0.092016  0  0.989694  0
H  H19  1  0.18713656  0.26516358  0.12934300  1  0.019419  0  0.089849  0.083826  0  0.979176  0
H  H20  1  0.31735283  0.40661728  0.88688576  1  0.027302  0  0.089565  0.088649  0  0.988263  0
H  H21  1  0.30656586  0.38750500  0.98616380  1  0.019091  0  0.089199  0.086141  0  0.981771  0
H  H22  1  0.39520890  0.29444851  0.98603108  1  0.033294  0  0.089742  0.087268  0  0.98289  0
H  H23  1  0.40809358  0.31566439  0.88546682  1  0.045613  0  0.088949  0.087566  0  0.98592  0
H  H24  1  0.90305892  0.81492029  0.87905911  1  0.007548  0  0.090809  0.084736  0  0.980343  0
H  H25  1  0.88696380  0.78979083  0.98252402  1  0.020133  0  0.092104  0.090327  0  0.984215  0
H  H26  1  0.79732443  0.88176364  0.98408511  1  0.042187  0  0.092189  0.089771  0  0.983321  0
H  H27  1  0.81319399  0.90564380  0.88099121  1  0.015691  0  0.091615  0.087048  0  0.978061  0
H  H28  1  0.67683312  0.76097885  0.12096474  1  0.036783  0  0.091064  0.091499  0  0.989363  0
H  H29  1  0.60550223  0.69967126  0.11639918  1  0.020045  0  0.089398  0.083656  0  0.980645  0
H  H30  1  0.76528904  0.66776635  0.11930943  1  0.023648  0  0.090906  0.091261  0  0.990653  0
H  H31  1  0.69452815  0.60816142  0.11251559  1  0.040759  0  0.089773  0.084409  0  0.978796  0
H  H32  1  0.80342143  0.72845473  0.86844118  1  0.041969  0  0.088307  0.085826  0  0.988168  0
H  H33  1  0.71883301  0.64326559  0.96314898  1  0.053152  0  0.089252  0.086284  0  0.981936  0
H  H34  1  0.62775816  0.73368860  0.96727578  1  0.053572  0  0.088847  0.085351  0  0.981347  0
H  H35  1  0.71198981  0.81847752  0.87189488  1  0.037467  0  0.088974  0.088444  0  0.990496  0
H  H36  1  0.17063925  0.80265670  0.92002951  1  0.033898  0  0.09129  0.086212  0  0.977482  0
H  H37  1  0.26013626  0.77083092  0.86794277  1  0.035326  0  0.093876  0.094349  0  0.982612  0
H  H38  1  0.35040153  0.86738177  0.86225095  1  0.035573  0  0.092996  0.092465  0  0.982647  0
H  H39  1  0.26020805  0.89772861  0.91572423  1  0.024502  0  0.091763  0.086976  0  0.978237  0
H  H40  1  0.39906365  0.74762624  0.94924260  1  0.056  0  0.09181  0.092087  0  0.988873  0
H  H41  1  0.34510567  0.69403924  0.06397818  1  0.005164  0  0.088896  0.082659  0  0.979891  0
H  H42  1  0.30730046  0.65014553  0.95684058  1  0.026227  0  0.092356  0.093513  0  0.987945  0
H  H43  1  0.25269377  0.59849073  0.07150110  1  0.040218  0  0.088929  0.082344  0  0.980557  0
H  H44  1  0.09027440  0.72633964  0.08597953  1  0.046256  0  0.088971  0.08765  0  0.986975  0
H  H45  1  0.12376752  0.64269995  0.14733573  1  0.031855  0  0.088256  0.084742  0  0.984354  0
H  H46  1  0.21535499  0.73792227  0.14194603  1  0.029012  0  0.088395  0.085048  0  0.983133  0
H  H47  1  0.18151408  0.82149095  0.08101093  1  0.045431  0  0.089588  0.088889  0  0.987986  0
H  H48  1  0.91206616  0.28128887  0.90522142  1  0.019945  0  0.091584  0.087086  0  0.980535  0
H  H49  1  0.87273227  0.36264104  0.84760884  1  0.033358  0  0.092166  0.089816  0  0.981718  0
H  H50  1  0.78639740  0.26315912  0.85282977  1  0.024684  0  0.092231  0.091582  0  0.986102  0
H  H51  1  0.82368479  0.18196656  0.91340775  1  0.021165  0  0.091038  0.085694  0  0.978267  0
H  H52  1  0.65712499  0.30531496  0.93024813  1  0.030373  0  0.091611  0.092869  0  0.989364  0
H  H53  1  0.60118330  0.25183097  0.04492191  1  0.024388  0  0.089388  0.083423  0  0.980608  0
H  H54  1  0.74462663  0.40233359  0.92733559  1  0.044919  0  0.090981  0.09065  0  0.988754  0
H  H55  1  0.68925261  0.34703690  0.04208207  1  0.012343  0  0.089815  0.084596  0  0.97864  0
H  H56  1  0.83308677  0.20012510  0.07129991  1  0.034686  0  0.090232  0.091177  0  0.987938  0
H  H57  1  0.74356621  0.22795497  0.12758496  1  0.005691  0  0.089531  0.086301  0  0.980096  0
H  H58  1  0.65222803  0.13314250  0.13238211  1  0.041774  0  0.088799  0.085758  0  0.981743  0
H  H59  1  0.74166045  0.10281235  0.07927433  1  0.026631  0  0.089095  0.087561  0  0.986171  0
H  H60  1  0.44768819  0.70183253  0.48329577  1  0.39821  0  0.298477  0.282226  0  0.949765  0
H  H61  1  0.42446446  0.69925210  0.57440028  1  0.403387  0  0.297553  0.28588  0  0.948616  0
H  H62  1  0.48678039  0.87260894  0.29159758  1  0.481776  0  0.298416  0.312463  0  0.986202  0
H  H63  1  0.46761446  0.82557627  0.40075800  1  0.480238  0  0.29565  0.293135  0  1.010104  0
H  H64  1  0.06563263  0.69077108  0.50365757  1  0.429404  0  0.298052  0.281188  0  0.950328  0
H  H65  1  0.08830854  0.77866732  0.41137606  1  0.409698  0  0.297062  0.284615  0  0.949172  0
H  H66  1  0.02684113  0.67603333  0.69210900  1  0.523595  0  0.297458  0.312145  0  0.990128  0
H  H67  1  0.04641782  0.73634750  0.58228442  1  0.475582  0  0.295226  0.293128  0  1.012651  0
H  H68  1  0.80398988  0.06620743  0.51604803  1  0.400088  0  0.299249  0.282909  0  0.946826  0
H  H69  1  0.80678200  0.08721733  0.42425506  1  0.403596  0  0.299031  0.287721  0  0.945689  0
H  H70  1  0.62454533  0.02863048  0.69790191  1  0.490631  0  0.298772  0.317563  0  0.982332  0
H  H71  1  0.67651184  0.04738395  0.58992944  1  0.485683  0  0.295768  0.294117  0  1.012932  0
H  H72  1  0.82255450  0.43799072  0.47468804  1  0.400506  0  0.299011  0.282826  0  0.948772  0
H  H73  1  0.73363499  0.41875598  0.56259401  1  0.405072  0  0.297644  0.285746  0  0.947949  0
H  H74  1  0.83288703  0.47864441  0.28477998  1  0.47471  0  0.298659  0.314049  0  0.989081  0
H  H75  1  0.77467637  0.46034755  0.39231397  1  0.486039  0  0.295496  0.293911  0  1.013102  0
C  C76  1  0.13773184  0.63361319  0.00748004  1  1.552341  0  0.234685  0.602903  0  4.101453  0
C  C77  1  0.87858030  0.38026081  0.22999102  1  1.439833  0  0.214436  0.603842  0  4.154348  0
C  C78  1  0.14552493  0.36528686  0.00112624  1  1.551957  0  0.233116  0.599276  0  4.108536  0
C  C79  1  0.86482162  0.37118049  0.98287802  1  1.536367  0  0.233992  0.602869  0  4.095008  0
C  C80  1  0.12561782  0.62438607  0.75551187  1  1.472173  0  0.215486  0.609311  0  4.143105  0
C  C81  1  0.86102039  0.64492664  0.98690673  1  1.492049  0  0.234448  0.605317  0  4.089273  0
C  C82  1  0.36341298  0.14477752  0.99474232  1  1.534157  0  0.234612  0.603024  0  4.099713  0
C  C83  1  0.60856855  0.12715686  0.75377941  1  1.427938  0  0.214981  0.608222  0  4.149089  0
C  C84  1  0.35770013  0.86338654  0.99599992  1  1.552003  0  0.234048  0.602283  0  4.100141  0
C  C85  1  0.64254553  0.86653769  0.99109837  1  1.558316  0  0.234374  0.605007  0  4.090628  0
C  C86  1  0.38606266  0.88950650  0.22932867  1  1.505587  0  0.214756  0.6083  0  4.149805  0
C  C87  1  0.64887361  0.13980650  0.99139763  1  1.557313  0  0.234108  0.603272  0  4.099757  0
C  C88  1  0.36290704  0.81098932  0.38521868  1  0.483287  0  0.114544  0.270327  0  4.019128  0
C  C89  1  0.24233011  0.81616572  0.35609538  1  0.006705  0  -0.115473  -0.223686  0  4.070782  0
C  C90  1  0.18285442  0.77140076  0.44306798  1  0.324765  0  0.061153  0.207928  0  4.080127  0
C  C91  1  0.21099386  0.74479792  0.50717987  1  -0.037584  0  -0.01274  -0.092  0  3.897058  0
C  C92  1  0.15020517  0.70480970  0.59947073  1  0.47679  0  0.113949  0.272316  0  4.022778  0
C  C93  1  0.27020365  0.67848444  0.62922416  1  -0.106109  0  -0.114634  -0.22009  0  4.064124  0
C  C94  1  0.32999338  0.72158205  0.54226409  1  0.374467  0  0.061471  0.20634  0  4.075297  0
C  C95  1  0.30214659  0.75924948  0.47775888  1  0.066061  0  -0.011947  -0.088584  0  3.8884  0
C  C96  1  0.33151762  0.83884652  0.32485247  1  -0.046973  0  -0.047952  -0.172595  0  4.014067  0
C  C97  1  0.18106145  0.67045938  0.66023927  1  0.060146  0  -0.048834  -0.176185  0  4.017489  0
C  C98  1  0.69041876  0.14967747  0.60177762  1  0.447133  0  0.115413  0.272355  0  4.02391  0
C  C99  1  0.68785694  0.26796827  0.62438909  1  -0.108632  0  -0.114767  -0.221326  0  4.06893  0
C  C100  1  0.73592973  0.32589499  0.53681645  1  0.398529  0  0.061899  0.207309  0  4.083414  0
C  C101  1  0.76182903  0.29811675  0.47575389  1  0.057952  0  -0.011845  -0.08845  0  3.897263  0
C  C102  1  0.80232508  0.35745495  0.38247796  1  0.465241  0  0.113467  0.269291  0  4.025733  0
C  C103  1  0.82606706  0.23896273  0.36089919  1  0.028179  0  -0.114646  -0.222693  0  4.064409  0
C  C104  1  0.78326613  0.18079745  0.44878490  1  0.297492  0  0.06273  0.208386  0  4.078851  0
C  C105  1  0.74528810  0.20876042  0.50922606  1  0.014753  0  -0.013117  -0.092378  0  3.897975  0
C  C106  1  0.66189415  0.18082727  0.65874283  1  0.075753  0  -0.047679  -0.173636  0  4.022647  0
C  C107  1  0.83435253  0.32639532  0.32558212  1  0.005823  0  -0.047329  -0.17139  0  4.02072  0
C  C108  1  0.19663300  0.26632611  0.95122220  1  -0.016949  0  -0.155502  -0.169827  0  3.84798  0
C  C109  1  0.25716235  0.20663853  0.94804934  1  -0.026342  0  -0.155806  -0.169439  0  3.853103  0
C  C110  1  0.30633855  0.20552943  0.99652312  1  0.05361  0  -0.017758  0.018637  0  3.816183  0
C  C111  1  0.23984768  0.17527919  0.09173540  1  -0.02937  0  -0.158077  -0.170524  0  3.861237  0
C  C112  1  0.18114011  0.23664012  0.09383864  1  -0.036489  0  -0.158706  -0.171419  0  3.863718  0
C  C113  1  0.20601946  0.30743481  0.00012778  1  0.053249  0  -0.016563  0.023381  0  3.808326  0
C  C114  1  0.30008312  0.35605232  0.95331290  1  -0.013035  0  -0.165356  -0.178468  0  3.892978  0
C  C115  1  0.35940868  0.29533994  0.95236045  1  -0.035392  0  -0.165027  -0.176914  0  3.89142  0
C  C116  1  0.85340726  0.79276632  0.94630807  1  0.008265  0  -0.155605  -0.167665  0  3.847956  0
C  C117  1  0.79365088  0.85351049  0.94760436  1  -0.038303  0  -0.155116  -0.169464  0  3.84625  0
C  C118  1  0.69945152  0.80507498  0.99045593  1  0.050706  0  -0.016445  0.022844  0  3.805527  0
C  C119  1  0.67309312  0.73333762  0.08410387  1  -0.024041  0  -0.160564  -0.173679  0  3.870287  0
C  C120  1  0.73219837  0.67225802  0.08234933  1  -0.039997  0  -0.15993  -0.173038  0  3.860884  0
C  C121  1  0.80036973  0.70294262  0.98751024  1  0.070187  0  -0.017123  0.021051  0  3.80841  0
C  C122  1  0.75492666  0.70710765  0.93570932  1  -0.064352  0  -0.164988  -0.176208  0  3.889937  0
C  C123  1  0.69472347  0.76711050  0.93797248  1  -0.06357  0  -0.164291  -0.176786  0  3.883978  0
C  C124  1  0.22674630  0.77963538  0.92332241  1  -0.03272  0  -0.155993  -0.172138  0  3.850888  0
C  C125  1  0.28663706  0.84316459  0.91991655  1  -0.030105  0  -0.155403  -0.170045  0  3.853571  0
C  C126  1  0.29697816  0.79967716  0.00265697  1  0.036351  0  -0.016523  0.023002  0  3.80947  0
C  C127  1  0.33527549  0.72412403  0.00664995  1  -0.029385  0  -0.159397  -0.172341  0  3.864274  0
C  C128  1  0.27442405  0.66034184  0.01126155  1  -0.037247  0  -0.158454  -0.171277  0  3.861012  0
C  C129  1  0.19517204  0.69303689  0.00882817  1  0.043505  0  -0.016649  0.023582  0  3.80795  0
C  C130  1  0.14745616  0.70445146  0.08672175  1  -0.05179  0  -0.164722  -0.176867  0  3.888679  0
C  C131  1  0.20794568  0.76751462  0.08322214  1  -0.039035  0  -0.165296  -0.1791  0  3.888034  0
C  C132  1  0.85308023  0.30046955  0.90683629  1  -0.030245  0  -0.155624  -0.170187  0  3.853619  0
C  C133  1  0.79476620  0.23492987  0.91089887  1  -0.019317  0  -0.155513  -0.169807  0  3.851707  0
C  C134  1  0.70520566  0.20038125  0.99264923  1  0.038597  0  -0.017376  0.023386  0  3.80936  0
C  C135  1  0.66573347  0.27563491  0.98813090  1  -0.021475  0  -0.158692  -0.173105  0  3.856984  0
C  C136  1  0.72416520  0.33955594  0.98588478  1  -0.042174  0  -0.160432  -0.173626  0  3.867465  0
C  C137  1  0.80425658  0.30886896  0.98741555  1  0.067141  0  -0.016116  0.02204  0  3.807584  0
C  C138  1  0.77580126  0.22152809  0.07042423  1  -0.013118  0  -0.165275  -0.177567  0  3.88202  0
C  C139  1  0.71585931  0.15773130  0.07434804  1  -0.027005  0  -0.164843  -0.178164  0  3.894023  0
N  N140  1  0.41880284  0.72844112  0.51928571  1  -1.150858  0  -0.606577  -0.6238  0  3.282839  0
N  N141  1  0.44864266  0.83277695  0.35688710  1  -1.2842  0  -0.595599  -0.607871  0  3.367698  0
N  N142  1  0.09401903  0.75393727  0.46639373  1  -1.176664  0  -0.606464  -0.622737  0  3.284067  0
N  N143  1  0.06501160  0.70079717  0.62706220  1  -1.319284  0  -0.596132  -0.609284  0  3.371995  0
N  N144  1  0.77682207  0.09355803  0.47697072  1  -1.146475  0  -0.605327  -0.623064  0  3.284084  0
N  N145  1  0.66593385  0.06607249  0.63298643  1  -1.295629  0  -0.595474  -0.611182  0  3.36815  0
N  N146  1  0.75766824  0.41276072  0.50946944  1  -1.148025  0  -0.606417  -0.62426  0  3.286962  0
N  N147  1  0.80851413  0.44131858  0.35039527  1  -1.283439  0  -0.596939  -0.610447  0  3.37124  0
O  O148  1  0.00080054  0.50586646  0.99133263  1  -1.229886  0  -0.573897  -1.021299  0  2.553847  0
O  O149  1  0.17476497  0.61419393  0.94976002  1  -1.171779  0  -0.318258  -0.552282  0  2.356721  0
O  O150  1  0.88875532  0.46113709  0.19361175  1  -1.163211  0  -0.320461  -0.559346  0  2.35612  0
O  O151  1  0.06521866  0.32958034  0.04850286  1  -1.179233  0  -0.317315  -0.550234  0  2.357635  0
O  O152  1  0.05773094  0.60923991  0.06201368  1  -1.183927  0  -0.314641  -0.548656  0  2.354336  0
O  O153  1  0.17891504  0.44451218  0.95370769  1  -1.189756  0  -0.31338  -0.545121  0  2.3636  0
O  O154  1  0.90543367  0.34306934  0.18719778  1  -1.180109  0  -0.327049  -0.555738  0  2.373964  0
O  O155  1  0.89860297  0.33884931  0.03189884  1  -1.174128  0  -0.314886  -0.548158  0  2.393796  0
O  O156  1  0.04306857  0.61423657  0.78823078  1  -1.187135  0  -0.320095  -0.564445  0  2.340106  0
O  O157  1  0.87872042  0.44996821  0.92992806  1  -1.175391  0  -0.31841  -0.554499  0  2.31086  0
O  O158  1  0.16346592  0.59565090  0.80158783  1  -1.176263  0  -0.327485  -0.557452  0  2.371331  0
O  O159  1  0.89238878  0.62926401  0.03800735  1  -1.173727  0  -0.320425  -0.557799  0  2.35323  0
O  O160  1  0.87661443  0.61740030  0.93578762  1  -1.156261  0  -0.314702  -0.549607  0  2.334118  0
O  O161  1  0.50351722  0.00301135  0.99283648  1  -1.21998  0  -0.574637  -1.022211  0  2.556212  0
O  O162  1  0.32572190  0.06700382  0.03470225  1  -1.174719  0  -0.318612  -0.553353  0  2.343351  0
O  O163  1  0.58477518  0.16468702  0.79651993  1  -1.185796  0  -0.329179  -0.560201  0  2.373018  0
O  O164  1  0.43686671  0.88389489  0.93972936  1  -1.186602  0  -0.319115  -0.555905  0  2.345753  0
O  O165  1  0.44433521  0.17578330  0.95335403  1  -1.173454  0  -0.313901  -0.545151  0  2.36881  0
O  O166  1  0.32514712  0.89224640  0.04590668  1  -1.167766  0  -0.312987  -0.544091  0  2.363556  0
O  O167  1  0.58855319  0.04598476  0.79001673  1  -1.154225  0  -0.320801  -0.562154  0  2.35492  0
O  O168  1  0.61671521  0.89210472  0.93491584  1  -1.183711  0  -0.315627  -0.549303  0  2.366011  0
O  O169  1  0.46897905  0.90664522  0.19529874  1  -1.198236  0  -0.318514  -0.559681  0  2.329743  0
O  O170  1  0.62653108  0.88859258  0.04674647  1  -1.181024  0  -0.318483  -0.557251  0  2.327496  0
O  O171  1  0.34659469  0.91359779  0.18463319  1  -1.174226  0  -0.328256  -0.560833  0  2.384713  0
O  O172  1  0.62915271  0.17303933  0.93046349  1  -1.174027  0  -0.319847  -0.553488  0  2.363745  0
O  O173  1  0.62647158  0.06163729  0.04940437  1  -1.185363  0  -0.314241  -0.551042  0  2.340461  0
