# generated using pymatgen
data_GdH24C25S2N3O8
_symmetry_space_group_name_H-M   'P 1'
_cell_length_a   16.07709759
_cell_length_b   16.07708595
_cell_length_c   27.86891525
_cell_angle_alpha   80.26059537
_cell_angle_beta   80.26060258
_cell_angle_gamma   63.02682949
_symmetry_Int_Tables_number   1
_chemical_formula_structural   GdH24C25S2N3O8
_chemical_formula_sum   'Gd4 H96 C100 S8 N12 O32'
_cell_volume   6292.11040763
_cell_formula_units_Z   4
loop_
 _symmetry_equiv_pos_site_id
 _symmetry_equiv_pos_as_xyz
  1  'x, y, z'
loop_
 _atom_site_type_symbol
 _atom_site_label
 _atom_site_symmetry_multiplicity
 _atom_site_fract_x
 _atom_site_fract_y
 _atom_site_fract_z
 _atom_site_occupancy
 _atom_site_pbe_bader_charge
 _atom_site_pbe_bader_spin_density
 _atom_site_pbe_cm5_charge
 _atom_site_pbe_ddec_charge
 _atom_site_pbe_ddec_spin_density
 _atom_site_pbe_ddec_sum_bond_order
 _atom_site_pbe_magmom
Gd  Gd0  1  0.53006892  0.06588589  0.04520763  1  2.186876  0  1.455296  2.038835  0  2.224345  0
Gd  Gd1  1  0.93411474  0.46993088  0.45479193  1  2.186894  0  1.45527  2.038839  0  2.224389  0
Gd  Gd2  1  0.46993099  0.93411415  0.95479200  1  2.18685  0  1.455268  2.038776  0  2.224472  0
Gd  Gd3  1  0.06588657  0.53006917  0.54520756  1  2.186845  0  1.455288  2.03882  0  2.224373  0
H  H4  1  0.62939840  0.06204734  0.20381712  1  0.077985  0  0.102684  0.108422  0  1.001079  0
H  H5  1  0.93795433  0.37060081  0.29618275  1  0.077945  0  0.102683  0.108448  0  1.00108  0
H  H6  1  0.37060011  0.93795268  0.79618373  1  0.07803  0  0.102687  0.108452  0  1.001065  0
H  H7  1  0.06204699  0.62939861  0.70381752  1  0.077982  0  0.102682  0.108426  0  1.001089  0
H  H8  1  0.70824090  0.10623961  0.25955800  1  0.067589  0  0.103378  0.104222  0  1.020155  0
H  H9  1  0.89376152  0.29175911  0.24044113  1  0.067665  0  0.10339  0.104248  0  1.020204  0
H  H10  1  0.29175620  0.89376228  0.74044244  1  0.067435  0  0.103397  0.104263  0  1.0201  0
H  H11  1  0.10623839  0.70824156  0.75955880  1  0.067616  0  0.103386  0.104247  0  1.020211  0
H  H12  1  0.84773990  0.20387397  0.13374920  1  0.073704  0  0.107118  0.110381  0  0.99425  0
H  H13  1  0.79612633  0.15226006  0.36625002  1  0.073726  0  0.107136  0.110375  0  0.994288  0
H  H14  1  0.15225861  0.79612605  0.86625130  1  0.073676  0  0.107111  0.110365  0  0.994254  0
H  H15  1  0.20387428  0.84773967  0.63374993  1  0.073718  0  0.107136  0.110362  0  0.994273  0
H  H16  1  0.76837259  0.15923888  0.07811122  1  0.091166  0  0.107318  0.116248  0  0.990612  0
H  H17  1  0.84076243  0.23162617  0.42188801  1  0.091192  0  0.107297  0.116225  0  0.99066  0
H  H18  1  0.23162662  0.84075956  0.92188900  1  0.091163  0  0.107297  0.116207  0  0.990641  0
H  H19  1  0.15923958  0.76837232  0.57811192  1  0.091194  0  0.107307  0.116225  0  0.990677  0
H  H20  1  0.68415820  0.16791686  0.91729269  1  0.127358  0  0.102524  0.10217  0  1.021233  0
H  H21  1  0.83208170  0.31584318  0.58270697  1  0.127336  0  0.102517  0.102155  0  1.021227  0
H  H22  1  0.31584241  0.83208161  0.08270703  1  0.127339  0  0.102504  0.102118  0  1.021255  0
H  H23  1  0.16791961  0.68415814  0.41729204  1  0.12736  0  0.102518  0.102162  0  1.021292  0
H  H24  1  0.75574133  0.23244104  0.84159172  1  0.082584  0  0.10161  0.102479  0  1.020665  0
H  H25  1  0.76755669  0.24426069  0.65840796  1  0.082582  0  0.101602  0.10248  0  1.020663  0
H  H26  1  0.24425858  0.76755836  0.15840797  1  0.08257  0  0.101597  0.102466  0  1.020661  0
H  H27  1  0.23244111  0.75574215  0.34159017  1  0.082575  0  0.101601  0.102462  0  1.020662  0
H  H28  1  0.62456652  0.14389853  0.75183356  1  0.053388  0  0.101548  0.101916  0  1.004576  0
H  H29  1  0.85610313  0.37543200  0.74816643  1  0.053386  0  0.101586  0.101938  0  1.004567  0
H  H30  1  0.37543269  0.85610182  0.24816611  1  0.053393  0  0.101589  0.101984  0  1.004551  0
H  H31  1  0.14389679  0.62456740  0.25183362  1  0.05336  0  0.101587  0.101945  0  1.004589  0
H  H32  1  0.55205970  0.08022499  0.82816830  1  0.080248  0  0.1092  0.116805  0  0.99945  0
H  H33  1  0.91977535  0.44793993  0.67183136  1  0.080248  0  0.109206  0.116839  0  0.999469  0
H  H34  1  0.44794021  0.91977442  0.17183140  1  0.080219  0  0.10921  0.11682  0  0.999481  0
H  H35  1  0.08022596  0.55205949  0.32816855  1  0.080259  0  0.109219  0.116863  0  0.99945  0
H  H36  1  0.16676059  0.20112831  0.94392029  1  0.101596  0  0.110934  0.118886  0  0.987271  0
H  H37  1  0.79887185  0.83323950  0.55607897  1  0.101492  0  0.11093  0.118871  0  0.987284  0
H  H38  1  0.83323932  0.79887236  0.05607928  1  0.101594  0  0.110928  0.118866  0  0.987274  0
H  H39  1  0.20112736  0.16676022  0.44392148  1  0.101583  0  0.110937  0.118885  0  0.987227  0
H  H40  1  0.03366670  0.36194648  0.95452007  1  0.084355  0  0.101315  0.101936  0  1.02214  0
H  H41  1  0.63805330  0.96633343  0.54547995  1  0.084361  0  0.101306  0.101916  0  1.022159  0
H  H42  1  0.96633390  0.63805452  0.04547904  1  0.084357  0  0.101299  0.101461  0  1.022699  0
H  H43  1  0.36194591  0.03366629  0.45452050  1  0.084357  0  0.101325  0.10197  0  1.022128  0
H  H44  1  0.19719495  0.41772747  0.04020298  1  0.035494  0  0.095386  0.089135  0  1.02685  0
H  H45  1  0.58227146  0.80280411  0.45979790  1  0.035516  0  0.095386  0.08914  0  1.026827  0
H  H46  1  0.80280496  0.58227256  0.95979737  1  0.035507  0  0.095396  0.089154  0  1.026826  0
H  H47  1  0.41772846  0.19719467  0.54020257  1  0.035491  0  0.095376  0.089144  0  1.026842  0
H  H48  1  0.32915326  0.25602741  0.03084127  1  0.137612  0  0.105947  0.114432  0  1.066655  0
H  H49  1  0.74397121  0.67084615  0.46915924  1  0.137616  0  0.105955  0.114371  0  1.066666  0
H  H50  1  0.67084595  0.74397167  0.96915888  1  0.137617  0  0.105961  0.11441  0  1.066631  0
H  H51  1  0.25602800  0.32915356  0.53084157  1  0.137612  0  0.105962  0.11444  0  1.066573  0
H  H52  1  0.28414864  0.35421447  0.11245911  1  0.074378  0  0.106377  0.165736  0  0.988194  0
H  H53  1  0.64578547  0.71585029  0.38754060  1  0.074383  0  0.106371  0.165722  0  0.988203  0
H  H54  1  0.71585127  0.64578494  0.88754058  1  0.074383  0  0.106383  0.165733  0  0.988181  0
H  H55  1  0.35421444  0.28414848  0.61245951  1  0.0744  0  0.106377  0.165733  0  0.988225  0
H  H56  1  0.28658888  0.34421796  0.17744024  1  0.072455  0  0.106217  0.160268  0  0.980552  0
H  H57  1  0.65578267  0.71341009  0.32255940  1  0.072446  0  0.106232  0.160284  0  0.980519  0
H  H58  1  0.71341103  0.65578208  0.82255939  1  0.07245  0  0.106233  0.160282  0  0.98051  0
H  H59  1  0.34421795  0.28658901  0.67744061  1  0.072443  0  0.106224  0.160276  0  0.980502  0
H  H60  1  0.23224473  0.28618437  0.15241070  1  0.094741  0  0.111902  0.173568  0  0.96747  0
H  H61  1  0.71381469  0.76775510  0.34758937  1  0.094757  0  0.111892  0.173577  0  0.967492  0
H  H62  1  0.76775518  0.71381504  0.84758935  1  0.09469  0  0.111898  0.173572  0  0.967468  0
H  H63  1  0.28618382  0.23224555  0.65241142  1  0.094776  0  0.111879  0.173549  0  0.967525  0
H  H64  1  0.32347671  0.13559931  0.20277614  1  0.077826  0  0.110761  0.169965  0  0.971051  0
H  H65  1  0.86440114  0.67652463  0.29722400  1  0.077802  0  0.110755  0.169976  0  0.971009  0
H  H66  1  0.67652390  0.86440169  0.79722440  1  0.0778  0  0.110775  0.17001  0  0.970952  0
H  H67  1  0.13559806  0.32347761  0.70277620  1  0.07784  0  0.110747  0.169967  0  0.971028  0
H  H68  1  0.39043709  0.17949637  0.22843066  1  0.079813  0  0.107586  0.16193  0  0.978455  0
H  H69  1  0.82050542  0.60956387  0.27156903  1  0.079805  0  0.107598  0.161956  0  0.978459  0
H  H70  1  0.60956352  0.82050526  0.77156910  1  0.079811  0  0.107548  0.161854  0  0.978372  0
H  H71  1  0.17949589  0.39043745  0.72843070  1  0.079778  0  0.107584  0.16193  0  0.978456  0
H  H72  1  0.45015937  0.07399798  0.19814212  1  0.114106  0  0.116338  0.18365  0  0.97401  0
H  H73  1  0.92600304  0.54984143  0.30185802  1  0.114094  0  0.116328  0.183652  0  0.974013  0
H  H74  1  0.54984124  0.92600302  0.80185842  1  0.114092  0  0.116335  0.183647  0  0.97402  0
H  H75  1  0.07399756  0.45016083  0.69814204  1  0.114087  0  0.116339  0.183675  0  0.973973  0
H  H76  1  0.46871044  0.40250979  0.05478129  1  0.079351  0  0.101162  0.155068  0  0.989361  0
H  H77  1  0.59749083  0.53128946  0.44521898  1  0.079545  0  0.101142  0.155035  0  0.989422  0
H  H78  1  0.53128877  0.59749056  0.94521874  1  0.079357  0  0.101151  0.155041  0  0.989416  0
H  H79  1  0.40250979  0.46871027  0.55478133  1  0.079347  0  0.101163  0.155065  0  0.989405  0
H  H80  1  0.58127334  0.39467655  0.02525781  1  0.046672  0  0.102415  0.156371  0  0.988627  0
H  H81  1  0.60532416  0.41872650  0.47474173  1  0.046683  0  0.102435  0.156414  0  0.98858  0
H  H82  1  0.41872657  0.60532348  0.97474182  1  0.046673  0  0.102426  0.156406  0  0.988587  0
H  H83  1  0.39467645  0.58127323  0.52525786  1  0.046681  0  0.10243  0.156384  0  0.988627  0
H  H84  1  0.57662148  0.30904288  0.07490475  1  0.099997  0  0.111242  0.173751  0  0.990826  0
H  H85  1  0.69095742  0.42337905  0.42509477  1  0.099983  0  0.111236  0.173748  0  0.990827  0
H  H86  1  0.42337843  0.69095716  0.92509524  1  0.099995  0  0.111245  0.173748  0  0.990823  0
H  H87  1  0.30904319  0.57662131  0.57490476  1  0.099996  0  0.11124  0.17375  0  0.990828  0
H  H88  1  0.46925909  0.33260546  0.92923506  1  0.099239  0  0.116503  0.181811  0  0.962067  0
H  H89  1  0.66739491  0.53073994  0.57076501  1  0.099228  0  0.116498  0.181789  0  0.962101  0
H  H90  1  0.53074082  0.66739394  0.07076499  1  0.099244  0  0.116495  0.181789  0  0.962114  0
H  H91  1  0.33260570  0.46925917  0.42923537  1  0.09925  0  0.116507  0.181828  0  0.962064  0
H  H92  1  0.51636566  0.40910853  0.93988740  1  0.072685  0  0.103281  0.156482  0  0.989458  0
H  H93  1  0.59089218  0.48363338  0.56011264  1  0.072674  0  0.10327  0.156487  0  0.98944  0
H  H94  1  0.48363425  0.59089151  0.06011295  1  0.072671  0  0.10326  0.156466  0  0.989471  0
H  H95  1  0.40910773  0.51636540  0.43988748  1  0.072697  0  0.103281  0.156488  0  0.98947  0
H  H96  1  0.40763419  0.41464138  0.97422892  1  0.102677  0  0.105189  0.163223  0  0.981416  0
H  H97  1  0.58535864  0.59236602  0.52577143  1  0.102689  0  0.105182  0.163203  0  0.98142  0
H  H98  1  0.59236572  0.58535803  0.02577114  1  0.10268  0  0.105192  0.163222  0  0.98141  0
H  H99  1  0.41464127  0.40763402  0.47422892  1  0.102673  0  0.105184  0.163219  0  0.981424  0
C  C100  1  0.64108659  0.09033509  0.10538050  1  1.532957  0  0.186017  0.557409  0  4.257612  0
C  C101  1  0.90966509  0.35891320  0.39461911  1  1.532953  0  0.186007  0.557413  0  4.257626  0
C  C102  1  0.35891332  0.90966369  0.89461962  1  1.533066  0  0.18603  0.557424  0  4.257616  0
C  C103  1  0.09033552  0.64108717  0.60538078  1  1.533001  0  0.186052  0.557438  0  4.257566  0
C  C104  1  0.69363061  0.10965655  0.13805368  1  -0.088263  0  -0.01236  -0.01358  0  3.947696  0
C  C105  1  0.89034494  0.30636810  0.36194590  1  -0.08847  0  -0.012283  -0.013466  0  3.947657  0
C  C106  1  0.30636790  0.89034347  0.86194681  1  -0.088269  0  -0.012386  -0.013622  0  3.947878  0
C  C107  1  0.10965637  0.69363070  0.63805408  1  -0.088438  0  -0.012307  -0.013512  0  3.947719  0
C  C108  1  0.67751696  0.09307589  0.18916408  1  0.040633  0  -0.084994  -0.088713  0  3.989397  0
C  C109  1  0.90692520  0.32248232  0.31083548  1  0.040833  0  -0.085045  -0.088874  0  3.989434  0
C  C110  1  0.32248014  0.90692538  0.81083643  1  0.040668  0  -0.08503  -0.08883  0  3.989396  0
C  C111  1  0.09307541  0.67751741  0.68916447  1  0.040801  0  -0.084961  -0.088683  0  3.989421  0
C  C112  1  0.72089964  0.11694658  0.21984737  1  -0.015183  0  -0.087834  -0.14611  0  3.964047  0
C  C113  1  0.88305424  0.27909947  0.28015224  1  -0.015324  0  -0.087829  -0.146052  0  3.964074  0
C  C114  1  0.27909747  0.88305405  0.78015320  1  -0.015033  0  -0.087806  -0.14604  0  3.963904  0
C  C115  1  0.11694568  0.72089993  0.71984817  1  -0.015293  0  -0.087913  -0.146212  0  3.964095  0
C  C116  1  0.78162408  0.15811536  0.19941006  1  0.356025  0  0.085095  0.170756  0  4.048318  0
C  C117  1  0.84188507  0.21837558  0.30058954  1  0.356074  0  0.085094  0.170738  0  4.048342  0
C  C118  1  0.21837302  0.84188653  0.80059075  1  0.356059  0  0.085091  0.170717  0  4.048333  0
C  C119  1  0.15811554  0.78162352  0.69941048  1  0.356237  0  0.085053  0.170632  0  4.048449  0
C  C120  1  0.79978789  0.17255284  0.14833760  1  -0.10342  0  -0.081499  -0.143681  0  3.967992  0
C  C121  1  0.82744779  0.20021122  0.35166203  1  -0.103469  0  -0.081516  -0.143666  0  3.968047  0
C  C122  1  0.20021062  0.82744717  0.85166289  1  -0.103413  0  -0.081503  -0.143693  0  3.967998  0
C  C123  1  0.17255282  0.79978851  0.64833828  1  -0.103627  0  -0.081511  -0.143605  0  3.967994  0
C  C124  1  0.75601459  0.14829440  0.11784607  1  0.024558  0  -0.085662  -0.09221  0  3.981275  0
C  C125  1  0.85170656  0.24398493  0.38215312  1  0.024638  0  -0.085677  -0.092222  0  3.981387  0
C  C126  1  0.24398392  0.85170561  0.88215442  1  0.024478  0  -0.085623  -0.092104  0  3.981448  0
C  C127  1  0.14829475  0.75601450  0.61784679  1  0.024613  0  -0.085678  -0.092223  0  3.981387  0
C  C128  1  0.56989666  0.08352124  0.92138864  1  1.590709  0  0.233427  0.643325  0  4.151377  0
C  C129  1  0.91648117  0.43010334  0.57861185  1  1.590826  0  0.233485  0.643428  0  4.151308  0
C  C130  1  0.43010185  0.91647941  0.07861179  1  1.590807  0  0.233397  0.64319  0  4.151445  0
C  C131  1  0.08352365  0.56989646  0.42138839  1  1.590313  0  0.233515  0.643448  0  4.151195  0
C  C132  1  0.61311888  0.12193807  0.87662744  1  -0.021448  0  -0.010111  -0.023039  0  3.926774  0
C  C133  1  0.87806134  0.38688255  0.62337213  1  -0.021442  0  -0.010063  -0.022954  0  3.926693  0
C  C134  1  0.38688244  0.87806072  0.12337182  1  -0.021461  0  -0.010072  -0.022941  0  3.926705  0
C  C135  1  0.12193927  0.61311844  0.37662698  1  -0.021049  0  -0.010065  -0.022904  0  3.926647  0
C  C136  1  0.67084780  0.16441937  0.88075197  1  -0.082255  0  -0.084718  -0.087293  0  3.981457  0
C  C137  1  0.83557933  0.32915404  0.61924799  1  -0.087785  0  -0.084707  -0.08724  0  3.981439  0
C  C138  1  0.32915282  0.83557973  0.11924768  1  -0.082255  0  -0.084701  -0.087193  0  3.981429  0
C  C139  1  0.16442128  0.67084632  0.38075155  1  -0.087769  0  -0.084713  -0.087288  0  3.981474  0
C  C140  1  0.71045462  0.19973561  0.83919388  1  -0.039038  0  -0.088191  -0.143829  0  3.955066  0
C  C141  1  0.80026331  0.28954701  0.66080607  1  -0.033483  0  -0.088236  -0.143902  0  3.955182  0
C  C142  1  0.28954670  0.80026318  0.16080609  1  -0.039039  0  -0.088232  -0.143947  0  3.955139  0
C  C143  1  0.19973659  0.71045428  0.33919308  1  -0.033458  0  -0.088258  -0.143911  0  3.955074  0
C  C144  1  0.69263672  0.19272243  0.79258756  1  0.360844  0  0.082882  0.168156  0  4.055366  0
C  C145  1  0.80727690  0.30736531  0.70741195  1  0.361043  0  0.082954  0.16819  0  4.055447  0
C  C146  1  0.30736389  0.80727730  0.20741167  1  0.361053  0  0.082924  0.16831  0  4.055381  0
C  C147  1  0.19272160  0.69263723  0.29258685  1  0.360804  0  0.082971  0.168242  0  4.055407  0
C  C148  1  0.63614098  0.14903047  0.78844967  1  -0.079214  0  -0.086827  -0.149927  0  3.985379  0
C  C149  1  0.85096909  0.36385858  0.71155007  1  -0.079416  0  -0.086772  -0.149784  0  3.985517  0
C  C150  1  0.36385963  0.85096863  0.21154999  1  -0.079392  0  -0.086845  -0.15002  0  3.985419  0
C  C151  1  0.14903082  0.63614082  0.28844926  1  -0.079197  0  -0.086788  -0.149812  0  3.985467  0
C  C152  1  0.59646402  0.11411397  0.83021257  1  0.010456  0  -0.083256  -0.087535  0  3.983442  0
C  C153  1  0.88588583  0.40353605  0.66978782  1  0.010421  0  -0.083395  -0.087811  0  3.983635  0
C  C154  1  0.40353660  0.88588513  0.16978745  1  0.010467  0  -0.083275  -0.087591  0  3.983438  0
C  C155  1  0.11411548  0.59646337  0.33021174  1  0.010413  0  -0.083379  -0.087815  0  3.983665  0
C  C156  1  0.33205447  0.12339048  0.98123114  1  1.582724  0  0.223749  0.627878  0  4.165739  0
C  C157  1  0.87661001  0.66794583  0.51876915  1  1.58272  0  0.22371  0.627778  0  4.165881  0
C  C158  1  0.66794614  0.87660988  0.01876875  1  1.582733  0  0.223755  0.627949  0  4.165732  0
C  C159  1  0.12339061  0.33205454  0.48123182  1  1.582728  0  0.22373  0.62795  0  4.165745  0
C  C160  1  0.25483840  0.21940640  0.98715107  1  -0.072483  0  -0.005472  -0.013237  0  3.916127  0
C  C161  1  0.78059307  0.74516089  0.51284906  1  -0.072469  0  -0.005466  -0.013218  0  3.916146  0
C  C162  1  0.74516151  0.78059364  0.01284928  1  -0.0725  0  -0.005479  -0.01331  0  3.916178  0
C  C163  1  0.21940684  0.25483789  0.48715141  1  -0.07249  0  -0.005442  -0.013243  0  3.916114  0
C  C164  1  0.17183119  0.24933847  0.96519589  1  0.003943  0  -0.077189  -0.078987  0  3.965211  0
C  C165  1  0.75066201  0.82816847  0.53480410  1  0.004039  0  -0.077196  -0.07899  0  3.965217  0
C  C166  1  0.82816872  0.75066220  0.03480368  1  0.00393  0  -0.077162  -0.078889  0  3.965022  0
C  C167  1  0.24933790  0.17183094  0.46519703  1  0.003985  0  -0.077206  -0.078938  0  3.965176  0
C  C168  1  0.09873614  0.33769058  0.97088598  1  -0.03447  0  -0.089168  -0.149873  0  3.964098  0
C  C169  1  0.66230936  0.90126328  0.52911409  1  -0.034459  0  -0.08916  -0.149854  0  3.964125  0
C  C170  1  0.90126447  0.66230978  0.02911355  1  -0.034471  0  -0.089155  -0.149447  0  3.964285  0
C  C171  1  0.33768986  0.09873581  0.47088642  1  -0.034477  0  -0.089165  -0.149928  0  3.964132  0
C  C172  1  0.10836869  0.39791598  0.99857566  1  0.396511  0  0.082  0.168477  0  4.062439  0
C  C173  1  0.60208381  0.89163108  0.50142475  1  0.396571  0  0.082039  0.168496  0  4.062386  0
C  C174  1  0.89163122  0.60208469  0.00142427  1  0.396499  0  0.081994  0.168449  0  4.062396  0
C  C175  1  0.39791610  0.10836895  0.49857596  1  0.396517  0  0.082007  0.168494  0  4.062494  0
C  C176  1  0.19200108  0.36868808  0.01949131  1  -0.137291  0  -0.089913  -0.152622  0  3.987764  0
C  C177  1  0.63131082  0.80799785  0.48050958  1  -0.137381  0  -0.089928  -0.152649  0  3.987721  0
C  C178  1  0.80799883  0.63131196  0.98050904  1  -0.137302  0  -0.089895  -0.152613  0  3.98779  0
C  C179  1  0.36868840  0.19200123  0.51949129  1  -0.137303  0  -0.089906  -0.152647  0  3.987852  0
C  C180  1  0.26463874  0.27971200  0.01421540  1  0.023737  0  -0.083335  -0.085058  0  3.95702  0
C  C181  1  0.72028740  0.73536168  0.48578494  1  0.023725  0  -0.083348  -0.084972  0  3.957019  0
C  C182  1  0.73536188  0.72028773  0.98578491  1  0.023759  0  -0.083363  -0.085022  0  3.957016  0
C  C183  1  0.27971181  0.26463803  0.51421551  1  0.023741  0  -0.083345  -0.085062  0  3.956983  0
C  C184  1  0.28890826  0.30815892  0.14674978  1  -0.224191  0  -0.227426  -0.497746  0  3.838458  0
C  C185  1  0.69184161  0.71109064  0.35325024  1  -0.224211  0  -0.227436  -0.497778  0  3.838476  0
C  C186  1  0.71109165  0.69184111  0.85325022  1  -0.224143  0  -0.227437  -0.497759  0  3.838418  0
C  C187  1  0.30815830  0.28890877  0.64675017  1  -0.224224  0  -0.227408  -0.497731  0  3.838524  0
C  C188  1  0.38910419  0.14266804  0.19899955  1  -0.228301  0  -0.224184  -0.496895  0  3.820405  0
C  C189  1  0.85733339  0.61089610  0.30100023  1  -0.228285  0  -0.224206  -0.496972  0  3.820405  0
C  C190  1  0.61089572  0.85733326  0.80100067  1  -0.22827  0  -0.224183  -0.496898  0  3.820254  0
C  C191  1  0.14266721  0.38910552  0.69899953  1  -0.228264  0  -0.224168  -0.496921  0  3.820368  0
C  C192  1  0.54189843  0.35522284  0.04340863  1  -0.215921  0  -0.229407  -0.503079  0  3.835695  0
C  C193  1  0.64477777  0.45810113  0.45659132  1  -0.216121  0  -0.229432  -0.503109  0  3.835702  0
C  C194  1  0.45810148  0.64477720  0.95659136  1  -0.215937  0  -0.229407  -0.503079  0  3.835685  0
C  C195  1  0.35522284  0.54189797  0.54340870  1  -0.215929  0  -0.22941  -0.503069  0  3.835753  0
C  C196  1  0.47681489  0.36914493  0.95687769  1  -0.249613  0  -0.226688  -0.501406  0  3.827388  0
C  C197  1  0.63085545  0.52318440  0.54312235  1  -0.249597  0  -0.226673  -0.501357  0  3.827362  0
C  C198  1  0.52318502  0.63085510  0.04312230  1  -0.249604  0  -0.226661  -0.501357  0  3.827428  0
C  C199  1  0.36914517  0.47681470  0.45687802  1  -0.249617  0  -0.226706  -0.501443  0  3.827409  0
S  S200  1  0.40144972  0.20703405  0.14074786  1  1.23048  0  0.296097  0.662572  0  4.081838  0
S  S201  1  0.79296694  0.59855001  0.35925167  1  1.230273  0  0.296122  0.662618  0  4.081819  0
S  S202  1  0.59855089  0.79296631  0.85925203  1  1.230507  0  0.296114  0.662614  0  4.081811  0
S  S203  1  0.20703367  0.40144972  0.64074828  1  1.230471  0  0.29609  0.662555  0  4.081823  0
S  S204  1  0.54376568  0.27897862  0.00197403  1  1.26162  0  0.31685  0.714306  0  4.045308  0
S  S205  1  0.72102202  0.45623386  0.49802555  1  1.261597  0  0.316773  0.714171  0  4.045308  0
S  S206  1  0.45623423  0.72102141  0.99802560  1  1.261598  0  0.316803  0.714257  0  4.045311  0
S  S207  1  0.27897789  0.54376554  0.50197450  1  1.261603  0  0.316839  0.714288  0  4.045383  0
N  N208  1  0.82355889  0.19190784  0.22699196  1  -0.46166  0  -0.15302  -0.141791  0  3.291098  0
N  N209  1  0.80809266  0.17644216  0.27300677  1  -0.521725  0  -0.153  -0.141829  0  3.291176  0
N  N210  1  0.17643961  0.80809281  0.77300811  1  -0.461699  0  -0.153023  -0.141828  0  3.2911  0
N  N211  1  0.19190654  0.82355881  0.72699320  1  -0.521705  0  -0.152962  -0.141713  0  3.29117  0
N  N212  1  0.72759793  0.22719966  0.74784917  1  -0.44329  0  -0.155694  -0.145327  0  3.303163  0
N  N213  1  0.77280056  0.27240169  0.75215050  1  -0.508819  0  -0.155602  -0.145122  0  3.303058  0
N  N214  1  0.27240198  0.77279974  0.25215017  1  -0.508794  0  -0.155693  -0.145352  0  3.303211  0
N  N215  1  0.22719935  0.72759771  0.24784884  1  -0.443339  0  -0.155638  -0.145177  0  3.3032  0
N  N216  1  0.03908438  0.48863978  0.00765157  1  -0.514897  0  -0.156986  -0.146357  0  3.304708  0
N  N217  1  0.51136011  0.96091476  0.49234920  1  -0.514885  0  -0.156984  -0.146337  0  3.304766  0
N  N218  1  0.96091623  0.51136121  0.99234825  1  -0.47829  0  -0.15693  -0.146266  0  3.304775  0
N  N219  1  0.48863910  0.03908432  0.50765167  1  -0.478312  0  -0.156937  -0.146316  0  3.304824  0
O  O220  1  0.58386449  0.05557657  0.12447174  1  -1.174393  0  -0.379907  -0.644685  0  2.230871  0
O  O221  1  0.94442406  0.41613447  0.37552826  1  -1.174392  0  -0.379893  -0.644718  0  2.230904  0
O  O222  1  0.41613472  0.94442251  0.87552842  1  -1.174463  0  -0.379877  -0.64465  0  2.230869  0
O  O223  1  0.05557655  0.58386526  0.62447169  1  -1.174423  0  -0.379898  -0.644683  0  2.230875  0
O  O224  1  0.65173245  0.11231615  0.05936672  1  -1.164238  0  -0.369591  -0.632057  0  2.243274  0
O  O225  1  0.88768437  0.34826689  0.44063289  1  -1.164211  0  -0.36957  -0.632022  0  2.243259  0
O  O226  1  0.34826747  0.88768263  0.94063339  1  -1.164253  0  -0.369588  -0.632051  0  2.243277  0
O  O227  1  0.11231694  0.65173317  0.55936696  1  -1.164228  0  -0.369589  -0.632054  0  2.24325  0
O  O228  1  0.58412279  0.09498445  0.96289622  1  -1.186388  0  -0.387705  -0.663996  0  2.308632  0
O  O229  1  0.90501743  0.41587789  0.53710282  1  -1.18634  0  -0.387783  -0.664135  0  2.308545  0
O  O230  1  0.41587571  0.90501683  0.03710271  1  -1.186393  0  -0.387761  -0.664038  0  2.308573  0
O  O231  1  0.09498528  0.58412281  0.46289611  1  -1.186397  0  -0.387811  -0.664171  0  2.308665  0
O  O232  1  0.52217485  0.04290461  0.91399967  1  -1.178641  0  -0.392764  -0.646601  0  2.312912  0
O  O233  1  0.95709639  0.47782400  0.58600143  1  -1.178791  0  -0.392742  -0.646587  0  2.312976  0
O  O234  1  0.47782296  0.95709761  0.08600031  1  -1.17871  0  -0.392697  -0.646455  0  2.312931  0
O  O235  1  0.04290493  0.52217479  0.41399926  1  -1.178602  0  -0.392737  -0.646586  0  2.312842  0
O  O236  1  0.40497405  0.09441648  0.00381875  1  -1.217565  0  -0.416303  -0.723965  0  2.423064  0
O  O237  1  0.90558387  0.59502636  0.49618042  1  -1.217554  0  -0.416266  -0.723904  0  2.423056  0
O  O238  1  0.59502585  0.90558419  0.99618082  1  -1.217565  0  -0.416302  -0.723962  0  2.423015  0
O  O239  1  0.09441674  0.40497400  0.50381911  1  -1.217585  0  -0.416312  -0.723974  0  2.423083  0
O  O240  1  0.32390599  0.07265831  0.95386083  1  -1.162275  0  -0.370689  -0.602129  0  2.195915  0
O  O241  1  0.92734119  0.67609371  0.54613855  1  -1.162281  0  -0.370693  -0.602117  0  2.196052  0
O  O242  1  0.67609322  0.92734140  0.04613927  1  -1.162283  0  -0.370683  -0.602187  0  2.195959  0
O  O243  1  0.07265802  0.32390537  0.45386161  1  -1.16226  0  -0.37068  -0.602214  0  2.195869  0
O  O244  1  0.39264529  0.15480051  0.10290597  1  -1.237485  0  -0.38252  -0.601614  0  2.238957  0
O  O245  1  0.84520014  0.60735484  0.39709391  1  -1.237242  0  -0.382518  -0.601597  0  2.238909  0
O  O246  1  0.60735462  0.84519953  0.89709402  1  -1.237447  0  -0.382521  -0.601605  0  2.238926  0
O  O247  1  0.15480048  0.39264489  0.60290604  1  -1.237429  0  -0.38251  -0.601573  0  2.238894  0
O  O248  1  0.47637741  0.23971780  0.02850750  1  -1.252697  0  -0.386048  -0.637359  0  2.278996  0
O  O249  1  0.76028253  0.52362295  0.47149204  1  -1.25268  0  -0.385956  -0.637223  0  2.278999  0
O  O250  1  0.52362320  0.76028193  0.97149246  1  -1.252673  0  -0.38601  -0.637332  0  2.279032  0
O  O251  1  0.23971878  0.47637710  0.52850781  1  -1.25269  0  -0.386021  -0.637319  0  2.279043  0
