# generated using pymatgen
data_CdH12C10(SN3)2
_symmetry_space_group_name_H-M   'P 1'
_cell_length_a   5.77230911
_cell_length_b   7.79641973
_cell_length_c   8.80266178
_cell_angle_alpha   110.31095916
_cell_angle_beta   106.87126481
_cell_angle_gamma   96.50142211
_symmetry_Int_Tables_number   1
_chemical_formula_structural   CdH12C10(SN3)2
_chemical_formula_sum   'Cd1 H12 C10 S2 N6'
_cell_volume   345.27497790
_cell_formula_units_Z   1
loop_
 _symmetry_equiv_pos_site_id
 _symmetry_equiv_pos_as_xyz
  1  'x, y, z'
loop_
 _atom_site_type_symbol
 _atom_site_label
 _atom_site_symmetry_multiplicity
 _atom_site_fract_x
 _atom_site_fract_y
 _atom_site_fract_z
 _atom_site_occupancy
 _atom_site_hle17_bader_spin_density
 _atom_site_hle17_ddec_charge
 _atom_site_hle17_ddec_spin_density
 _atom_site_hle17_ddec_sum_bond_order
 _atom_site_hle17_magmom
 _atom_site_hse06_10hf_bader_spin_density
 _atom_site_hse06_10hf_ddec_charge
 _atom_site_hse06_10hf_ddec_spin_density
 _atom_site_hse06_10hf_ddec_sum_bond_order
 _atom_site_hse06_10hf_magmom
 _atom_site_hse06_bader_spin_density
 _atom_site_hse06_ddec_charge
 _atom_site_hse06_ddec_spin_density
 _atom_site_hse06_ddec_sum_bond_order
 _atom_site_hse06_magmom
 _atom_site_pbe_bader_spin_density
 _atom_site_pbe_cm5_charge
 _atom_site_pbe_ddec_charge
 _atom_site_pbe_ddec_spin_density
 _atom_site_pbe_ddec_sum_bond_order
 _atom_site_pbe_magmom
Cd  Cd0  1  0.00000803  0.00000543  0.50000174  1  0  0.959969  0  1.990373  0  0  0.787538  0  2.449378  0  0  0.830798  0  2.414835  0  0  0.723222  0.75765  0  2.472267  0
H  H1  1  0.76150564  0.42796579  0.11361174  1  0  0.107418  0  0.938619  0  0  0.126336  0  1.002392  0  0  0.127271  0  1.002515  0  0  0.104421  0.125548  0  1.002451  0
H  H2  1  0.23848281  0.57202764  0.88639697  1  0  0.107359  0  0.93865  0  0  0.126283  0  1.002425  0  0  0.127218  0  1.002549  0  0  0.104359  0.125503  0  1.002475  0
H  H3  1  0.06247481  0.49463120  0.27773460  1  0  0.108169  0  0.956023  0  0  0.126267  0  1.023315  0  0  0.126417  0  1.024092  0  0  0.101358  0.126015  0  1.022928  0
H  H4  1  0.93752513  0.50535824  0.72227050  1  0  0.108169  0  0.955983  0  0  0.126226  0  1.023324  0  0  0.126372  0  1.0241  0  0  0.101332  0.125973  0  1.022941  0
H  H5  1  0.84866713  0.28356491  0.23071761  1  0  0.110155  0  0.950677  0  0  0.127742  0  1.018994  0  0  0.128286  0  1.019145  0  0  0.101263  0.127242  0  1.019004  0
H  H6  1  0.15133869  0.71642608  0.76928227  1  0  0.110131  0  0.950684  0  0  0.127732  0  1.018979  0  0  0.128278  0  1.019126  0  0  0.10128  0.127232  0  1.018988  0
H  H7  1  0.72501827  0.23820302  0.80840456  1  0  0.086892  0  0.973147  0  0  0.092819  0  1.047145  0  0  0.0949  0  1.044855  0  0  0.123974  0.091225  0  1.048803  0
H  H8  1  0.27497364  0.76179618  0.19159411  1  0  0.086863  0  0.973171  0  0  0.092828  0  1.047128  0  0  0.09492  0  1.044824  0  0  0.123968  0.091231  0  1.048788  0
H  H9  1  0.35553158  0.24711126  0.20629124  1  0  0.113265  0  0.990261  0  0  0.120229  0  1.058274  0  0  0.122225  0  1.057849  0  0  0.113681  0.118749  0  1.058665  0
H  H10  1  0.64445646  0.75288086  0.79370562  1  0  0.113356  0  0.990392  0  0  0.120344  0  1.058352  0  0  0.122345  0  1.057933  0  0  0.113739  0.118864  0  1.058744  0
H  H11  1  0.39308702  0.05455134  0.88352892  1  0  0.100177  0  0.973098  0  0  0.110117  0  1.036388  0  0  0.112203  0  1.035511  0  0  0.111776  0.108588  0  1.037144  0
H  H12  1  0.60691925  0.94545373  0.11646864  1  0  0.100141  0  0.973044  0  0  0.110083  0  1.036331  0  0  0.112172  0  1.035449  0  0  0.111742  0.108547  0  1.037095  0
C  C13  1  0.91527594  0.37547253  0.17422924  1  0  -0.175282  0  3.625281  0  0  -0.277511  0  3.869508  0  0  -0.273751  0  3.878229  0  0  -0.134372  -0.279773  0  3.863665  0
C  C14  1  0.08472160  0.62452113  0.82576990  1  0  -0.175214  0  3.625159  0  0  -0.27743  0  3.869425  0  0  -0.273666  0  3.878142  0  0  -0.134329  -0.2797  0  3.863573  0
C  C15  1  0.90215182  0.21219843  0.86951905  1  0  0.151045  0  3.658425  0  0  0.092708  0  3.919548  0  0  0.105793  0  3.934517  0  0  0.134554  0.084369  0  3.909166  0
C  C16  1  0.09784899  0.78780651  0.13048198  1  0  0.151056  0  3.658237  0  0  0.092686  0  3.919368  0  0  0.105762  0  3.934327  0  0  0.134606  0.084348  0  3.908984  0
C  C17  1  0.23356844  0.21543132  0.07576464  1  0  -0.06208  0  3.669827  0  0  -0.102098  0  3.926714  0  0  -0.099949  0  3.945702  0  0  -0.002479  -0.103455  0  3.913998  0
C  C18  1  0.76641942  0.78456649  0.92422375  1  0  -0.062175  0  3.669773  0  0  -0.102208  0  3.926631  0  0  -0.100069  0  3.945626  0  0  -0.002534  -0.103568  0  3.913914  0
C  C19  1  0.24958401  0.12136938  0.91651583  1  0  -0.017939  0  3.777134  0  0  -0.051764  0  4.046218  0  0  -0.049707  0  4.065865  0  0  -0.014615  -0.053152  0  4.032958  0
C  C20  1  0.75041781  0.87863282  0.08347885  1  0  -0.017889  0  3.776997  0  0  -0.051701  0  4.04608  0  0  -0.049644  0  4.065726  0  0  -0.014584  -0.053085  0  4.032815  0
C  C21  1  0.53590901  0.22308386  0.49334444  1  0  0.282941  0  4.037857  0  0  0.262055  0  4.345022  0  0  0.283728  0  4.358466  0  0  0.140345  0.247439  0  4.335493  0
C  C22  1  0.46409886  0.77691427  0.50664556  1  0  0.282898  0  4.037382  0  0  0.262008  0  4.344597  0  0  0.283681  0  4.358049  0  0  0.140306  0.247391  0  4.335066  0
S  S23  1  0.34465803  0.32630572  0.57517820  1  0  -0.327789  0  2.154522  0  0  -0.29561  0  2.487506  0  0  -0.312133  0  2.482542  0  0  -0.135453  -0.284126  0  2.490427  0
S  S24  1  0.65534256  0.67369216  0.42482626  1  0  -0.327643  0  2.154696  0  0  -0.295477  0  2.487702  0  0  -0.311996  0  2.482745  0  0  -0.135403  -0.284  0  2.490624  0
N  N25  1  0.01326401  0.27285091  0.04376856  1  0  -0.023381  0  3.594683  0  0  0.079364  0  3.807522  0  0  0.06458  0  3.834744  0  0  -0.246897  0.089066  0  3.789004  0
N  N26  1  0.98673212  0.72714413  0.95623075  1  0  -0.023337  0  3.594332  0  0  0.079411  0  3.807186  0  0  0.064627  0  3.83441  0  0  -0.24686  0.089113  0  3.788668  0
N  N27  1  0.04197200  0.12019763  0.78897022  1  0  -0.389426  0  3.298158  0  0  -0.313212  0  3.576096  0  0  -0.334865  0  3.597124  0  0  -0.363466  -0.298372  0  3.561138  0
N  N28  1  0.95803045  0.87981298  0.21102835  1  0  -0.389462  0  3.298147  0  0  -0.313259  0  3.576095  0  0  -0.33492  0  3.597148  0  0  -0.363531  -0.298413  0  3.561119  0
N  N29  1  0.67629513  0.15033797  0.43249718  1  0  -0.544141  0  2.839828  0  0  -0.491199  0  3.115113  0  0  -0.510383  0  3.121133  0  0  -0.395695  -0.478169  0  3.110823  0
N  N30  1  0.32370691  0.84967116  0.56750993  1  0  -0.544244  0  2.839113  0  0  -0.491307  0  3.114431  0  0  -0.510496  0  3.120454  0  0  -0.395707  -0.478279  0  3.110144  0
