# generated using pymatgen
data_AgH8C9S2N3O2
_symmetry_space_group_name_H-M   'P 1'
_cell_length_a   5.40362773
_cell_length_b   13.15154231
_cell_length_c   15.83445671
_cell_angle_alpha   110.35805712
_cell_angle_beta   90.00011203
_cell_angle_gamma   89.99887471
_symmetry_Int_Tables_number   1
_chemical_formula_structural   AgH8C9S2N3O2
_chemical_formula_sum   'Ag4 H32 C36 S8 N12 O8'
_cell_volume   1055.00288741
_cell_formula_units_Z   4
loop_
 _symmetry_equiv_pos_site_id
 _symmetry_equiv_pos_as_xyz
  1  'x, y, z'
loop_
 _atom_site_type_symbol
 _atom_site_label
 _atom_site_symmetry_multiplicity
 _atom_site_fract_x
 _atom_site_fract_y
 _atom_site_fract_z
 _atom_site_occupancy
 _atom_site_hle17_bader_spin_density
 _atom_site_hle17_ddec_charge
 _atom_site_hle17_ddec_spin_density
 _atom_site_hle17_ddec_sum_bond_order
 _atom_site_hle17_magmom
 _atom_site_hse06_10hf_bader_spin_density
 _atom_site_hse06_10hf_ddec_charge
 _atom_site_hse06_10hf_ddec_spin_density
 _atom_site_hse06_10hf_ddec_sum_bond_order
 _atom_site_hse06_10hf_magmom
 _atom_site_hse06_bader_spin_density
 _atom_site_hse06_ddec_charge
 _atom_site_hse06_ddec_spin_density
 _atom_site_hse06_ddec_sum_bond_order
 _atom_site_hse06_magmom
 _atom_site_pbe_bader_spin_density
 _atom_site_pbe_cm5_charge
 _atom_site_pbe_ddec_charge
 _atom_site_pbe_ddec_spin_density
 _atom_site_pbe_ddec_sum_bond_order
 _atom_site_pbe_magmom
Ag  Ag0  1  0.43600278  0.10842682  0.04836131  1  0  0.504149  0  1.554186  0  0  0.371317  0  2.009096  0  0  0.397874  0  1.965029  0  0  0.451012  0.353015  0  2.039284  0
Ag  Ag1  1  0.93599745  0.89157662  0.45164500  1  0  0.504194  0  1.554084  0  0  0.371368  0  2.009005  0  0  0.397925  0  1.964942  0  0  0.451033  0.353056  0  2.039216  0
Ag  Ag2  1  0.56399206  0.89157514  0.95163710  1  0  0.504226  0  1.554093  0  0  0.371389  0  2.009004  0  0  0.39794  0  1.964944  0  0  0.451034  0.353103  0  2.039167  0
Ag  Ag3  1  0.06399739  0.10842453  0.54835823  1  0  0.504177  0  1.554054  0  0  0.371317  0  2.008963  0  0  0.39788  0  1.964894  0  0  0.451001  0.353016  0  2.039154  0
H  H4  1  0.97589255  0.81401146  0.80071514  1  0  0.105097  0  0.949106  0  0  0.117722  0  1.006944  0  0  0.119862  0  1.005306  0  0  0.117606  0.116091  0  1.008269  0
H  H5  1  0.47590828  0.18598786  0.69928150  1  0  0.105108  0  0.949209  0  0  0.117758  0  1.006995  0  0  0.119897  0  1.00536  0  0  0.117614  0.116122  0  1.008323  0
H  H6  1  0.02410229  0.18599050  0.19928327  1  0  0.10508  0  0.949102  0  0  0.117708  0  1.006941  0  0  0.119845  0  1.005308  0  0  0.117606  0.116069  0  1.008276  0
H  H7  1  0.52409766  0.81400843  0.30072096  1  0  0.105027  0  0.949086  0  0  0.117663  0  1.006917  0  0  0.1198  0  1.005284  0  0  0.117633  0.116056  0  1.00821  0
H  H8  1  0.34933279  0.92551497  0.76228871  1  0  0.12777  0  1.009152  0  0  0.131604  0  1.079623  0  0  0.134022  0  1.080666  0  0  0.096974  0.129849  0  1.079064  0
H  H9  1  0.84933624  0.07447897  0.73771138  1  0  0.127783  0  1.009121  0  0  0.131638  0  1.079576  0  0  0.134055  0  1.08062  0  0  0.09697  0.129883  0  1.079013  0
H  H10  1  0.65067501  0.07449024  0.23771821  1  0  0.127838  0  1.009042  0  0  0.131669  0  1.079501  0  0  0.134088  0  1.080543  0  0  0.097013  0.129916  0  1.078941  0
H  H11  1  0.15066600  0.92551002  0.26228645  1  0  0.127801  0  1.009098  0  0  0.131662  0  1.079528  0  0  0.13408  0  1.080571  0  0  0.097006  0.129908  0  1.078966  0
H  H12  1  0.62831050  0.25161793  0.85854540  1  0  0.094587  0  0.957465  0  0  0.104244  0  1.023224  0  0  0.106293  0  1.022702  0  0  0.098968  0.10273  0  1.023657  0
H  H13  1  0.12831290  0.74838362  0.64146123  1  0  0.094605  0  0.957402  0  0  0.104238  0  1.023207  0  0  0.10629  0  1.022681  0  0  0.098964  0.102726  0  1.023634  0
H  H14  1  0.37169174  0.74838322  0.14145593  1  0  0.094604  0  0.957434  0  0  0.10423  0  1.023226  0  0  0.106279  0  1.022706  0  0  0.098986  0.102721  0  1.02365  0
H  H15  1  0.87171340  0.25162320  0.35853668  1  0  0.094513  0  0.957251  0  0  0.104144  0  1.02309  0  0  0.106193  0  1.022573  0  0  0.098942  0.102616  0  1.023532  0
H  H16  1  0.77090145  0.31842552  0.73749334  1  0  0.109464  0  0.967434  0  0  0.117166  0  1.033354  0  0  0.121144  0  1.031416  0  0  0.100577  0.11432  0  1.034877  0
H  H17  1  0.27091370  0.68155937  0.76250537  1  0  0.109552  0  0.967409  0  0  0.117287  0  1.033265  0  0  0.121266  0  1.03133  0  0  0.100616  0.114441  0  1.034794  0
H  H18  1  0.22910635  0.68156752  0.26250754  1  0  0.109462  0  0.967343  0  0  0.117167  0  1.033285  0  0  0.121145  0  1.031343  0  0  0.100579  0.11432  0  1.03481  0
H  H19  1  0.72909595  0.31844664  0.23749420  1  0  0.109603  0  0.967504  0  0  0.11728  0  1.033425  0  0  0.121261  0  1.031489  0  0  0.100631  0.114435  0  1.034952  0
H  H20  1  0.40863634  0.46438144  0.89771252  1  0  0.111726  0  0.951515  0  0  0.124076  0  1.007744  0  0  0.127207  0  1.007373  0  0  0.103772  0.121849  0  1.008196  0
H  H21  1  0.90865669  0.53559576  0.60227771  1  0  0.111803  0  0.951299  0  0  0.12414  0  1.007566  0  0  0.127271  0  1.007193  0  0  0.103798  0.121906  0  1.008023  0
H  H22  1  0.59134924  0.53561160  0.10228710  1  0  0.11174  0  0.95116  0  0  0.124085  0  1.007431  0  0  0.127218  0  1.007057  0  0  0.103798  0.121855  0  1.007888  0
H  H23  1  0.09132519  0.46439080  0.39771878  1  0  0.111827  0  0.951416  0  0  0.124175  0  1.007652  0  0  0.127305  0  1.007277  0  0  0.10383  0.121941  0  1.008106  0
H  H24  1  0.27484466  0.39213771  0.01552785  1  0  0.111792  0  0.955998  0  0  0.122795  0  1.015042  0  0  0.12613  0  1.012606  0  0  0.106058  0.120266  0  1.016989  0
H  H25  1  0.77485172  0.60785822  0.48447307  1  0  0.111752  0  0.956112  0  0  0.122813  0  1.0151  0  0  0.126114  0  1.012708  0  0  0.106067  0.120307  0  1.017013  0
H  H26  1  0.72514277  0.60786831  0.98447741  1  0  0.111725  0  0.955938  0  0  0.122727  0  1.015014  0  0  0.126074  0  1.012563  0  0  0.106076  0.120199  0  1.016962  0
H  H27  1  0.22515792  0.39212752  0.51551623  1  0  0.111673  0  0.956252  0  0  0.122709  0  1.015275  0  0  0.126016  0  1.012855  0  0  0.106004  0.120184  0  1.017221  0
H  H28  1  0.11591535  0.39172078  0.67947271  1  0  0.330964  0  0.906775  0  0  0.318933  0  0.963784  0  0  0.325218  0  0.95879  0  0  0.300767  0.314494  0  0.967303  0
H  H29  1  0.61593211  0.60825736  0.82051832  1  0  0.331045  0  0.906635  0  0  0.319037  0  0.963626  0  0  0.325318  0  0.958635  0  0  0.300898  0.314598  0  0.96715  0
H  H30  1  0.88408319  0.60827551  0.32052595  1  0  0.330961  0  0.90669  0  0  0.318944  0  0.963693  0  0  0.325228  0  0.958701  0  0  0.300769  0.314505  0  0.967215  0
H  H31  1  0.38406643  0.39174541  0.17947717  1  0  0.331111  0  0.90643  0  0  0.319108  0  0.963429  0  0  0.325392  0  0.958436  0  0  0.300872  0.314669  0  0.966953  0
H  H32  1  0.35191461  0.46197490  0.74649575  1  0  0.306554  0  0.928953  0  0  0.289904  0  0.996663  0  0  0.296141  0  0.992674  0  0  0.291186  0.285535  0  0.999393  0
H  H33  1  0.85192686  0.53800036  0.75349453  1  0  0.306454  0  0.929051  0  0  0.289899  0  0.996706  0  0  0.296146  0  0.992697  0  0  0.291181  0.285529  0  0.99944  0
H  H34  1  0.64810243  0.53802950  0.25350778  1  0  0.306457  0  0.929125  0  0  0.289803  0  0.996816  0  0  0.296036  0  0.99284  0  0  0.291183  0.285434  0  0.999546  0
H  H35  1  0.14806612  0.46199836  0.24650610  1  0  0.30647  0  0.929054  0  0  0.289932  0  0.996709  0  0  0.296177  0  0.992697  0  0  0.291181  0.285562  0  0.999442  0
C  C36  1  0.89645549  0.06913074  0.92056867  1  0  0.351867  0  3.82997  0  0  0.31924  0  4.111054  0  0  0.342123  0  4.125648  0  0  0.215324  0.304014  0  4.100575  0
C  C37  1  0.39645578  0.93087252  0.57943981  1  0  0.351725  0  3.829887  0  0  0.319158  0  4.110959  0  0  0.342046  0  4.125555  0  0  0.215272  0.303935  0  4.100474  0
C  C38  1  0.10355416  0.93087285  0.07943147  1  0  0.35206  0  3.829734  0  0  0.319441  0  4.110822  0  0  0.342333  0  4.125406  0  0  0.215377  0.304214  0  4.100347  0
C  C39  1  0.60355386  0.06912538  0.42055806  1  0  0.351901  0  3.829814  0  0  0.319334  0  4.110904  0  0  0.342226  0  4.125495  0  0  0.215343  0.30411  0  4.100426  0
C  C40  1  0.00452827  0.90108403  0.82792473  1  0  0.074673  0  3.801873  0  0  0.033865  0  4.068446  0  0  0.042681  0  4.084689  0  0  -0.009095  0.028098  0  4.057419  0
C  C41  1  0.50453367  0.09892023  0.67207759  1  0  0.074464  0  3.801585  0  0  0.033669  0  4.06824  0  0  0.042483  0  4.084483  0  0  -0.009152  0.027909  0  4.057208  0
C  C42  1  0.99546842  0.09891713  0.17207976  1  0  0.074862  0  3.801842  0  0  0.034082  0  4.068393  0  0  0.042898  0  4.084633  0  0  -0.009037  0.028325  0  4.057368  0
C  C43  1  0.49545932  0.90108011  0.32792099  1  0  0.074964  0  3.801688  0  0  0.034229  0  4.068288  0  0  0.043045  0  4.084532  0  0  -0.009005  0.028449  0  4.057249  0
C  C44  1  0.19564103  0.95634914  0.80819132  1  0  -0.252038  0  3.74889  0  0  -0.261256  0  4.028298  0  0  -0.267204  0  4.046638  0  0  -0.127813  -0.257413  0  4.01616  0
C  C45  1  0.69566042  0.04364290  0.69181006  1  0  -0.251855  0  3.748322  0  0  -0.261048  0  4.027621  0  0  -0.266996  0  4.045966  0  0  -0.127693  -0.257204  0  4.015472  0
C  C46  1  0.80436676  0.04365770  0.19181417  1  0  -0.252075  0  3.74901  0  0  -0.261278  0  4.028406  0  0  -0.267221  0  4.046739  0  0  -0.127813  -0.257437  0  4.016269  0
C  C47  1  0.30436033  0.95634203  0.30818596  1  0  -0.252105  0  3.749178  0  0  -0.261351  0  4.028575  0  0  -0.267298  0  4.046912  0  0  -0.127839  -0.257511  0  4.016446  0
C  C48  1  0.94188003  0.31914240  0.94485165  1  0  -0.190233  0  3.833204  0  0  -0.164727  0  4.086984  0  0  -0.176636  0  4.111122  0  0  -0.05092  -0.156942  0  4.070499  0
C  C49  1  0.44190908  0.68085073  0.55515013  1  0  -0.190117  0  3.832723  0  0  -0.164417  0  4.08623  0  0  -0.176324  0  4.110359  0  0  -0.050864  -0.156664  0  4.069826  0
C  C50  1  0.05810185  0.68085956  0.05514676  1  0  -0.190422  0  3.833086  0  0  -0.164861  0  4.086837  0  0  -0.176772  0  4.110979  0  0  -0.050896  -0.15709  0  4.070389  0
C  C51  1  0.55811537  0.31914069  0.44484965  1  0  -0.190206  0  3.83308  0  0  -0.164674  0  4.086862  0  0  -0.17659  0  4.111016  0  0  -0.050919  -0.156874  0  4.070329  0
C  C52  1  0.79926677  0.29799369  0.86653551  1  0  -0.049041  0  3.814785  0  0  -0.074733  0  4.066576  0  0  -0.070381  0  4.087455  0  0  -0.092242  -0.077172  0  4.052069  0
C  C53  1  0.29927693  0.70200718  0.63347224  1  0  -0.049051  0  3.814618  0  0  -0.074804  0  4.066372  0  0  -0.070451  0  4.087251  0  0  -0.0923  -0.077241  0  4.05186  0
C  C54  1  0.20072437  0.70201477  0.13347424  1  0  -0.049039  0  3.814667  0  0  -0.074709  0  4.066464  0  0  -0.070355  0  4.087342  0  0  -0.092336  -0.077156  0  4.051967  0
C  C55  1  0.70072716  0.29800289  0.36652977  1  0  -0.048934  0  3.813872  0  0  -0.074606  0  4.065611  0  0  -0.070252  0  4.086487  0  0  -0.092206  -0.077038  0  4.051136  0
C  C56  1  0.87833283  0.33502547  0.79911410  1  0  -0.203872  0  3.707897  0  0  -0.2168  0  3.958029  0  0  -0.225893  0  3.978092  0  0  -0.108291  -0.21091  0  3.944574  0
C  C57  1  0.37833612  0.66496416  0.70088602  1  0  -0.204143  0  3.708479  0  0  -0.217018  0  3.958606  0  0  -0.226114  0  3.978679  0  0  -0.10832  -0.21113  0  3.945152  0
C  C58  1  0.12166571  0.66497892  0.20088564  1  0  -0.203804  0  3.708058  0  0  -0.216778  0  3.958203  0  0  -0.225871  0  3.978268  0  0  -0.108199  -0.210888  0  3.944744  0
C  C59  1  0.62164761  0.33503780  0.29910102  1  0  -0.204082  0  3.708307  0  0  -0.216973  0  3.958435  0  0  -0.226063  0  3.978496  0  0  -0.108345  -0.21109  0  3.944991  0
C  C60  1  0.10021153  0.39551824  0.80905403  1  0  0.335772  0  3.818371  0  0  0.33053  0  4.061102  0  0  0.344499  0  4.079006  0  0  0.107438  0.321198  0  4.048754  0
C  C61  1  0.60020148  0.60446815  0.69094695  1  0  0.33603  0  3.818121  0  0  0.330677  0  4.061002  0  0  0.344629  0  4.078943  0  0  0.107523  0.321347  0  4.048649  0
C  C62  1  0.89979996  0.60448535  0.19095053  1  0  0.335841  0  3.818187  0  0  0.330687  0  4.060834  0  0  0.344661  0  4.078731  0  0  0.107562  0.321352  0  4.048488  0
C  C63  1  0.39980816  0.39553138  0.30905518  1  0  0.335819  0  3.818773  0  0  0.33055  0  4.061528  0  0  0.344496  0  4.079471  0  0  0.107503  0.32122  0  4.049183  0
C  C64  1  0.23864611  0.41747334  0.88911726  1  0  -0.187171  0  3.707057  0  0  -0.201802  0  3.957607  0  0  -0.211051  0  3.97845  0  0  -0.103724  -0.195876  0  3.943589  0
C  C65  1  0.73865127  0.58252075  0.61087463  1  0  -0.187315  0  3.706753  0  0  -0.201886  0  3.957333  0  0  -0.21113  0  3.978176  0  0  -0.103778  -0.195954  0  3.943308  0
C  C66  1  0.76135243  0.58253511  0.11087797  1  0  -0.187408  0  3.706597  0  0  -0.202019  0  3.957106  0  0  -0.211272  0  3.97795  0  0  -0.103929  -0.196092  0  3.943089  0
C  C67  1  0.26133802  0.41747391  0.38911662  1  0  -0.187246  0  3.70629  0  0  -0.201837  0  3.956832  0  0  -0.211078  0  3.977665  0  0  -0.103739  -0.195905  0  3.942809  0
C  C68  1  0.16200993  0.37884602  0.95573854  1  0  -0.03666  0  3.777518  0  0  -0.065107  0  4.032051  0  0  -0.060221  0  4.050738  0  0  -0.086855  -0.067939  0  4.019257  0
C  C69  1  0.66201263  0.62114955  0.54426385  1  0  -0.036687  0  3.778348  0  0  -0.065252  0  4.03286  0  0  -0.060347  0  4.051571  0  0  -0.086891  -0.068093  0  4.020038  0
C  C70  1  0.83799416  0.62117297  0.04427109  1  0  -0.036404  0  3.777873  0  0  -0.064883  0  4.032424  0  0  -0.060009  0  4.051109  0  0  -0.086909  -0.067714  0  4.019623  0
C  C71  1  0.33799146  0.37883457  0.45574141  1  0  -0.036543  0  3.777529  0  0  -0.065057  0  4.032048  0  0  -0.060137  0  4.050753  0  0  -0.086827  -0.067892  0  4.019249  0
S  S72  1  0.16773312  0.09336185  0.86903570  1  0  0.081644  0  2.658897  0  0  0.105147  0  3.007285  0  0  0.101457  0  3.009915  0  0  0.087755  0.107209  0  3.005884  0
S  S73  1  0.66773176  0.90663449  0.63096944  1  0  0.081681  0  2.658956  0  0  0.105167  0  3.007303  0  0  0.101479  0  3.009933  0  0  0.087831  0.107234  0  3.0059  0
S  S74  1  0.83227838  0.90664255  0.13096404  1  0  0.081552  0  2.658903  0  0  0.105061  0  3.007278  0  0  0.101369  0  3.009903  0  0  0.08771  0.107127  0  3.005879  0
S  S75  1  0.33226863  0.09335450  0.36903028  1  0  0.081626  0  2.659069  0  0  0.105124  0  3.007435  0  0  0.101432  0  3.010063  0  0  0.087747  0.107187  0  3.006034  0
S  S76  1  0.85023154  0.27043125  0.02994557  1  0  1.217099  0  5.442901  0  0  1.127925  0  5.939563  0  0  1.172861  0  5.925858  0  0  0.53516  1.097025  0  5.948151  0
S  S77  1  0.35021912  0.72957619  0.47006375  1  0  1.21713  0  5.442447  0  0  1.127847  0  5.939171  0  0  1.172781  0  5.925475  0  0  0.53513  1.096951  0  5.947746  0
S  S78  1  0.14980771  0.72956585  0.97005270  1  0  1.217232  0  5.442908  0  0  1.127965  0  5.939579  0  0  1.1729  0  5.925884  0  0  0.535174  1.097063  0  5.948161  0
S  S79  1  0.64978497  0.27042659  0.52993742  1  0  1.217176  0  5.442505  0  0  1.12791  0  5.939197  0  0  1.17285  0  5.9255  0  0  0.53505  1.097001  0  5.947789  0
N  N80  1  0.75518579  0.14577616  0.98042943  1  0  -0.65424  0  3.24964  0  0  -0.571325  0  3.557794  0  0  -0.601305  0  3.563184  0  0  -0.426379  -0.550685  0  3.553224  0
N  N81  1  0.25518196  0.85422590  0.51957929  1  0  -0.654292  0  3.249376  0  0  -0.571277  0  3.557333  0  0  -0.601275  0  3.562743  0  0  -0.426406  -0.550635  0  3.552759  0
N  N82  1  0.24481460  0.85422174  0.01956718  1  0  -0.654304  0  3.249588  0  0  -0.571408  0  3.557823  0  0  -0.601399  0  3.563225  0  0  -0.426364  -0.550764  0  3.553252  0
N  N83  1  0.74480918  0.14576876  0.48042206  1  0  -0.654493  0  3.249575  0  0  -0.571442  0  3.557496  0  0  -0.601445  0  3.562905  0  0  -0.426412  -0.550799  0  3.552929  0
N  N84  1  0.83941613  0.96331294  0.89156190  1  0  -0.398192  0  3.296767  0  0  -0.310835  0  3.583456  0  0  -0.335536  0  3.598161  0  0  -0.381633  -0.294086  0  3.572859  0
N  N85  1  0.33942548  0.03669082  0.60844102  1  0  -0.398016  0  3.29674  0  0  -0.310827  0  3.583598  0  0  -0.335529  0  3.598304  0  0  -0.38165  -0.294078  0  3.572993  0
N  N86  1  0.16059537  0.03669145  0.10843595  1  0  -0.398442  0  3.296653  0  0  -0.311141  0  3.583445  0  0  -0.335846  0  3.598141  0  0  -0.381713  -0.29439  0  3.572849  0
N  N87  1  0.66058046  0.96330304  0.39155821  1  0  -0.398233  0  3.296454  0  0  -0.311093  0  3.583382  0  0  -0.335798  0  3.598081  0  0  -0.381694  -0.294341  0  3.572792  0
N  N88  1  0.17374053  0.43464800  0.74319284  1  0  -0.650353  0  3.104551  0  0  -0.611466  0  3.327306  0  0  -0.631098  0  3.32688  0  0  -0.587095  -0.59761  0  3.327174  0
N  N89  1  0.67374776  0.56533449  0.75679947  1  0  -0.650332  0  3.104741  0  0  -0.611572  0  3.327455  0  0  -0.631195  0  3.327028  0  0  -0.587251  -0.59772  0  3.327326  0
N  N90  1  0.82626727  0.56535639  0.25680312  1  0  -0.650179  0  3.104834  0  0  -0.611348  0  3.327676  0  0  -0.630977  0  3.32725  0  0  -0.587077  -0.597496  0  3.327543  0
N  N91  1  0.32624523  0.43466910  0.24320446  1  0  -0.650439  0  3.104428  0  0  -0.611729  0  3.327082  0  0  -0.631349  0  3.326656  0  0  -0.587278  -0.597873  0  3.326948  0
O  O92  1  0.06598629  0.27541766  0.08657584  1  0  -0.623386  0  2.002432  0  0  -0.569487  0  2.266972  0  0  -0.590953  0  2.254686  0  0  -0.319936  -0.554387  0  2.27488  0
O  O93  1  0.56597221  0.72458009  0.41342743  1  0  -0.62354  0  2.002347  0  0  -0.569635  0  2.266921  0  0  -0.591076  0  2.254586  0  0  -0.319994  -0.554537  0  2.274834  0
O  O94  1  0.93397893  0.72459078  0.91342065  1  0  -0.623754  0  2.001639  0  0  -0.569774  0  2.26617  0  0  -0.591234  0  2.253864  0  0  -0.320068  -0.554673  0  2.274079  0
O  O95  1  0.43400783  0.27541538  0.58657226  1  0  -0.623514  0  2.002064  0  0  -0.569563  0  2.266591  0  0  -0.591012  0  2.254266  0  0  -0.319954  -0.55448  0  2.274534  0
O  O96  1  0.62976734  0.32695318  0.07583116  1  0  -0.617978  0  1.989728  0  0  -0.566923  0  2.247798  0  0  -0.587234  0  2.234485  0  0  -0.318593  -0.552662  0  2.256583  0
O  O97  1  0.12976101  0.67305862  0.42417745  1  0  -0.617996  0  1.989678  0  0  -0.566945  0  2.247821  0  0  -0.587253  0  2.234497  0  0  -0.318617  -0.552684  0  2.256602  0
O  O98  1  0.37019974  0.67305284  0.92417158  1  0  -0.617763  0  1.990501  0  0  -0.566723  0  2.248717  0  0  -0.587023  0  2.235395  0  0  -0.318505  -0.552465  0  2.257503  0
O  O99  1  0.87023198  0.32693523  0.57582241  1  0  -0.617914  0  1.989851  0  0  -0.566866  0  2.248033  0  0  -0.587173  0  2.234703  0  0  -0.318543  -0.552602  0  2.25682  0
