# generated using pymatgen
data_CdH4C8(NO)4
_symmetry_space_group_name_H-M   'P 1'
_cell_length_a   7.32181982
_cell_length_b   11.84149208
_cell_length_c   12.18657523
_cell_angle_alpha   84.67262910
_cell_angle_beta   72.51827367
_cell_angle_gamma   71.98978204
_symmetry_Int_Tables_number   1
_chemical_formula_structural   CdH4C8(NO)4
_chemical_formula_sum   'Cd4 H16 C32 N16 O16'
_cell_volume   958.41023353
_cell_formula_units_Z   4
loop_
 _symmetry_equiv_pos_site_id
 _symmetry_equiv_pos_as_xyz
  1  'x, y, z'
loop_
 _atom_site_type_symbol
 _atom_site_label
 _atom_site_symmetry_multiplicity
 _atom_site_fract_x
 _atom_site_fract_y
 _atom_site_fract_z
 _atom_site_occupancy
 _atom_site_hle17_bader_spin_density
 _atom_site_hle17_ddec_charge
 _atom_site_hle17_ddec_spin_density
 _atom_site_hle17_ddec_sum_bond_order
 _atom_site_hle17_magmom
 _atom_site_hse06_10hf_bader_spin_density
 _atom_site_hse06_10hf_ddec_charge
 _atom_site_hse06_10hf_ddec_spin_density
 _atom_site_hse06_10hf_ddec_sum_bond_order
 _atom_site_hse06_10hf_magmom
 _atom_site_hse06_bader_spin_density
 _atom_site_hse06_ddec_charge
 _atom_site_hse06_ddec_spin_density
 _atom_site_hse06_ddec_sum_bond_order
 _atom_site_hse06_magmom
 _atom_site_pbe_bader_spin_density
 _atom_site_pbe_cm5_charge
 _atom_site_pbe_ddec_charge
 _atom_site_pbe_ddec_spin_density
 _atom_site_pbe_ddec_sum_bond_order
 _atom_site_pbe_magmom
Cd  Cd0  1  0.77953650  0.67053810  0.02336917  1  0  1.106976  0  1.677712  0  0  0.899087  0  2.129379  0  0  0.955585  0  2.079937  0  0  0.805478  0.859026  0  2.163173  0
Cd  Cd1  1  0.47315071  0.32947207  0.97667685  1  0  1.107817  0  1.678153  0  0  0.900278  0  2.129908  0  0  0.956736  0  2.080475  0  0  0.805956  0.860231  0  2.163736  0
Cd  Cd2  1  0.19972293  0.82957608  0.52325630  1  0  1.106893  0  1.679654  0  0  0.899068  0  2.131565  0  0  0.955503  0  2.082179  0  0  0.805788  0.859051  0  2.165345  0
Cd  Cd3  1  0.55250927  0.17048011  0.47673373  1  0  1.106594  0  1.678785  0  0  0.898838  0  2.130575  0  0  0.955348  0  2.081158  0  0  0.805196  0.858771  0  2.164368  0
H  H4  1  0.64331813  0.86312019  0.43166500  1  0  0.119325  0  0.956352  0  0  0.129664  0  1.018212  0  0  0.132305  0  1.016534  0  0  0.124897  0.127739  0  1.019458  0
H  H5  1  0.93826690  0.13684306  0.56841934  1  0  0.119224  0  0.957165  0  0  0.129693  0  1.018953  0  0  0.132454  0  1.017112  0  0  0.125165  0.127679  0  1.020312  0
H  H6  1  0.25723554  0.63667873  0.93125827  1  0  0.11959  0  0.956898  0  0  0.13013  0  1.018443  0  0  0.132805  0  1.016732  0  0  0.125269  0.128193  0  1.0197  0
H  H7  1  0.82509634  0.36330478  0.06866897  1  0  0.119481  0  0.956116  0  0  0.130236  0  1.017605  0  0  0.132891  0  1.015888  0  0  0.125316  0.128285  0  1.018921  0
H  H8  1  0.09685595  0.83110313  0.11417732  1  0  0.110333  0  0.930413  0  0  0.117951  0  0.993645  0  0  0.121523  0  0.989208  0  0  0.137843  0.115197  0  0.997073  0
H  H9  1  0.04199301  0.16898162  0.88594337  1  0  0.111664  0  0.928342  0  0  0.119148  0  0.991696  0  0  0.122675  0  0.987279  0  0  0.138137  0.116469  0  0.995044  0
H  H10  1  0.67811628  0.66928343  0.61370567  1  0  0.110009  0  0.931532  0  0  0.117402  0  0.99502  0  0  0.121064  0  0.990485  0  0  0.138004  0.114654  0  0.998406  0
H  H11  1  0.96129721  0.33063837  0.38613085  1  0  0.1101  0  0.931627  0  0  0.117815  0  0.994703  0  0  0.121369  0  0.990299  0  0  0.137889  0.115152  0  0.997991  0
H  H12  1  0.96352172  0.91179754  0.31914696  1  0  0.315013  0  0.917991  0  0  0.29622  0  0.97876  0  0  0.30453  0  0.971881  0  0  0.318648  0.290393  0  0.9836  0
H  H13  1  0.19441551  0.08830418  0.68098698  1  0  0.315884  0  0.916153  0  0  0.29685  0  0.976873  0  0  0.30516  0  0.970043  0  0  0.319401  0.291042  0  0.981661  0
H  H14  1  0.62592620  0.58836796  0.81861121  1  0  0.316855  0  0.917245  0  0  0.298018  0  0.977447  0  0  0.306352  0  0.970583  0  0  0.319618  0.292199  0  0.982223  0
H  H15  1  0.03289131  0.41157821  0.18122032  1  0  0.315506  0  0.917991  0  0  0.296974  0  0.978174  0  0  0.305265  0  0.971338  0  0  0.319172  0.291165  0  0.982958  0
H  H16  1  0.08862724  0.53064450  0.29906740  1  0  0.383096  0  0.921252  0  0  0.352375  0  0.999023  0  0  0.364785  0  0.986915  0  0  0.296317  0.343723  0  1.007317  0
H  H17  1  0.91830531  0.46943215  0.70081657  1  0  0.383707  0  0.92089  0  0  0.35273  0  0.998992  0  0  0.365188  0  0.986791  0  0  0.296859  0.344047  0  1.007357  0
H  H18  1  0.36928366  0.96938733  0.79923324  1  0  0.382725  0  0.922516  0  0  0.351921  0  1.00022  0  0  0.364397  0  0.988025  0  0  0.296552  0.343229  0  1.008559  0
H  H19  1  0.13771368  0.03068562  0.20081688  1  0  0.382844  0  0.9233  0  0  0.351726  0  1.001414  0  0  0.364181  0  0.989237  0  0  0.296122  0.343055  0  1.009736  0
C  C20  1  0.36388523  0.52320219  0.14632284  1  0  0.637733  0  3.925719  0  0  0.584239  0  4.226051  0  0  0.619015  0  4.218466  0  0  0.21042  0.560718  0  4.230316  0
C  C21  1  0.03335436  0.47680707  0.85364885  1  0  0.636777  0  3.925859  0  0  0.583144  0  4.226309  0  0  0.617935  0  4.218727  0  0  0.210264  0.559635  0  4.230542  0
C  C22  1  0.63689216  0.97674087  0.64645222  1  0  0.637247  0  3.927017  0  0  0.583719  0  4.227257  0  0  0.618514  0  4.219657  0  0  0.209896  0.560204  0  4.231485  0
C  C23  1  0.26002804  0.02327920  0.35358637  1  0  0.633941  0  3.929712  0  0  0.580014  0  4.230509  0  0  0.614797  0  4.222959  0  0  0.207962  0.556483  0  4.234779  0
C  C24  1  0.39809874  0.59969668  0.22216359  1  0  0.016102  0  3.762647  0  0  0.00639  0  4.022328  0  0  0.004397  0  4.044337  0  0  0.078576  0.007623  0  4.007603  0
C  C25  1  0.21987322  0.40035202  0.77781416  1  0  0.014815  0  3.766502  0  0  0.004908  0  4.026538  0  0  0.002961  0  4.048525  0  0  0.076408  0.006118  0  4.011815  0
C  C26  1  0.74778312  0.90025979  0.72220134  1  0  0.015739  0  3.763351  0  0  0.006072  0  4.023085  0  0  0.004126  0  4.04501  0  0  0.078313  0.007295  0  4.00837  0
C  C27  1  0.37026725  0.09967985  0.27777792  1  0  0.016238  0  3.763359  0  0  0.007442  0  4.022572  0  0  0.005428  0  4.044627  0  0  0.078227  0.008675  0  4.007848  0
C  C28  1  0.28302970  0.64548911  0.33257110  1  0  -0.025261  0  3.791833  0  0  -0.03262  0  4.046759  0  0  -0.035351  0  4.069712  0  0  0.067978  -0.030944  0  4.031501  0
C  C29  1  0.26109274  0.35460654  0.66737832  1  0  -0.025183  0  3.790634  0  0  -0.032709  0  4.045275  0  0  -0.035482  0  4.068249  0  0  0.068428  -0.031009  0  4.030011  0
C  C30  1  0.67871098  0.85455014  0.83267043  1  0  -0.023907  0  3.79205  0  0  -0.031617  0  4.046967  0  0  -0.034357  0  4.069912  0  0  0.068682  -0.029933  0  4.031699  0
C  C31  1  0.36580362  0.14545863  0.16734658  1  0  -0.023879  0  3.78754  0  0  -0.03189  0  4.042939  0  0  -0.034628  0  4.065908  0  0  0.068975  -0.030205  0  4.027673  0
C  C32  1  0.09065471  0.63614446  0.41046303  1  0  0.630098  0  3.880294  0  0  0.579643  0  4.181003  0  0  0.614018  0  4.17194  0  0  0.218661  0.556296  0  4.18659  0
C  C33  1  0.13726722  0.36386122  0.58950943  1  0  0.631589  0  3.876557  0  0  0.582279  0  4.175357  0  0  0.616664  0  4.166303  0  0  0.220001  0.558922  0  4.180952  0
C  C34  1  0.47701980  0.86385525  0.91058776  1  0  0.630627  0  3.879393  0  0  0.580626  0  4.179413  0  0  0.614996  0  4.170379  0  0  0.218591  0.557283  0  4.184978  0
C  C35  1  0.25136389  0.13613016  0.08942399  1  0  0.629625  0  3.880409  0  0  0.579254  0  4.181121  0  0  0.613632  0  4.172126  0  0  0.218409  0.555901  0  4.186663  0
C  C36  1  0.54323847  0.71034460  0.27676469  1  0  0.341463  0  3.795486  0  0  0.31196  0  4.054265  0  0  0.327673  0  4.069227  0  0  0.212507  0.301369  0  4.043938  0
C  C37  1  0.53025904  0.28963013  0.72326651  1  0  0.340147  0  3.796339  0  0  0.310901  0  4.054798  0  0  0.326571  0  4.069853  0  0  0.211736  0.300331  0  4.044421  0
C  C38  1  0.00375922  0.78964472  0.77667012  1  0  0.343449  0  3.790784  0  0  0.313467  0  4.050309  0  0  0.32913  0  4.065373  0  0  0.213486  0.302905  0  4.039922  0
C  C39  1  0.57004097  0.21032985  0.22330267  1  0  0.343334  0  3.793523  0  0  0.313748  0  4.052854  0  0  0.329415  0  4.067879  0  0  0.213692  0.303182  0  4.042504  0
C  C40  1  0.69243210  0.76993531  0.26715270  1  0  0.053275  0  3.829517  0  0  0.052381  0  4.086268  0  0  0.051654  0  4.109098  0  0  0.070535  0.052651  0  4.070891  0
C  C41  1  0.72939888  0.22998253  0.73293655  1  0  0.052661  0  3.828193  0  0  0.051617  0  4.084898  0  0  0.050815  0  4.107885  0  0  0.071188  0.051942  0  4.069411  0
C  C42  1  0.21262603  0.73005532  0.76690951  1  0  0.05333  0  3.825894  0  0  0.052518  0  4.082934  0  0  0.051735  0  4.105849  0  0  0.070651  0.052834  0  4.067496  0
C  C43  1  0.70952671  0.26994584  0.23304359  1  0  0.054506  0  3.826821  0  0  0.053643  0  4.083727  0  0  0.052854  0  4.106668  0  0  0.070968  0.053938  0  4.068309  0
C  C44  1  0.72363642  0.83574283  0.34372544  1  0  0.005653  0  3.625471  0  0  -0.049293  0  3.898188  0  0  -0.045204  0  3.914913  0  0  0.014263  -0.051729  0  3.886788  0
C  C45  1  0.90308119  0.16421818  0.65638111  1  0  0.007222  0  3.627287  0  0  -0.047902  0  3.899483  0  0  -0.043857  0  3.916172  0  0  0.014587  -0.050292  0  3.888108  0
C  C46  1  0.30991233  0.66419924  0.84334436  1  0  0.004579  0  3.627013  0  0  -0.05061  0  3.899342  0  0  -0.046497  0  3.91612  0  0  0.013274  -0.05307  0  3.887911  0
C  C47  1  0.81739248  0.33577670  0.15657408  1  0  0.004546  0  3.625011  0  0  -0.050594  0  3.897505  0  0  -0.046501  0  3.914219  0  0  0.013861  -0.053051  0  3.886135  0
C  C48  1  0.96273960  0.82019596  0.17775107  1  0  0.243074  0  3.638123  0  0  0.181091  0  3.911718  0  0  0.19579  0  3.923237  0  0  0.149502  0.171548  0  3.90372  0
C  C49  1  0.96054616  0.17984278  0.82236987  1  0  0.242118  0  3.637886  0  0  0.180279  0  3.911065  0  0  0.195022  0  3.922566  0  0  0.149718  0.170671  0  3.903041  0
C  C50  1  0.53316513  0.68002448  0.67732920  1  0  0.245131  0  3.638314  0  0  0.183211  0  3.911655  0  0  0.197881  0  3.923119  0  0  0.150212  0.173632  0  3.90368  0
C  C51  1  0.89063464  0.31990665  0.32254771  1  0  0.242624  0  3.638791  0  0  0.180868  0  3.912451  0  0  0.195558  0  3.923961  0  0  0.149064  0.171267  0  3.904442  0
N  N52  1  0.56123058  0.64092226  0.18972267  1  0  -0.429084  0  3.194774  0  0  -0.357575  0  3.466075  0  0  -0.379435  0  3.481998  0  0  -0.35724  -0.342396  0  3.45479  0
N  N53  1  0.39175022  0.35902707  0.81030520  1  0  -0.428062  0  3.20154  0  0  -0.356674  0  3.472695  0  0  -0.378526  0  3.488628  0  0  -0.356042  -0.341495  0  3.46141  0
N  N54  1  0.95213940  0.85898227  0.68964129  1  0  -0.429608  0  3.197351  0  0  -0.358107  0  3.46889  0  0  -0.379953  0  3.484796  0  0  -0.35746  -0.342942  0  3.457631  0
N  N55  1  0.50088611  0.14091126  0.31030230  1  0  -0.429676  0  3.1997  0  0  -0.358876  0  3.471538  0  0  -0.380689  0  3.487448  0  0  -0.35735  -0.343742  0  3.460287  0
N  N56  1  0.37670362  0.71538447  0.36484843  1  0  -0.445314  0  3.202003  0  0  -0.371227  0  3.469922  0  0  -0.394111  0  3.486884  0  0  -0.35625  -0.35559  0  3.458143  0
N  N57  1  0.45693007  0.28468775  0.63511325  1  0  -0.44302  0  3.199998  0  0  -0.368904  0  3.46763  0  0  -0.391782  0  3.484611  0  0  -0.355091  -0.353302  0  3.455874  0
N  N58  1  0.84237677  0.78472421  0.86491564  1  0  -0.445706  0  3.19965  0  0  -0.371343  0  3.467705  0  0  -0.394232  0  3.484685  0  0  -0.356521  -0.355739  0  3.455935  0
N  N59  1  0.49175988  0.21535527  0.13513763  1  0  -0.447087  0  3.19858  0  0  -0.372872  0  3.467036  0  0  -0.395718  0  3.483949  0  0  -0.35765  -0.357268  0  3.455313  0
N  N60  1  0.84353368  0.76130252  0.16371225  1  0  -0.439215  0  3.192345  0  0  -0.368769  0  3.475098  0  0  -0.389944  0  3.490892  0  0  -0.357003  -0.354251  0  3.463915  0
N  N61  1  0.76836410  0.23865065  0.83639129  1  0  -0.440028  0  3.190682  0  0  -0.369638  0  3.473389  0  0  -0.390817  0  3.489222  0  0  -0.357862  -0.355128  0  3.462223  0
N  N62  1  0.35493253  0.73883352  0.66342249  1  0  -0.441002  0  3.191041  0  0  -0.370726  0  3.47399  0  0  -0.391874  0  3.489821  0  0  -0.358548  -0.356247  0  3.462834  0
N  N63  1  0.75723773  0.26113902  0.33649878  1  0  -0.440475  0  3.191304  0  0  -0.370159  0  3.474353  0  0  -0.391338  0  3.49017  0  0  -0.35764  -0.355631  0  3.463209  0
N  N64  1  0.89359903  0.86605802  0.28576544  1  0  -0.279951  0  3.450736  0  0  -0.213561  0  3.693734  0  0  -0.230052  0  3.708518  0  0  -0.377076  -0.202476  0  3.683466  0
N  N65  1  0.04535997  0.13399269  0.71435640  1  0  -0.281581  0  3.451012  0  0  -0.214724  0  3.693964  0  0  -0.23127  0  3.708733  0  0  -0.378537  -0.203635  0  3.683716  0
N  N66  1  0.51015596  0.63404437  0.78528495  1  0  -0.282126  0  3.451149  0  0  -0.215097  0  3.693678  0  0  -0.231754  0  3.708613  0  0  -0.377567  -0.203912  0  3.683342  0
N  N67  1  0.92952026  0.36588749  0.21458504  1  0  -0.279269  0  3.448762  0  0  -0.213272  0  3.692184  0  0  -0.229711  0  3.706838  0  0  -0.377328  -0.202199  0  3.681997  0
O  O68  1  0.48840035  0.49747408  0.04664368  1  0  -0.625838  0  1.996587  0  0  -0.557145  0  2.257288  0  0  -0.584903  0  2.243484  0  0  -0.321051  -0.537714  0  2.266078  0
O  O69  1  0.03247770  0.50236518  0.95338478  1  0  -0.62599  0  1.99707  0  0  -0.556905  0  2.257436  0  0  -0.58471  0  2.243636  0  0  -0.320825  -0.537436  0  2.266207  0
O  O70  1  0.73556002  0.00243266  0.54672247  1  0  -0.62711  0  1.998001  0  0  -0.557864  0  2.258136  0  0  -0.585668  0  2.244318  0  0  -0.321543  -0.538383  0  2.266913  0
O  O71  1  0.28463333  0.99767937  0.45333796  1  0  -0.624947  0  1.999369  0  0  -0.555633  0  2.259502  0  0  -0.583451  0  2.245845  0  0  -0.320257  -0.536177  0  2.268203  0
O  O72  1  0.21049369  0.48502065  0.18443774  1  0  -0.6276  0  2.059041  0  0  -0.570642  0  2.288578  0  0  -0.596088  0  2.278937  0  0  -0.312445  -0.552907  0  2.294592  0
O  O73  1  0.87995612  0.51515281  0.81550233  1  0  -0.626914  0  2.058448  0  0  -0.569497  0  2.28792  0  0  -0.594964  0  2.278261  0  0  -0.312103  -0.551754  0  2.293925  0
O  O74  1  0.44534147  0.01504300  0.68465113  1  0  -0.62595  0  2.060306  0  0  -0.568642  0  2.289627  0  0  -0.594128  0  2.280016  0  0  -0.311209  -0.550882  0  2.295589  0
O  O75  1  0.14480082  0.98507082  0.31544848  1  0  -0.62497  0  2.060396  0  0  -0.56771  0  2.290158  0  0  -0.593157  0  2.280551  0  0  -0.310874  -0.549976  0  2.296155  0
O  O76  1  0.00277825  0.56769827  0.37998210  1  0  -0.519483  0  2.100934  0  0  -0.472246  0  2.320128  0  0  -0.494076  0  2.307314  0  0  -0.324672  -0.457179  0  2.328494  0
O  O77  1  0.95038361  0.43223508  0.61999896  1  0  -0.520437  0  2.097163  0  0  -0.473779  0  2.316462  0  0  -0.495556  0  2.303429  0  0  -0.325815  -0.458771  0  2.325006  0
O  O78  1  0.32062582  0.93220884  0.88012685  1  0  -0.519189  0  2.098613  0  0  -0.472375  0  2.318173  0  0  -0.49416  0  2.305136  0  0  -0.325022  -0.457354  0  2.326703  0
O  O79  1  0.13280845  0.06781494  0.11992648  1  0  -0.51963  0  2.104518  0  0  -0.471693  0  2.323551  0  0  -0.493576  0  2.310692  0  0  -0.323917  -0.4566  0  2.331946  0
O  O80  1  0.01145170  0.69354585  0.50236940  1  0  -0.570573  0  1.960011  0  0  -0.518557  0  2.197798  0  0  -0.542671  0  2.187686  0  0  -0.300183  -0.501768  0  2.204234  0
O  O81  1  0.20736649  0.30638889  0.49764234  1  0  -0.57107  0  1.9585  0  0  -0.519666  0  2.196281  0  0  -0.543859  0  2.186178  0  0  -0.300681  -0.502814  0  2.202686  0
O  O82  1  0.45533426  0.80640158  0.00246771  1  0  -0.571848  0  1.960198  0  0  -0.519816  0  2.197784  0  0  -0.543952  0  2.187644  0  0  -0.300428  -0.503021  0  2.20425  0
O  O83  1  0.26428976  0.19345782  0.99746205  1  0  -0.570299  0  1.958487  0  0  -0.518609  0  2.196829  0  0  -0.542699  0  2.186567  0  0  -0.300473  -0.501802  0  2.203314  0
