# generated using pymatgen
data_PrH27C27SN5Cl3
_symmetry_space_group_name_H-M   'P 1'
_cell_length_a   9.17222704
_cell_length_b   18.35010157
_cell_length_c   18.55409013
_cell_angle_alpha   106.97340162
_cell_angle_beta   89.97232730
_cell_angle_gamma   104.47624243
_symmetry_Int_Tables_number   1
_chemical_formula_structural   PrH27C27SN5Cl3
_chemical_formula_sum   'Pr4 H108 C108 S4 N20 Cl12'
_cell_volume   2883.13019107
_cell_formula_units_Z   4
loop_
 _symmetry_equiv_pos_site_id
 _symmetry_equiv_pos_as_xyz
  1  'x, y, z'
loop_
 _atom_site_type_symbol
 _atom_site_label
 _atom_site_symmetry_multiplicity
 _atom_site_fract_x
 _atom_site_fract_y
 _atom_site_fract_z
 _atom_site_occupancy
 _atom_site_pbe_bader_charge
 _atom_site_pbe_bader_spin_density
 _atom_site_pbe_cm5_charge
 _atom_site_pbe_ddec_charge
 _atom_site_pbe_ddec_spin_density
 _atom_site_pbe_ddec_sum_bond_order
 _atom_site_pbe_magmom
Pr  Pr0  1  0.43016497  0.72968801  0.61611487  1  2.089296  0  1.15834  1.660252  0  2.495485  0
Pr  Pr1  1  0.70037982  0.27029303  0.88385318  1  2.087565  0  1.158495  1.660071  0  2.49575  0
Pr  Pr2  1  0.56983488  0.27031203  0.38388473  1  2.089298  0  1.158329  1.66027  0  2.495484  0
Pr  Pr3  1  0.29962003  0.72970699  0.11614750  1  2.087614  0  1.15849  1.660027  0  2.495801  0
H  H4  1  0.28869409  0.85746133  0.91954926  1  0.13058  0  0.102696  0.121435  0  1.026979  0
H  H5  1  0.43129773  0.14255132  0.58039903  1  0.103037  0  0.103046  0.121291  0  1.027051  0
H  H6  1  0.71130358  0.14253870  0.08045088  1  0.130615  0  0.102727  0.121467  0  1.026977  0
H  H7  1  0.56870044  0.85744753  0.41960023  1  0.1029  0  0.102968  0.121246  0  1.027092  0
H  H8  1  0.25130795  0.77316520  0.78442918  1  0.112666  0  0.110431  0.07529  0  1.023767  0
H  H9  1  0.47795548  0.22687389  0.71551019  1  0.104821  0  0.110553  0.075083  0  1.023955  0
H  H10  1  0.74869160  0.22683424  0.21557025  1  0.112679  0  0.110438  0.075329  0  1.023771  0
H  H11  1  0.52204130  0.77312436  0.28449051  1  0.104818  0  0.110542  0.075071  0  1.023966  0
H  H12  1  0.05672930  0.73436944  0.63820749  1  0.1136  0  0.112248  0.078661  0  1.021335  0
H  H13  1  0.32234300  0.26557547  0.86183912  1  0.112148  0  0.112199  0.07873  0  1.021472  0
H  H14  1  0.94327273  0.26563059  0.36179318  1  0.113606  0  0.112259  0.078657  0  1.021305  0
H  H15  1  0.67765655  0.73442396  0.13816139  1  0.112137  0  0.112196  0.078722  0  1.021449  0
H  H16  1  0.36650981  0.74764229  0.44384058  1  0.096249  0  0.111683  0.066667  0  1.041375  0
H  H17  1  0.61911951  0.25244597  0.05608882  1  0.079107  0  0.11191  0.066588  0  1.042687  0
H  H18  1  0.63348925  0.25235833  0.55615920  1  0.096247  0  0.111678  0.066636  0  1.041362  0
H  H19  1  0.38087896  0.74755347  0.94391114  1  0.079108  0  0.111916  0.066587  0  1.042684  0
H  H20  1  0.73560014  0.97054204  0.87475694  1  0.094893  0  0.102523  0.115113  0  1.030832  0
H  H21  1  0.76500982  0.02948734  0.62521461  1  0.086389  0  0.103163  0.116314  0  1.029466  0
H  H22  1  0.26439753  0.02945799  0.12524267  1  0.094881  0  0.102518  0.115112  0  1.030812  0
H  H23  1  0.23499191  0.97051210  0.37478590  1  0.086404  0  0.103193  0.116412  0  1.029492  0
H  H24  1  0.25896411  0.01678499  0.66874437  1  0.079149  0  0.106014  0.11948  0  1.009522  0
H  H25  1  0.24204063  0.98313630  0.83124674  1  0.08185  0  0.105976  0.11964  0  1.009407  0
H  H26  1  0.74103465  0.98321504  0.33125631  1  0.079142  0  0.106018  0.119474  0  1.009555  0
H  H27  1  0.75795813  0.01686372  0.16875394  1  0.081843  0  0.105969  0.119616  0  1.009438  0
H  H28  1  0.41930616  0.92185834  0.63859794  1  0.100321  0  0.104896  0.075686  0  1.049527  0
H  H29  1  0.49727297  0.07807677  0.86155565  1  0.09715  0  0.104767  0.074936  0  1.049387  0
H  H30  1  0.58069319  0.07814287  0.36140201  1  0.100308  0  0.104888  0.075661  0  1.049549  0
H  H31  1  0.50272658  0.92192266  0.13844485  1  0.097148  0  0.104767  0.07494  0  1.049388  0
H  H32  1  0.68106548  0.88106957  0.74142870  1  0.072624  0  0.110985  0.06927  0  1.042428  0
H  H33  1  0.79960899  0.11892864  0.75851499  1  0.085238  0  0.110968  0.069244  0  1.042297  0
H  H34  1  0.31893466  0.11893106  0.25857108  1  0.072646  0  0.110984  0.069297  0  1.042409  0
H  H35  1  0.20038838  0.88107079  0.24148551  1  0.085224  0  0.110964  0.069286  0  1.042243  0
H  H36  1  0.52017510  0.93075828  0.02531126  1  0.045197  0  0.090159  0.09357  0  1.033785  0
H  H37  1  0.58950108  0.06917645  0.47459568  1  0.046272  0  0.090582  0.094807  0  1.033142  0
H  H38  1  0.47982337  0.06924116  0.97468871  1  0.045209  0  0.090156  0.093561  0  1.033775  0
H  H39  1  0.41049936  0.93082476  0.52540481  1  0.046289  0  0.090583  0.094835  0  1.033137  0
H  H40  1  0.66860917  0.00116062  0.00188545  1  0.080847  0  0.09268  0.100194  0  1.00443  0
H  H41  1  0.66742993  0.99874839  0.49801594  1  0.074893  0  0.09315  0.101317  0  1.00359  0
H  H42  1  0.33138820  0.99883882  0.99811451  1  0.08082  0  0.092681  0.100194  0  1.004427  0
H  H43  1  0.33256993  0.00125165  0.50198312  1  0.074898  0  0.09316  0.101289  0  1.003616  0
H  H44  1  0.88379341  0.82084676  0.67245151  1  0.124844  0  0.096976  0.117609  0  1.056405  0
H  H45  1  0.06303519  0.17910230  0.82748915  1  0.127887  0  0.096574  0.116472  0  1.056952  0
H  H46  1  0.11620645  0.17915328  0.32754701  1  0.124837  0  0.096961  0.117591  0  1.056428  0
H  H47  1  0.93696575  0.82089774  0.17251045  1  0.127884  0  0.096575  0.116491  0  1.056923  0
H  H48  1  0.90877992  0.53227674  0.41828361  1  0.106158  0  0.099825  0.117089  0  1.023031  0
H  H49  1  0.37640206  0.46772335  0.08179253  1  0.108154  0  0.099636  0.11644  0  1.022464  0
H  H50  1  0.09122022  0.46772388  0.58171671  1  0.106148  0  0.099822  0.117068  0  1.023063  0
H  H51  1  0.62359780  0.53227669  0.91820653  1  0.108093  0  0.099648  0.116456  0  1.022442  0
H  H52  1  0.22879539  0.68114825  0.31677095  1  0.102373  0  0.107514  0.119291  0  1.021304  0
H  H53  1  0.54811735  0.31906093  0.18325685  1  0.103301  0  0.107472  0.119093  0  1.02092  0
H  H54  1  0.77120366  0.31885237  0.68322937  1  0.102365  0  0.107514  0.119308  0  1.021317  0
H  H55  1  0.45188142  0.68093910  0.81674275  1  0.10329  0  0.107457  0.119089  0  1.020928  0
H  H56  1  0.99322767  0.03340571  0.68256743  1  0.0614  0  0.094221  0.098497  0  1.02062  0
H  H57  1  0.95969266  0.96657639  0.81739108  1  0.045557  0  0.094427  0.099321  0  1.019394  0
H  H58  1  0.00677327  0.96659432  0.31743271  1  0.061384  0  0.094225  0.098484  0  1.02061  0
H  H59  1  0.04030551  0.03342246  0.18260872  1  0.04557  0  0.094406  0.099294  0  1.019435  0
H  H60  1  0.84286553  0.95265857  0.68732468  1  0.084529  0  0.09182  0.100767  0  1.022755  0
H  H61  1  0.89022498  0.04737831  0.81268221  1  0.050445  0  0.091989  0.101732  0  1.0221  0
H  H62  1  0.15713433  0.04734147  0.31267438  1  0.084535  0  0.091816  0.100757  0  1.022756  0
H  H63  1  0.10977457  0.95262113  0.18731776  1  0.050444  0  0.091987  0.101709  0  1.022109  0
H  H64  1  0.92222182  0.54806636  0.12515382  1  0.125393  0  0.098074  0.12172  0  1.044436  0
H  H65  1  0.37448126  0.45191497  0.37486366  1  0.131688  0  0.098471  0.122739  0  1.042877  0
H  H66  1  0.07778347  0.45193367  0.87484740  1  0.125362  0  0.098074  0.121696  0  1.044414  0
H  H67  1  0.62551838  0.54808684  0.62513647  1  0.131665  0  0.098462  0.122759  0  1.042865  0
H  H68  1  0.06268532  0.60385182  0.54189573  1  0.09939  0  0.10651  0.077852  0  1.032797  0
H  H69  1  0.45858263  0.39606483  0.95808781  1  0.120067  0  0.106456  0.077981  0  1.032864  0
H  H70  1  0.93731453  0.39614820  0.45810495  1  0.099396  0  0.10651  0.07784  0  1.032835  0
H  H71  1  0.54141583  0.60393461  0.04191215  1  0.120046  0  0.10645  0.077976  0  1.032869  0
H  H72  1  0.81047057  0.46110210  0.99796489  1  0.065212  0  0.117591  0.073146  0  1.000298  0
H  H73  1  0.34933495  0.53892605  0.50200442  1  0.050182  0  0.117748  0.073528  0  0.999641  0
H  H74  1  0.18953036  0.53889790  0.00203794  1  0.065146  0  0.117577  0.073139  0  1.000263  0
H  H75  1  0.65066301  0.46107458  0.49799482  1  0.050185  0  0.117744  0.073539  0  0.999633  0
H  H76  1  0.06730771  0.35181777  0.15634492  1  0.082721  0  0.103251  0.114177  0  1.018616  0
H  H77  1  0.71553594  0.64821024  0.34353323  1  0.080614  0  0.103116  0.113157  0  1.018827  0
H  H78  1  0.93269809  0.64818108  0.84365487  1  0.082738  0  0.103237  0.1142  0  1.018599  0
H  H79  1  0.28446173  0.35178979  0.65646637  1  0.080611  0  0.103095  0.113135  0  1.018794  0
H  H80  1  0.95461561  0.27361660  0.02617646  1  0.108251  0  0.105479  0.06928  0  1.054523  0
H  H81  1  0.68101313  0.72639580  0.47374611  1  0.125178  0  0.105375  0.069323  0  1.054046  0
H  H82  1  0.04538612  0.72638283  0.97382458  1  0.108318  0  0.105479  0.069243  0  1.054548  0
H  H83  1  0.31898563  0.27360423  0.52625349  1  0.125175  0  0.105383  0.069345  0  1.05401  0
H  H84  1  0.86940852  0.51436437  0.28752438  1  0.038315  0  0.089091  0.099656  0  1.02812  0
H  H85  1  0.35547591  0.48582706  0.21265432  1  0.035045  0  0.089355  0.100324  0  1.028741  0
H  H86  1  0.13059183  0.48563448  0.71247487  1  0.038311  0  0.089083  0.099678  0  1.028105  0
H  H87  1  0.64452255  0.51417238  0.78734565  1  0.035049  0  0.089319  0.100259  0  1.028716  0
H  H88  1  0.95014876  0.59561551  0.25263333  1  0.066485  0  0.087241  0.104166  0  1.026861  0
H  H89  1  0.35484751  0.40451128  0.24743854  1  0.065364  0  0.087356  0.104563  0  1.026792  0
H  H90  1  0.04985378  0.40438334  0.74736592  1  0.066427  0  0.087245  0.104178  0  1.026866  0
H  H91  1  0.64515343  0.59548875  0.75256106  1  0.065339  0  0.087364  0.104582  0  1.026772  0
H  H92  1  0.10506657  0.46760719  0.26025822  1  0.032918  0  0.094909  0.10053  0  0.983038  0
H  H93  1  0.63796278  0.53237386  0.23970782  1  0.028513  0  0.09458  0.100012  0  0.98389  0
H  H94  1  0.89493822  0.53239401  0.73974442  1  0.032878  0  0.094923  0.100562  0  0.983038  0
H  H95  1  0.36203677  0.46762559  0.76029161  1  0.02851  0  0.094586  0.100026  0  0.983869  0
H  H96  1  0.17905602  0.54739820  0.22371944  1  0.072376  0  0.091035  0.103397  0  1.033161  0
H  H97  1  0.63191714  0.45252963  0.27622976  1  0.088646  0  0.090884  0.102907  0  1.032822  0
H  H98  1  0.82094630  0.45260241  0.77628248  1  0.072398  0  0.091032  0.103364  0  1.033151  0
H  H99  1  0.36808301  0.54747100  0.72377002  1  0.088635  0  0.090871  0.102871  0  1.032839  0
H  H100  1  0.97588145  0.73853572  0.32894654  1  0.150481  0  0.104504  0.145541  0  1.047335  0
H  H101  1  0.23758730  0.26142931  0.17095749  1  0.129748  0  0.104267  0.14477  0  1.047942  0
H  H102  1  0.02412612  0.26146667  0.67105430  1  0.150478  0  0.104476  0.145526  0  1.047328  0
H  H103  1  0.76241067  0.73857133  0.82904121  1  0.129729  0  0.104272  0.144769  0  1.047897  0
H  H104  1  0.82254044  0.83495035  0.30436581  1  0.086891  0  0.107887  0.093247  0  1.029308  0
H  H105  1  0.98786454  0.16504631  0.19566166  1  0.091364  0  0.107853  0.092984  0  1.028595  0
H  H106  1  0.17746218  0.16505087  0.69563414  1  0.087127  0  0.107873  0.093223  0  1.029307  0
H  H107  1  0.01213185  0.83495551  0.80433686  1  0.091349  0  0.107896  0.093048  0  1.028659  0
H  H108  1  0.95939360  0.94189995  0.53563416  1  0.147411  0  0.117345  0.114942  0  1.026779  0
H  H109  1  0.01764559  0.05808587  0.96433964  1  0.141967  0  0.117188  0.113893  0  1.026791  0
H  H110  1  0.04060327  0.05810066  0.46436670  1  0.147437  0  0.117291  0.114888  0  1.026855  0
H  H111  1  0.98235367  0.94191298  0.03566016  1  0.141981  0  0.117199  0.113908  0  1.026784  0
C  C112  1  0.51760309  0.92046922  0.90856038  1  -0.035364  0  0.014485  0.178051  0  3.92796  0
C  C113  1  0.59720953  0.07956650  0.59135888  1  -0.016723  0  0.014548  0.178915  0  3.928398  0
C  C114  1  0.48239537  0.07953022  0.09143959  1  -0.035361  0  0.014438  0.177992  0  3.92787  0
C  C115  1  0.40279141  0.92043354  0.40864072  1  -0.016703  0  0.014574  0.178972  0  3.92829  0
C  C116  1  0.37867329  0.86471074  0.88175223  1  -0.045434  0  -0.085076  -0.182548  0  3.908398  0
C  C117  1  0.51398909  0.13531792  0.61818824  1  -0.045885  0  -0.08448  -0.181723  0  3.910481  0
C  C118  1  0.62132568  0.13528752  0.11824792  1  -0.045431  0  -0.085125  -0.182597  0  3.908461  0
C  C119  1  0.48601186  0.86468212  0.38181082  1  -0.045613  0  -0.084385  -0.181629  0  3.91045  0
C  C120  1  0.35704561  0.81810833  0.80665065  1  0.43683  0  0.043395  0.101433  0  3.975091  0
C  C121  1  0.53877518  0.18192026  0.69328781  1  0.451866  0  0.043414  0.102734  0  3.974518  0
C  C122  1  0.64295474  0.18189052  0.19334968  1  0.436839  0  0.04339  0.101392  0  3.975204  0
C  C123  1  0.46122299  0.81807859  0.30671198  1  0.451745  0  0.043395  0.102707  0  3.97454  0
C  C124  1  0.09835984  0.79760085  0.64640203  1  0.431645  0  0.042912  0.097912  0  3.990257  0
C  C125  1  0.30075147  0.20234238  0.85363738  1  0.432084  0  0.043598  0.097439  0  3.989075  0
C  C126  1  0.90163971  0.20239858  0.35359848  1  0.431698  0  0.042938  0.098018  0  3.990244  0
C  C127  1  0.69924838  0.79765764  0.14636383  1  0.432089  0  0.043562  0.097427  0  3.989086  0
C  C128  1  0.26456466  0.69931115  0.43605862  1  0.438888  0  0.039409  0.093291  0  4.006788  0
C  C129  1  0.56549083  0.30077750  0.06391374  1  0.444724  0  0.040075  0.094828  0  4.007998  0
C  C130  1  0.73543359  0.30069006  0.56394241  1  0.438898  0  0.039433  0.093372  0  4.006788  0
C  C131  1  0.43450873  0.69922194  0.93608569  1  0.444687  0  0.040066  0.094837  0  4.007932  0
C  C132  1  0.62693463  0.92735703  0.85674849  1  -0.077024  0  -0.088516  -0.186775  0  3.937081  0
C  C133  1  0.69954231  0.07268810  0.64318761  1  -0.064865  0  -0.089535  -0.188771  0  3.936658  0
C  C134  1  0.37306304  0.07264300  0.14325165  1  -0.077048  0  -0.088477  -0.186689  0  3.937037  0
C  C135  1  0.30045893  0.92731252  0.35681271  1  -0.064866  0  -0.089594  -0.188952  0  3.93671  0
C  C136  1  0.21005653  0.95499801  0.66447087  1  -0.04138  0  -0.085883  -0.179027  0  3.93524  0
C  C137  1  0.25496216  0.04492719  0.83552678  1  -0.028446  0  -0.085862  -0.180532  0  3.934545  0
C  C138  1  0.78994332  0.04500202  0.33552981  1  -0.041344  0  -0.085868  -0.178999  0  3.935078  0
C  C139  1  0.74503689  0.95507343  0.16447408  1  -0.028428  0  -0.085819  -0.180452  0  3.934563  0
C  C140  1  0.29951480  0.90219727  0.64637057  1  0.447083  0  0.041104  0.098123  0  3.986304  0
C  C141  1  0.39718739  0.09773316  0.85372328  1  0.4306  0  0.040952  0.098693  0  3.98192  0
C  C142  1  0.70048425  0.09780335  0.35362974  1  0.446889  0  0.041145  0.098188  0  3.986178  0
C  C143  1  0.60281107  0.90226627  0.14627722  1  0.430601  0  0.04094  0.098637  0  3.981998  0
C  C144  1  0.59678001  0.87816307  0.78266444  1  0.515341  0  0.047006  0.109423  0  3.983539  0
C  C145  1  0.71836081  0.12186517  0.71727610  1  0.483778  0  0.045033  0.107018  0  3.982982  0
C  C146  1  0.40322093  0.12183696  0.21733516  1  0.515325  0  0.046983  0.109336  0  3.983662  0
C  C147  1  0.28163766  0.87813427  0.28272332  1  0.483791  0  0.045034  0.107005  0  3.98287  0
C  C148  1  0.54812554  0.97002624  0.98968781  1  -0.04345  0  -0.159582  -0.197461  0  3.924002  0
C  C149  1  0.57814483  0.02994038  0.51024954  1  -0.007464  0  -0.160359  -0.200058  0  3.921954  0
C  C150  1  0.45187293  0.02997320  0.01031215  1  0.002589  0  -0.159559  -0.19742  0  3.923958  0
C  C151  1  0.42185641  0.97006025  0.48975024  1  -0.024371  0  -0.160397  -0.200101  0  3.921936  0
C  C152  1  0.00209722  0.84682091  0.66620719  1  -0.070989  0  -0.088905  -0.190927  0  3.933249  0
C  C153  1  0.15531768  0.15312132  0.83375839  1  -0.074067  0  -0.088713  -0.19006  0  3.933214  0
C  C154  1  0.99790293  0.15317972  0.33379258  1  -0.070979  0  -0.088948  -0.191027  0  3.93331  0
C  C155  1  0.84468217  0.84687871  0.16624175  1  -0.07407  0  -0.088711  -0.190112  0  3.933175  0
C  C156  1  0.00947139  0.58015343  0.42189372  1  0.03548  0  -0.088343  -0.185206  0  3.924644  0
C  C157  1  0.42930959  0.41986801  0.07813785  1  -0.036606  0  -0.087653  -0.182603  0  3.922825  0
C  C158  1  0.99052875  0.41984719  0.57810713  1  0.035478  0  -0.088337  -0.185199  0  3.9247  0
C  C159  1  0.57068888  0.58013143  0.92186211  1  -0.036536  0  -0.087625  -0.182555  0  3.922787  0
C  C160  1  0.05835142  0.92798136  0.67730445  1  0.021317  0  0.009429  0.165123  0  3.935829  0
C  C161  1  0.13034716  0.07195890  0.82265196  1  0.023073  0  0.00988  0.167599  0  3.937123  0
C  C162  1  0.94164814  0.07201808  0.32269551  1  0.021288  0  0.00943  0.165155  0  3.935743  0
C  C163  1  0.86965239  0.92804054  0.17734801  1  0.023378  0  0.009858  0.167599  0  3.937119  0
C  C164  1  0.05708348  0.59984909  0.35670191  1  -0.002733  0  0.016564  0.182541  0  3.915484  0
C  C165  1  0.45749315  0.40025844  0.14332773  1  0.025662  0  0.016388  0.181324  0  3.918561  0
C  C166  1  0.94291666  0.40015152  0.64329948  1  -0.002628  0  0.01655  0.182529  0  3.915502  0
C  C167  1  0.54250532  0.59974100  0.85667170  1  0.025669  0  0.016396  0.181333  0  3.918488  0
C  C168  1  0.18725814  0.66220367  0.36523686  1  -0.063893  0  -0.083464  -0.178319  0  3.903254  0
C  C169  1  0.52545665  0.33794704  0.13477702  1  -0.040761  0  -0.084411  -0.178872  0  3.905252  0
C  C170  1  0.81273953  0.33779636  0.63476328  1  -0.063973  0  -0.083451  -0.178325  0  3.903325  0
C  C171  1  0.47454181  0.66205240  0.86522295  1  -0.040733  0  -0.084429  -0.178923  0  3.905239  0
C  C172  1  0.00267305  0.45687711  0.15316569  1  -0.036388  0  0.018899  0.185581  0  3.903463  0
C  C173  1  0.54608492  0.54312113  0.34680062  1  -0.02033  0  0.019433  0.184992  0  3.907102  0
C  C174  1  0.99733224  0.54312291  0.84683553  1  -0.035974  0  0.019039  0.185759  0  3.903378  0
C  C175  1  0.45391414  0.45687950  0.65319916  1  -0.020306  0  0.01944  0.185023  0  3.90708  0
C  C176  1  0.96175193  0.98366298  0.70606500  1  -0.052145  0  -0.156801  -0.197978  0  3.893396  0
C  C177  1  0.97805996  0.01632709  0.79390390  1  -0.045946  0  -0.157448  -0.201653  0  3.894509  0
C  C178  1  0.03824792  0.01633705  0.29393514  1  -0.052146  0  -0.156793  -0.197967  0  3.893335  0
C  C179  1  0.02193850  0.98367235  0.20609606  1  -0.046236  0  -0.15743  -0.201586  0  3.894444  0
C  C180  1  0.92972988  0.48703336  0.10645647  1  0.016263  0  -0.083552  -0.181474  0  3.900747  0
C  C181  1  0.44296907  0.51295259  0.39353443  1  -0.048625  0  -0.084359  -0.1821  0  3.900773  0
C  C182  1  0.07027760  0.51296667  0.89354420  1  0.016036  0  -0.083547  -0.181433  0  3.900709  0
C  C183  1  0.55703107  0.48704803  0.60646535  1  -0.048568  0  -0.084369  -0.182213  0  3.900804  0
C  C184  1  0.09436574  0.61973284  0.49063757  1  0.404963  0  0.042498  0.09801  0  3.994389  0
C  C185  1  0.47450359  0.38023620  0.00935705  1  0.382719  0  0.042032  0.096304  0  3.995534  0
C  C186  1  0.90563360  0.38026837  0.50936346  1  0.404971  0  0.042531  0.09806  0  3.994434  0
C  C187  1  0.52549487  0.61976324  0.99064292  1  0.382732  0  0.042034  0.096292  0  3.99552  0
C  C188  1  0.86913425  0.43883982  0.03471176  1  0.400451  0  0.045193  0.103378  0  4.000449  0
C  C189  1  0.43036951  0.56116726  0.46525748  1  0.465148  0  0.045312  0.10321  0  4.000554  0
C  C190  1  0.13087105  0.56116020  0.96528892  1  0.4  0  0.045149  0.103314  0  4.00048  0
C  C191  1  0.56962875  0.43883395  0.53474301  1  0.465032  0  0.045333  0.103238  0  4.000611  0
C  C192  1  0.01223869  0.37889315  0.12306461  1  -0.003885  0  -0.08701  -0.186408  0  3.926572  0
C  C193  1  0.63344301  0.62113479  0.37685093  1  -0.00332  0  -0.087478  -0.185503  0  3.928402  0
C  C194  1  0.98776631  0.62110629  0.87693590  1  -0.004211  0  -0.087065  -0.186559  0  3.926693  0
C  C195  1  0.36655576  0.37886526  0.62314760  1  -0.0033  0  -0.087514  -0.185507  0  3.928346  0
C  C196  1  0.94974795  0.33472434  0.05035383  1  0.448763  0  0.043319  0.101328  0  3.989773  0
C  C197  1  0.61504507  0.66529649  0.44957215  1  0.443735  0  0.044175  0.10249  0  3.988765  0
C  C198  1  0.05025626  0.66527568  0.94964685  1  0.448614  0  0.043317  0.101381  0  3.989692  0
C  C199  1  0.38495290  0.33470413  0.55042762  1  0.443706  0  0.044199  0.102475  0  3.988722  0
C  C200  1  0.97543307  0.55434769  0.28055705  1  -0.029108  0  -0.163214  -0.208797  0  3.917508  0
C  C201  1  0.42144926  0.44577251  0.21950513  1  -4.9e-05  0  -0.162885  -0.208863  0  3.921377  0
C  C202  1  0.02456787  0.44565234  0.71944309  1  -0.028895  0  -0.163234  -0.208848  0  3.917515  0
C  C203  1  0.57855059  0.55422753  0.78049447  1  -2.3e-05  0  -0.162859  -0.208807  0  3.921292  0
C  C204  1  0.07360496  0.50604579  0.23074346  1  0.002061  0  -0.155299  -0.196399  0  3.915494  0
C  C205  1  0.56797388  0.49395333  0.26923520  1  -0.013069  0  -0.155041  -0.195417  0  3.91657  0
C  C206  1  0.92639925  0.49395422  0.76925829  1  0.002122  0  -0.155357  -0.196475  0  3.915438  0
C  C207  1  0.43202459  0.50604611  0.73076423  1  -0.01306  0  -0.155021  -0.195402  0  3.916682  0
C  C208  1  0.95304976  0.78906445  0.37050510  1  -0.296988  0  -0.106304  -0.239973  0  3.974476  0
C  C209  1  0.16425956  0.21088403  0.12943140  1  -0.259094  0  -0.105847  -0.238781  0  3.976963  0
C  C210  1  0.04695256  0.21093617  0.62949575  1  -0.297028  0  -0.106263  -0.239943  0  3.974469  0
C  C211  1  0.83573841  0.78911660  0.87056730  1  -0.259087  0  -0.105878  -0.238815  0  3.977121  0
C  C212  1  0.87669446  0.84051324  0.35855445  1  0.448933  0  -0.004109  0.021612  0  4.046129  0
C  C213  1  0.03645971  0.15945985  0.14144767  1  0.442794  0  -0.004051  0.021989  0  4.047302  0
C  C214  1  0.12330678  0.15948738  0.64144533  1  0.448685  0  -0.004108  0.021621  0  4.046133  0
C  C215  1  0.96353718  0.84054079  0.85855050  1  0.442766  0  -0.00407  0.021961  0  4.047437  0
C  C216  1  0.94504438  0.89886800  0.47996557  1  0.421239  0  0.036138  -0.020305  0  3.967531  0
C  C217  1  0.04636979  0.10110257  0.02000975  1  0.429573  0  0.037261  -0.017122  0  3.964645  0
C  C218  1  0.05495527  0.10113381  0.52003456  1  0.421207  0  0.036184  -0.020242  0  3.967624  0
C  C219  1  0.95362897  0.89889747  0.97998986  1  0.429607  0  0.037248  -0.01715  0  3.964597  0
S  S220  1  0.02125669  0.81906824  0.46327175  1  0.244265  0  0.106443  0.184231  0  2.952701  0
S  S221  1  0.20239025  0.18088151  0.03662960  1  0.226231  0  0.106128  0.183025  0  2.953992  0
S  S222  1  0.97874543  0.18093415  0.53672963  1  0.244301  0  0.106434  0.184208  0  2.952827  0
S  S223  1  0.79760822  0.81911793  0.96336929  1  0.226228  0  0.106132  0.183027  0  2.954017  0
N  N224  1  0.46447653  0.82375521  0.75736496  1  -1.272788  0  -0.400562  -0.353598  0  3.552868  0
N  N225  1  0.64045082  0.17628053  0.74258513  1  -1.256084  0  -0.399236  -0.352626  0  3.550855  0
N  N226  1  0.53552303  0.17624422  0.24263501  1  -1.272805  0  -0.400537  -0.353567  0  3.552971  0
N  N227  1  0.35954656  0.82371891  0.25741484  1  -1.256125  0  -0.399219  -0.352623  0  3.550853  0
N  N228  1  0.22200648  0.67780624  0.49813396  1  -1.270721  0  -0.394246  -0.360019  0  3.556157  0
N  N229  1  0.54418877  0.32220376  0.00183033  1  -1.261461  0  -0.394672  -0.360381  0  3.557376  0
N  N230  1  0.77799287  0.32219497  0.50186653  1  -1.270677  0  -0.394271  -0.360052  0  3.556146  0
N  N231  1  0.45581079  0.67779568  0.99816964  1  -1.261454  0  -0.394677  -0.36038  0  3.557298  0
N  N232  1  0.24623610  0.82453029  0.63783340  1  -1.248598  0  -0.39638  -0.357979  0  3.565363  0
N  N233  1  0.42163421  0.17540614  0.86227537  1  -1.241597  0  -0.396402  -0.356683  0  3.560414  0
N  N234  1  0.75376513  0.17547033  0.36216691  1  -1.248457  0  -0.396417  -0.358073  0  3.565374  0
N  N235  1  0.57836564  0.82459388  0.13772584  1  -1.241606  0  -0.396356  -0.356617  0  3.560502  0
N  N236  1  0.87683235  0.36344347  0.00639538  1  -1.280768  0  -0.401474  -0.358799  0  3.545508  0
N  N237  1  0.51340163  0.63657192  0.49355470  1  -1.296215  0  -0.402337  -0.36032  0  3.545337  0
N  N238  1  0.12317077  0.63655655  0.99360584  1  -1.280235  0  -0.40145  -0.358765  0  3.545462  0
N  N239  1  0.48659663  0.36342929  0.50644525  1  -1.296169  0  -0.402334  -0.360298  0  3.545339  0
N  N240  1  0.87325274  0.90316214  0.42069688  1  -1.205511  0  -0.33698  -0.270175  0  3.379491  0
N  N241  1  0.97031439  0.09682594  0.07932625  1  -1.206435  0  -0.337819  -0.271707  0  3.378124  0
N  N242  1  0.12674741  0.09683849  0.57930289  1  -1.205479  0  -0.336964  -0.270168  0  3.379493  0
N  N243  1  0.02968358  0.90317469  0.92067300  1  -1.206345  0  -0.337811  -0.271693  0  3.378025  0
Cl  Cl244  1  0.61354059  0.85108450  0.57413501  1  -0.734688  0  -0.356702  -0.598956  0  1.012021  0
Cl  Cl245  1  0.76238284  0.14891584  0.92582830  1  -0.734575  0  -0.35674  -0.598903  0  1.011467  0
Cl  Cl246  1  0.38645955  0.14891612  0.42586531  1  -0.734686  0  -0.356707  -0.598965  0  1.012032  0
Cl  Cl247  1  0.23761671  0.85108360  0.07417167  1  -0.734606  0  -0.356732  -0.59888  0  1.01147  0
Cl  Cl248  1  0.67138115  0.69892839  0.67794689  1  -0.735803  0  -0.373244  -0.623536  0  1.012592  0
Cl  Cl249  1  0.97245617  0.30102984  0.82199460  1  -0.736127  0  -0.373282  -0.623552  0  1.012977  0
Cl  Cl250  1  0.32861871  0.30107165  0.32205271  1  -0.735791  0  -0.37325  -0.623546  0  1.012593  0
Cl  Cl251  1  0.02754229  0.69896961  0.17800483  1  -0.736108  0  -0.373283  -0.623559  0  1.012994  0
Cl  Cl252  1  0.21813211  0.62829742  0.66951732  1  -0.738562  0  -0.36713  -0.611762  0  0.976353  0
Cl  Cl253  1  0.58987124  0.37170694  0.83049561  1  -0.738962  0  -0.367105  -0.611685  0  0.976226  0
Cl  Cl254  1  0.78186883  0.37170262  0.33048228  1  -0.738567  0  -0.367119  -0.61178  0  0.976358  0
Cl  Cl255  1  0.41012911  0.62829191  0.16950364  1  -0.738955  0  -0.36711  -0.611698  0  0.976246  0
