# generated using pymatgen
data_DyH11C15(NO4)2
_symmetry_space_group_name_H-M   'P 1'
_cell_length_a   13.36070297
_cell_length_b   14.43370957
_cell_length_c   15.99585661
_cell_angle_alpha   116.81757728
_cell_angle_beta   96.80031905
_cell_angle_gamma   90.00596901
_symmetry_Int_Tables_number   1
_chemical_formula_structural   DyH11C15(NO4)2
_chemical_formula_sum   'Dy4 H44 C60 N8 O32'
_cell_volume   2728.58610085
_cell_formula_units_Z   4
loop_
 _symmetry_equiv_pos_site_id
 _symmetry_equiv_pos_as_xyz
  1  'x, y, z'
loop_
 _atom_site_type_symbol
 _atom_site_label
 _atom_site_symmetry_multiplicity
 _atom_site_fract_x
 _atom_site_fract_y
 _atom_site_fract_z
 _atom_site_occupancy
 _atom_site_pbe_bader_charge
 _atom_site_pbe_bader_spin_density
 _atom_site_pbe_cm5_charge
 _atom_site_pbe_ddec_charge
 _atom_site_pbe_ddec_spin_density
 _atom_site_pbe_ddec_sum_bond_order
 _atom_site_pbe_magmom
Dy  Dy0  1  0.03189832  0.10610437  0.63177974  1  2.162311  0  1.513918  2.055909  0  2.163958  0
Dy  Dy1  1  0.46816522  0.47435326  0.36827928  1  2.158886  0  1.513859  2.055113  0  2.164025  0
Dy  Dy2  1  0.96809971  0.89389522  0.36821888  1  2.162292  0  1.513887  2.05582  0  2.164023  0
Dy  Dy3  1  0.53183622  0.52565099  0.63171777  1  2.158899  0  1.513888  2.055239  0  2.16398  0
H  H4  1  0.25009503  0.05750585  0.67452940  1  0.631924  0  0.344006  0.429324  0  0.8456  0
H  H5  1  0.24996120  0.38292321  0.32543718  1  0.633794  0  0.344141  0.429452  0  0.845581  0
H  H6  1  0.74991448  0.94250553  0.32548413  1  0.631944  0  0.344043  0.429361  0  0.845559  0
H  H7  1  0.75005802  0.61706010  0.67458561  1  0.63406  0  0.344101  0.429478  0  0.845566  0
H  H8  1  0.18044573  0.05077315  0.74515581  1  0.627373  0  0.32998  0.419284  0  0.876307  0
H  H9  1  0.31964388  0.30562346  0.25482185  1  0.660149  0  0.329904  0.418811  0  0.876972  0
H  H10  1  0.81955186  0.94921818  0.25483998  1  0.627403  0  0.330025  0.41938  0  0.876182  0
H  H11  1  0.68037511  0.69438397  0.74518227  1  0.659988  0  0.329892  0.418748  0  0.877029  0
H  H12  1  0.15784513  0.27511519  0.64969987  1  0.632646  0  0.324608  0.407593  0  0.890487  0
H  H13  1  0.34206590  0.62537772  0.35038015  1  0.63012  0  0.325278  0.408686  0  0.888928  0
H  H14  1  0.84214735  0.72488850  0.35029817  1  0.633073  0  0.324602  0.407602  0  0.890485  0
H  H15  1  0.65792430  0.37460551  0.64962310  1  0.629824  0  0.325292  0.408725  0  0.888858  0
H  H16  1  0.07206230  0.32939211  0.71042067  1  0.622794  0  0.34092  0.429393  0  0.848922  0
H  H17  1  0.42786268  0.61904832  0.28965921  1  0.623075  0  0.341047  0.429124  0  0.849286  0
H  H18  1  0.92793951  0.67060939  0.28959308  1  0.622794  0  0.340921  0.429411  0  0.848899  0
H  H19  1  0.57213619  0.38097105  0.71036076  1  0.623411  0  0.341105  0.429216  0  0.84915  0
H  H20  1  0.29283289  0.23527090  0.54621580  1  0.121758  0  0.110003  0.116422  0  1.004368  0
H  H21  1  0.20691071  0.68889613  0.45369531  1  0.083374  0  0.10961  0.116278  0  1.004689  0
H  H22  1  0.70716575  0.76473077  0.45378255  1  0.121728  0  0.110003  0.116438  0  1.004378  0
H  H23  1  0.79309063  0.31111216  0.54630423  1  0.083783  0  0.109559  0.116216  0  1.004787  0
H  H24  1  0.43728025  0.20217888  0.30751710  1  0.144107  0  0.115941  0.133969  0  1.031172  0
H  H25  1  0.06288527  0.89479421  0.69259081  1  0.14063  0  0.115919  0.134328  0  1.03075  0
H  H26  1  0.56272257  0.79781529  0.69248077  1  0.144246  0  0.115943  0.133998  0  1.031128  0
H  H27  1  0.93711191  0.10520747  0.30740834  1  0.140688  0  0.11595  0.134383  0  1.030721  0
H  H28  1  0.23081372  0.95776780  0.28105299  1  0.162157  0  0.115366  0.123683  0  1.020487  0
H  H29  1  0.26910854  0.67658911  0.71884080  1  0.142849  0  0.115272  0.123006  0  1.021577  0
H  H30  1  0.76918369  0.04223035  0.71894652  1  0.161925  0  0.115376  0.123657  0  1.020512  0
H  H31  1  0.73089210  0.32341490  0.28115523  1  0.142698  0  0.115237  0.122981  0  1.02163  0
H  H32  1  0.40329588  0.98571110  0.03373551  1  0.081563  0  0.105176  0.107632  0  1.025025  0
H  H33  1  0.09680335  0.95199886  0.96624405  1  0.104753  0  0.105268  0.107961  0  1.024574  0
H  H34  1  0.59670389  0.01428324  0.96626173  1  0.081453  0  0.105166  0.107612  0  1.025001  0
H  H35  1  0.90319623  0.04800168  0.03375629  1  0.104763  0  0.105284  0.107985  0  1.024633  0
H  H36  1  0.46234601  0.86722590  0.87852169  1  0.062572  0  0.10485  0.107864  0  1.010058  0
H  H37  1  0.03766395  0.98865454  0.12140546  1  0.120564  0  0.105061  0.108256  0  1.009657  0
H  H38  1  0.53765416  0.13276432  0.12147844  1  0.062424  0  0.104851  0.107883  0  1.010081  0
H  H39  1  0.96233497  0.01134313  0.87859357  1  0.120292  0  0.105027  0.10821  0  1.009673  0
H  H40  1  0.40859957  0.60358347  0.92773705  1  0.102933  0  0.111283  0.118432  0  0.98386  0
H  H41  1  0.09165218  0.67598077  0.07242489  1  0.101808  0  0.111703  0.119471  0  0.983322  0
H  H42  1  0.59139283  0.39641016  0.07226260  1  0.102981  0  0.111325  0.118465  0  0.983761  0
H  H43  1  0.90835037  0.32402052  0.92757543  1  0.101765  0  0.11169  0.119466  0  0.983299  0
H  H44  1  0.34988010  0.72247023  0.08398780  1  0.078227  0  0.10914  0.112604  0  0.99  0
H  H45  1  0.15043207  0.63858392  0.91618157  1  0.091764  0  0.10939  0.112909  0  0.99018  0
H  H46  1  0.65011066  0.27752525  0.91601136  1  0.078231  0  0.109138  0.112691  0  0.990042  0
H  H47  1  0.84956831  0.36141623  0.08381916  1  0.091765  0  0.109413  0.112946  0  0.990231  0
C  C48  1  0.25156442  0.09348451  0.41706098  1  0.009844  0  -0.015751  -0.032344  0  3.968083  0
C  C49  1  0.24825108  0.67623497  0.58281538  1  0.040879  0  -0.015877  -0.033041  0  3.969033  0
C  C50  1  0.74843277  0.90651905  0.58294005  1  0.009796  0  -0.015763  -0.032398  0  3.968246  0
C  C51  1  0.75175098  0.32377447  0.41718454  1  0.041529  0  -0.01592  -0.032986  0  3.9687  0
C  C52  1  0.30372119  0.19018024  0.47244882  1  -0.071149  0  -0.070614  -0.094924  0  3.91693  0
C  C53  1  0.19607183  0.71757844  0.52746958  1  -0.012149  0  -0.070078  -0.093796  0  3.915985  0
C  C54  1  0.69627959  0.80982364  0.52754943  1  -0.071204  0  -0.070662  -0.094959  0  3.916939  0
C  C55  1  0.80393235  0.28243198  0.47252897  1  -0.013324  0  -0.069925  -0.093798  0  3.91611  0
C  C56  1  0.36953843  0.23020290  0.43338596  1  -0.054402  0  -0.01823  -0.032016  0  3.998562  0
C  C57  1  0.13039593  0.79678576  0.56660357  1  -0.042565  0  -0.018629  -0.033706  0  3.999228  0
C  C58  1  0.63046559  0.76979775  0.56661293  1  -0.054375  0  -0.01828  -0.032154  0  3.998516  0
C  C59  1  0.86960347  0.20321723  0.43339611  1  -0.041504  0  -0.01866  -0.033534  0  3.999047  0
C  C60  1  0.38554115  0.17259107  0.33907750  1  -0.05716  0  -0.070844  -0.162032  0  3.8892  0
C  C61  1  0.11454781  0.83358473  0.66097138  1  -0.032459  0  -0.070189  -0.16171  0  3.888198  0
C  C62  1  0.61446389  0.82740441  0.66092090  1  -0.057357  0  -0.070754  -0.161959  0  3.889069  0
C  C63  1  0.88545088  0.16641773  0.33902855  1  -0.032609  0  -0.07029  -0.161941  0  3.88829  0
C  C64  1  0.33809054  0.07288067  0.28543328  1  0.323862  0  0.083882  0.161101  0  4.06174  0
C  C65  1  0.16199213  0.78744147  0.71455249  1  0.318055  0  0.083695  0.160474  0  4.061521  0
C  C66  1  0.66191224  0.92711459  0.71456489  1  0.32377  0  0.083851  0.161076  0  4.061641  0
C  C67  1  0.83800674  0.21255791  0.28544747  1  0.317977  0  0.083713  0.160518  0  4.061528  0
C  C68  1  0.26954281  0.03405792  0.32375612  1  -0.016981  0  -0.061945  -0.127763  0  3.864364  0
C  C69  1  0.23037920  0.71016207  0.67613910  1  -0.058989  0  -0.061748  -0.126084  0  3.865745  0
C  C70  1  0.73045517  0.96594400  0.67624405  1  -0.016598  0  -0.061872  -0.12759  0  3.8644  0
C  C71  1  0.76961846  0.28984055  0.32385632  1  -0.059303  0  -0.061667  -0.126013  0  3.865356  0
C  C72  1  0.42404308  0.33287068  0.49483156  1  1.540597  0  0.216948  0.632775  0  4.174157  0
C  C73  1  0.07587297  0.83807052  0.50521855  1  1.543867  0  0.217199  0.634867  0  4.172294  0
C  C74  1  0.57595916  0.66712881  0.50516150  1  1.540606  0  0.216981  0.632874  0  4.173965  0
C  C75  1  0.92412266  0.16192960  0.49477826  1  1.543617  0  0.217146  0.634797  0  4.172232  0
C  C76  1  0.17526152  0.05393661  0.45690597  1  1.581144  0  0.231954  0.650462  0  4.149284  0
C  C77  1  0.32461725  0.59693567  0.54304199  1  1.595969  0  0.231346  0.649009  0  4.149595  0
C  C78  1  0.82473402  0.94606317  0.54308894  1  1.581173  0  0.232046  0.650571  0  4.149326  0
C  C79  1  0.67538887  0.40307816  0.45695454  1  1.595231  0  0.231228  0.648935  0  4.149981  0
C  C80  1  0.37572821  0.86023390  0.06818582  1  0.337201  0  0.088322  0.168567  0  4.044434  0
C  C81  1  0.12450913  0.79211145  0.93187460  1  0.3615  0  0.089088  0.168519  0  4.043969  0
C  C82  1  0.62426637  0.13975837  0.93181092  1  0.3371  0  0.088302  0.168883  0  4.044541  0
C  C83  1  0.87549032  0.20788858  0.06812290  1  0.361482  0  0.089168  0.168715  0  4.043752  0
C  C84  1  0.40542275  0.90226047  0.01008635  1  -0.05202  0  -0.083377  -0.142706  0  3.939989  0
C  C85  1  0.09473080  0.89221210  0.98992277  1  -0.120929  0  -0.083647  -0.142705  0  3.938545  0
C  C86  1  0.59457706  0.09773465  0.98991246  1  -0.051996  0  -0.083322  -0.142689  0  3.940012  0
C  C87  1  0.90527255  0.10778756  0.01007669  1  -0.121004  0  -0.083663  -0.142788  0  3.938393  0
C  C88  1  0.43772097  0.83680998  0.92450290  1  0.053173  0  -0.079166  -0.078819  0  3.952901  0
C  C89  1  0.06237042  0.91229560  0.07547999  1  -0.02979  0  -0.079231  -0.07943  0  3.952529  0
C  C90  1  0.56228062  0.16318255  0.07549798  1  0.053203  0  -0.079233  -0.078981  0  3.952999  0
C  C91  1  0.93763204  0.08770473  0.92451780  1  -0.028973  0  -0.079179  -0.079378  0  3.95242  0
C  C92  1  0.44008014  0.72923952  0.89564048  1  -0.067618  0  -0.008099  -0.015785  0  3.942732  0
C  C93  1  0.06008538  0.83365607  0.10440232  1  -0.009094  0  -0.00956  -0.016395  0  3.94162  0
C  C94  1  0.55992060  0.27075261  0.10435844  1  -0.067149  0  -0.008017  -0.01561  0  3.942791  0
C  C95  1  0.93991176  0.16634545  0.89559588  1  -0.009539  0  -0.009647  -0.016423  0  3.941686  0
C  C96  1  0.40743134  0.68730921  0.95223226  1  0.027411  0  -0.076068  -0.079184  0  3.955756  0
C  C97  1  0.09285568  0.73517574  0.04789291  1  -0.021423  0  -0.076173  -0.080552  0  3.956208  0
C  C98  1  0.59256421  0.31268335  0.04776865  1  0.027394  0  -0.076124  -0.079105  0  3.955719  0
C  C99  1  0.90714004  0.26482408  0.95210516  1  -0.021443  0  -0.076129  -0.080539  0  3.95618  0
C  C100  1  0.37510319  0.75254230  0.03804396  1  -0.022162  0  -0.075836  -0.136663  0  3.960148  0
C  C101  1  0.12519496  0.71460189  0.96209083  1  -0.028071  0  -0.076748  -0.137802  0  3.96192  0
C  C102  1  0.62488992  0.24745000  0.96195357  1  -0.021955  0  -0.075883  -0.13709  0  3.960314  0
C  C103  1  0.87480533  0.28539980  0.03790989  1  -0.028081  0  -0.076786  -0.137898  0  3.961981  0
C  C104  1  0.47816395  0.65916635  0.80536437  1  1.542002  0  0.191064  0.57219  0  4.226063  0
C  C105  1  0.02186858  0.85381671  0.19460819  1  1.544357  0  0.191882  0.574142  0  4.222034  0
C  C106  1  0.52183501  0.34083337  0.19463748  1  1.541603  0  0.190898  0.571833  0  4.226336  0
C  C107  1  0.97813016  0.14618404  0.80539081  1  1.544469  0  0.191894  0.57416  0  4.222217  0
N  N108  1  0.36542130  0.01630201  0.19353042  1  -0.430164  0  -0.150013  -0.135164  0  3.264192  0
N  N109  1  0.13472491  0.82275736  0.80648222  1  -0.465075  0  -0.149854  -0.135672  0  3.263499  0
N  N110  1  0.63458143  0.98369433  0.80646805  1  -0.430157  0  -0.150027  -0.135144  0  3.264248  0
N  N111  1  0.86527556  0.17724000  0.19351727  1  -0.465139  0  -0.14989  -0.135743  0  3.26333  0
N  N112  1  0.34699056  0.91903100  0.15884660  1  -0.527352  0  -0.145082  -0.131923  0  3.293056  0
N  N113  1  0.15322885  0.76021118  0.84119833  1  -0.486522  0  -0.145041  -0.130529  0  3.291532  0
N  N114  1  0.65300863  0.08096393  0.84115435  1  -0.527327  0  -0.145063  -0.13205  0  3.293279  0
N  N115  1  0.84676909  0.23978683  0.15879714  1  -0.486398  0  -0.14501  -0.130486  0  3.291257  0
O  O116  1  0.13045931  0.96615815  0.40242459  1  -1.194684  0  -0.395887  -0.648109  0  2.322696  0
O  O117  1  0.36948162  0.56373281  0.59757375  1  -1.186776  0  -0.39562  -0.647291  0  2.321921  0
O  O118  1  0.86953872  0.03384270  0.59757527  1  -1.194626  0  -0.395905  -0.648144  0  2.322736  0
O  O119  1  0.63052548  0.43628131  0.40242696  1  -1.186141  0  -0.395494  -0.647209  0  2.322143  0
O  O120  1  0.16010883  0.11159333  0.54230869  1  -1.209745  0  -0.392373  -0.681738  0  2.272282  0
O  O121  1  0.33983101  0.56922991  0.45766603  1  -1.206423  0  -0.392101  -0.681552  0  2.272931  0
O  O122  1  0.83988583  0.88841025  0.45768769  1  -1.209782  0  -0.392415  -0.681799  0  2.272404  0
O  O123  1  0.66017335  0.43077742  0.54233255  1  -1.206511  0  -0.39209  -0.681581  0  2.273005  0
O  O124  1  0.44050409  0.36370353  0.58335445  1  -1.141397  0  -0.377576  -0.628417  0  2.191417  0
O  O125  1  0.05925012  0.78038795  0.41671310  1  -1.157831  0  -0.377831  -0.628993  0  2.192168  0
O  O126  1  0.55949717  0.63630255  0.41664132  1  -1.141613  0  -0.377582  -0.628398  0  2.191455  0
O  O127  1  0.94074206  0.21961047  0.58328745  1  -1.157779  0  -0.37787  -0.629017  0  2.192051  0
O  O128  1  0.45460925  0.38841845  0.45776014  1  -1.212259  0  -0.433412  -0.759198  0  2.469296  0
O  O129  1  0.04548034  0.93074827  0.54238873  1  -1.22062  0  -0.433276  -0.760132  0  2.46916  0
O  O130  1  0.54539006  0.61157921  0.54223264  1  -1.212074  0  -0.433473  -0.759266  0  2.469234  0
O  O131  1  0.95451995  0.06925467  0.45761323  1  -1.220643  0  -0.433272  -0.760159  0  2.46919  0
O  O132  1  0.51738648  0.69838008  0.75789423  1  -1.19078  0  -0.388527  -0.65073  0  2.22197  0
O  O133  1  0.98256419  0.94044018  0.24207315  1  -1.194512  0  -0.38868  -0.651681  0  2.221242  0
O  O134  1  0.48261332  0.30161942  0.24210896  1  -1.190817  0  -0.388441  -0.650558  0  2.22195  0
O  O135  1  0.01742932  0.05955834  0.75792439  1  -1.194631  0  -0.388711  -0.651709  0  2.221298  0
O  O136  1  0.47139445  0.56079641  0.77587647  1  -1.174269  0  -0.391468  -0.618417  0  2.14915  0
O  O137  1  0.02862586  0.78489836  0.22405433  1  -1.173649  0  -0.391252  -0.618855  0  2.147138  0
O  O138  1  0.52860677  0.43919978  0.22412185  1  -1.174161  0  -0.391418  -0.618272  0  2.149348  0
O  O139  1  0.97137887  0.21510344  0.77594494  1  -1.17365  0  -0.39123  -0.618862  0  2.147332  0
O  O140  1  0.19597934  0.08996857  0.71154497  1  -1.214684  0  -0.601791  -0.801931  0  2.012914  0
O  O141  1  0.30408486  0.37841527  0.28844406  1  -1.249809  0  -0.601952  -0.801547  0  2.013485  0
O  O142  1  0.80401825  0.91002900  0.28845707  1  -1.214752  0  -0.601867  -0.802051  0  2.012802  0
O  O143  1  0.69591442  0.62158312  0.71156191  1  -1.249895  0  -0.601897  -0.801526  0  2.013565  0
O  O144  1  0.12422494  0.27997255  0.70244210  1  -1.205213  0  -0.601313  -0.788796  0  1.998354  0
O  O145  1  0.37578191  0.57755816  0.29768962  1  -1.203218  0  -0.602166  -0.789516  0  1.998701  0
O  O146  1  0.87577558  0.72002560  0.29755897  1  -1.205638  0  -0.60131  -0.788806  0  1.998349  0
O  O147  1  0.62421904  0.42244577  0.70231178  1  -1.203276  0  -0.602204  -0.789628  0  1.998578  0
