# generated using pymatgen
data_AgH6C8NO7
_symmetry_space_group_name_H-M   'P 1'
_cell_length_a   7.51076953
_cell_length_b   7.93652434
_cell_length_c   8.50808783
_cell_angle_alpha   78.52536387
_cell_angle_beta   74.03235008
_cell_angle_gamma   74.66858206
_symmetry_Int_Tables_number   1
_chemical_formula_structural   AgH6C8NO7
_chemical_formula_sum   'Ag2 H12 C16 N2 O14'
_cell_volume   465.86609334
_cell_formula_units_Z   2
loop_
 _symmetry_equiv_pos_site_id
 _symmetry_equiv_pos_as_xyz
  1  'x, y, z'
loop_
 _atom_site_type_symbol
 _atom_site_label
 _atom_site_symmetry_multiplicity
 _atom_site_fract_x
 _atom_site_fract_y
 _atom_site_fract_z
 _atom_site_occupancy
 _atom_site_hle17_bader_spin_density
 _atom_site_hle17_ddec_charge
 _atom_site_hle17_ddec_spin_density
 _atom_site_hle17_ddec_sum_bond_order
 _atom_site_hle17_magmom
 _atom_site_hse06_10hf_bader_spin_density
 _atom_site_hse06_10hf_ddec_charge
 _atom_site_hse06_10hf_ddec_spin_density
 _atom_site_hse06_10hf_ddec_sum_bond_order
 _atom_site_hse06_10hf_magmom
 _atom_site_hse06_bader_spin_density
 _atom_site_hse06_ddec_charge
 _atom_site_hse06_ddec_spin_density
 _atom_site_hse06_ddec_sum_bond_order
 _atom_site_hse06_magmom
 _atom_site_pbe_bader_spin_density
 _atom_site_pbe_cm5_charge
 _atom_site_pbe_ddec_charge
 _atom_site_pbe_ddec_spin_density
 _atom_site_pbe_ddec_sum_bond_order
 _atom_site_pbe_magmom
Ag  Ag0  1  0.75399065  0.67161929  0.10285142  1  0  0.662407  0  1.232972  0  0  0.542869  0  1.65175  0  0  0.570944  0  1.603891  0  0  0.45016  0.523834  0  1.684876  0
Ag  Ag1  1  0.24600563  0.32838287  0.89714924  1  0  0.662416  0  1.232973  0  0  0.542862  0  1.651768  0  0  0.570938  0  1.603909  0  0  0.450163  0.52383  0  1.684899  0
H  H2  1  0.07353372  0.25563974  0.59847762  1  0  0.136213  0  0.925045  0  0  0.146046  0  0.981908  0  0  0.150356  0  0.977728  0  0  0.121785  0.142822  0  0.985104  0
H  H3  1  0.92646844  0.74436115  0.40152536  1  0  0.136228  0  0.92504  0  0  0.146057  0  0.981905  0  0  0.150367  0  0.977723  0  0  0.121778  0.142832  0  0.985099  0
H  H4  1  0.06713955  0.70794207  0.77769626  1  0  0.095302  0  0.935405  0  0  0.100842  0  1.005928  0  0  0.104855  0  1.000972  0  0  0.122102  0.097809  0  1.009698  0
H  H5  1  0.93285981  0.29205876  0.22230037  1  0  0.095308  0  0.935397  0  0  0.100829  0  1.005954  0  0  0.104841  0  1.000998  0  0  0.12211  0.097798  0  1.009722  0
H  H6  1  0.69266196  0.45235166  0.40864664  1  0  0.420393  0  0.880782  0  0  0.390519  0  0.943122  0  0  0.400454  0  0.92868  0  0  0.292058  0.383524  0  0.953261  0
H  H7  1  0.30733805  0.54764654  0.59135269  1  0  0.420412  0  0.880759  0  0  0.390535  0  0.943104  0  0  0.400474  0  0.928656  0  0  0.292072  0.383542  0  0.953239  0
H  H8  1  0.58840896  0.64959418  0.43025635  1  0  0.424507  0  0.871237  0  0  0.394278  0  0.933295  0  0  0.404843  0  0.917827  0  0  0.293601  0.386808  0  0.944211  0
H  H9  1  0.41159139  0.35040271  0.56974433  1  0  0.424543  0  0.871194  0  0  0.394275  0  0.933308  0  0  0.404836  0  0.917846  0  0  0.293601  0.386804  0  0.944227  0
H  H10  1  0.42442514  0.01784798  0.32431153  1  0  0.408239  0  0.88656  0  0  0.374125  0  0.967631  0  0  0.388051  0  0.952423  0  0  0.299392  0.364383  0  0.977462  0
H  H11  1  0.57557147  0.98215285  0.67568813  1  0  0.408284  0  0.886489  0  0  0.374163  0  0.967567  0  0  0.388091  0  0.952363  0  0  0.299404  0.364417  0  0.977404  0
H  H12  1  0.57881533  0.59251260  0.80394989  1  0  0.42296  0  0.855454  0  0  0.391994  0  0.93297  0  0  0.405242  0  0.917638  0  0  0.311886  0.38264  0  0.943751  0
H  H13  1  0.42118502  0.40748430  0.19605195  1  0  0.422944  0  0.855444  0  0  0.391975  0  0.932973  0  0  0.405226  0  0.917633  0  0  0.311891  0.382624  0  0.943746  0
C  C14  1  0.62263203  0.10559197  0.07521313  1  0  0.626138  0  3.905805  0  0  0.567566  0  4.216865  0  0  0.600434  0  4.209447  0  0  0.215079  0.545295  0  4.221165  0
C  C15  1  0.37736766  0.89440755  0.92478602  1  0  0.62621  0  3.905722  0  0  0.567578  0  4.216873  0  0  0.60045  0  4.20945  0  0  0.215084  0.545316  0  4.221164  0
C  C16  1  0.78415697  0.06194363  0.92630807  1  0  0.095632  0  3.685704  0  0  0.087079  0  3.930357  0  0  0.090826  0  3.948924  0  0  0.121301  0.084323  0  3.91813  0
C  C17  1  0.21584550  0.93805592  0.07369275  1  0  0.095538  0  3.685839  0  0  0.086993  0  3.930507  0  0  0.090738  0  3.949074  0  0  0.121257  0.084243  0  3.918266  0
C  C18  1  0.85422515  0.19817458  0.81368399  1  0  -0.089199  0  3.678036  0  0  -0.071604  0  3.918207  0  0  -0.08086  0  3.937569  0  0  0.005826  -0.065931  0  3.905806  0
C  C19  1  0.14577487  0.80182362  0.18631533  1  0  -0.089128  0  3.678017  0  0  -0.071528  0  3.918171  0  0  -0.080781  0  3.937532  0  0  0.005808  -0.065858  0  3.905771  0
C  C20  1  0.77875212  0.38898863  0.83665603  1  0  0.709342  0  3.784062  0  0  0.653913  0  4.08118  0  0  0.690145  0  4.069683  0  0  0.242895  0.62896  0  4.08873  0
C  C21  1  0.22124897  0.61101092  0.16334512  1  0  0.709305  0  3.784077  0  0  0.653873  0  4.081197  0  0  0.690105  0  4.069699  0  0  0.242914  0.628911  0  4.088758  0
C  C22  1  0.01140744  0.15346269  0.68452225  1  0  -0.018767  0  3.62715  0  0  -0.062536  0  3.885088  0  0  -0.055779  0  3.897832  0  0  -0.054394  -0.066872  0  3.876834  0
C  C23  1  0.98859365  0.84653686  0.31547890  1  0  -0.018797  0  3.627128  0  0  -0.06255  0  3.885076  0  0  -0.055793  0  3.89782  0  0  -0.054345  -0.066881  0  3.876816  0
C  C24  1  0.09213183  0.97547836  0.66966261  1  0  -0.1141  0  3.740846  0  0  -0.093723  0  3.990681  0  0  -0.105205  0  4.012855  0  0  -0.010801  -0.086595  0  3.976143  0
C  C25  1  0.90786892  0.02452249  0.33033602  1  0  -0.114092  0  3.740828  0  0  -0.093787  0  3.990728  0  0  -0.105271  0  4.012908  0  0  -0.01084  -0.086653  0  3.976185  0
C  C26  1  0.26333712  0.92138907  0.53571977  1  0  0.678521  0  3.815227  0  0  0.619423  0  4.12127  0  0  0.652769  0  4.114901  0  0  0.240104  0.596941  0  4.124952  0
C  C27  1  0.73666534  0.07861047  0.46427987  1  0  0.678611  0  3.815214  0  0  0.619548  0  4.121196  0  0  0.65289  0  4.114827  0  0  0.240098  0.597068  0  4.124875  0
C  C28  1  0.01088441  0.84826755  0.78491832  1  0  0.144342  0  3.648597  0  0  0.099292  0  3.909297  0  0  0.108712  0  3.923316  0  0  0.062084  0.093032  0  3.899972  0
C  C29  1  0.98911668  0.15173199  0.21508166  1  0  0.144372  0  3.648592  0  0  0.099346  0  3.909274  0  0  0.108767  0  3.923296  0  0  0.062108  0.09308  0  3.899957  0
N  N30  1  0.86172602  0.89103322  0.90992981  1  0  -0.303536  0  3.282425  0  0  -0.240005  0  3.567158  0  0  -0.256126  0  3.581752  0  0  -0.321067  -0.229045  0  3.557261  0
N  N31  1  0.13827229  0.10896629  0.09006851  1  0  -0.303545  0  3.282476  0  0  -0.239994  0  3.567175  0  0  -0.256115  0  3.58177  0  0  -0.321062  -0.229037  0  3.557279  0
O  O32  1  0.57035475  0.97838354  0.17976278  1  0  -0.607601  0  2.104989  0  0  -0.549162  0  2.361337  0  0  -0.575793  0  2.35016  0  0  -0.304081  -0.530588  0  2.368306  0
O  O33  1  0.42964461  0.02161729  0.82023503  1  0  -0.607652  0  2.104917  0  0  -0.549181  0  2.361289  0  0  -0.575814  0  2.350113  0  0  -0.304105  -0.530608  0  2.368256  0
O  O34  1  0.55500975  0.26754749  0.08357031  1  0  -0.604686  0  2.063193  0  0  -0.551568  0  2.31001  0  0  -0.576735  0  2.299781  0  0  -0.290619  -0.533909  0  2.316532  0
O  O35  1  0.44499411  0.73245209  0.91643250  1  0  -0.604682  0  2.063124  0  0  -0.55155  0  2.309974  0  0  -0.576718  0  2.299742  0  0  -0.2906  -0.533895  0  2.316499  0
O  O36  1  0.63850607  0.47155662  0.76516308  1  0  -0.537654  0  2.104881  0  0  -0.489808  0  2.331583  0  0  -0.510955  0  2.313594  0  0  -0.319772  -0.475266  0  2.343822  0
O  O37  1  0.36149257  0.52844159  0.23483894  1  0  -0.537633  0  2.104886  0  0  -0.489787  0  2.331594  0  0  -0.510934  0  2.313606  0  0  -0.319801  -0.475245  0  2.343828  0
O  O38  1  0.85987721  0.45926348  0.90584078  1  0  -0.594721  0  2.070255  0  0  -0.54134  0  2.347487  0  0  -0.566574  0  2.332425  0  0  -0.293245  -0.52378  0  2.357518  0
O  O39  1  0.14012355  0.54073738  0.09415903  1  0  -0.594725  0  2.070277  0  0  -0.541344  0  2.347511  0  0  -0.566578  0  2.332449  0  0  -0.293241  -0.523781  0  2.357547  0
O  O40  1  0.31015049  0.05414063  0.42740288  1  0  -0.541114  0  2.105665  0  0  -0.484244  0  2.328726  0  0  -0.508552  0  2.316183  0  0  -0.314464  -0.467414  0  2.33636  0
O  O41  1  0.68984717  0.94586151  0.57259393  1  0  -0.541188  0  2.105708  0  0  -0.48431  0  2.328746  0  0  -0.50862  0  2.31621  0  0  -0.314449  -0.46748  0  2.336382  0
O  O42  1  0.35015808  0.76439069  0.53145388  1  0  -0.589452  0  2.005376  0  0  -0.527434  0  2.220864  0  0  -0.550547  0  2.211438  0  0  -0.279018  -0.511717  0  2.227171  0
O  O43  1  0.64984685  0.23561024  0.46855194  1  0  -0.589523  0  2.005325  0  0  -0.527489  0  2.220773  0  0  -0.550586  0  2.211335  0  0  -0.279022  -0.511775  0  2.227086  0
O  O44  1  0.70970152  0.57476379  0.37812281  1  0  -0.823168  0  1.920688  0  0  -0.756509  0  2.124744  0  0  -0.780501  0  2.090524  0  0  -0.590814  -0.739242  0  2.148261  0
O  O45  1  0.29029743  0.42523308  0.62187586  1  0  -0.823203  0  1.920628  0  0  -0.756526  0  2.12478  0  0  -0.780518  0  2.090561  0  0  -0.590823  -0.739261  0  2.148298  0
