# generated using pymatgen
data_HgH24C30(N4Cl)2
_symmetry_space_group_name_H-M   'P 1'
_cell_length_a   10.58446781
_cell_length_b   16.08272967
_cell_length_c   20.21328180
_cell_angle_alpha   113.67983281
_cell_angle_beta   90.00000188
_cell_angle_gamma   89.99994710
_symmetry_Int_Tables_number   1
_chemical_formula_structural   HgH24C30(N4Cl)2
_chemical_formula_sum   'Hg4 H96 C120 N32 Cl8'
_cell_volume   3151.14336793
_cell_formula_units_Z   4
loop_
 _symmetry_equiv_pos_site_id
 _symmetry_equiv_pos_as_xyz
  1  'x, y, z'
loop_
 _atom_site_type_symbol
 _atom_site_label
 _atom_site_symmetry_multiplicity
 _atom_site_fract_x
 _atom_site_fract_y
 _atom_site_fract_z
 _atom_site_occupancy
 _atom_site_pbe_bader_charge
 _atom_site_pbe_bader_spin_density
 _atom_site_pbe_cm5_charge
 _atom_site_pbe_ddec_charge
 _atom_site_pbe_ddec_spin_density
 _atom_site_pbe_ddec_sum_bond_order
 _atom_site_pbe_magmom
Hg  Hg0  1  0.76620154  0.62758315  0.52966853  1  0.838923  0  0.532321  0.580508  0  2.60295  0
Hg  Hg1  1  0.26620494  0.37241592  0.97032976  1  0.838949  0  0.532299  0.58043  0  2.602984  0
Hg  Hg2  1  0.23379989  0.37242083  0.47033327  1  0.838971  0  0.532282  0.580449  0  2.602983  0
Hg  Hg3  1  0.73379932  0.62758060  0.02966912  1  0.838965  0  0.532282  0.580434  0  2.602965  0
H  H4  1  0.88480448  0.73579419  0.19113792  1  0.105756  0  0.093613  0.112649  0  1.036113  0
H  H5  1  0.38480708  0.26420643  0.30886619  1  0.105621  0  0.093583  0.112598  0  1.036112  0
H  H6  1  0.11519222  0.26420301  0.80886118  1  0.105723  0  0.093625  0.112677  0  1.036054  0
H  H7  1  0.61518679  0.73579689  0.69113342  1  0.10554  0  0.093574  0.112556  0  1.036048  0
H  H8  1  0.66505332  0.61629967  0.35710800  1  0.086366  0  0.097157  0.106535  0  1.051176  0
H  H9  1  0.16505668  0.38369978  0.14289324  1  0.086428  0  0.097186  0.106561  0  1.051178  0
H  H10  1  0.33493960  0.38370026  0.64289050  1  0.08628  0  0.097191  0.106502  0  1.051211  0
H  H11  1  0.83493151  0.61630220  0.85710494  1  0.08649  0  0.097227  0.106572  0  1.05108  0
H  H12  1  0.84503679  0.72391641  0.40063021  1  0.089808  0  0.096526  0.099658  0  1.031165  0
H  H13  1  0.34504125  0.27608358  0.09937270  1  0.089881  0  0.096527  0.099595  0  1.031168  0
H  H14  1  0.15495424  0.27608353  0.59936731  1  0.089734  0  0.09651  0.099571  0  1.031209  0
H  H15  1  0.65494979  0.72391906  0.90062718  1  0.089659  0  0.096507  0.099577  0  1.031116  0
H  H16  1  0.95215975  0.78377122  0.32010907  1  0.033615  0  0.098705  0.09795  0  0.999757  0
H  H17  1  0.45216335  0.21623140  0.17989519  1  0.033602  0  0.098706  0.09796  0  0.999768  0
H  H18  1  0.04783317  0.21622666  0.67989025  1  0.033749  0  0.098691  0.097897  0  0.999713  0
H  H19  1  0.54782673  0.78377261  0.82010365  1  0.033774  0  0.098665  0.097919  0  0.999643  0
H  H20  1  0.52036023  0.51924678  0.09858761  1  0.185061  0  0.126493  0.099821  0  1.035559  0
H  H21  1  0.02036064  0.48075346  0.40141339  1  0.185048  0  0.126514  0.099851  0  1.035534  0
H  H22  1  0.47964214  0.48074842  0.90140786  1  0.185119  0  0.126524  0.099881  0  1.035573  0
H  H23  1  0.97963984  0.51925323  0.59858978  1  0.185118  0  0.126525  0.099847  0  1.035619  0
H  H24  1  0.56171995  0.45416127  0.24225033  1  0.064341  0  0.10997  0.094189  0  1.001339  0
H  H25  1  0.06171836  0.54583690  0.25775000  1  0.064357  0  0.109978  0.094222  0  1.001361  0
H  H26  1  0.43828148  0.54583388  0.75774909  1  0.064397  0  0.109993  0.094307  0  1.001294  0
H  H27  1  0.93827645  0.45417184  0.74225285  1  0.064375  0  0.10999  0.094288  0  1.001307  0
H  H28  1  0.44386423  0.45931624  0.18207531  1  0.128858  0  0.114575  0.10394  0  1.016687  0
H  H29  1  0.94386569  0.54068234  0.31792516  1  0.128852  0  0.114559  0.103928  0  1.016706  0
H  H30  1  0.55613247  0.54068093  0.81792625  1  0.128849  0  0.114559  0.103966  0  1.016674  0
H  H31  1  0.05612628  0.45931963  0.68207351  1  0.128919  0  0.11458  0.104002  0  1.016689  0
H  H32  1  0.30013937  0.61043229  0.23670489  1  0.077067  0  0.097618  0.105892  0  1.022418  0
H  H33  1  0.80013727  0.38956707  0.26329584  1  0.077026  0  0.097608  0.105888  0  1.022457  0
H  H34  1  0.69986678  0.38956557  0.76329591  1  0.077005  0  0.097597  0.10587  0  1.022501  0
H  H35  1  0.19986888  0.61043762  0.73670372  1  0.076933  0  0.097566  0.105816  0  1.02258  0
H  H36  1  0.15329018  0.68514712  0.34068753  1  0.090739  0  0.105427  0.105219  0  1.002262  0
H  H37  1  0.65328440  0.31485439  0.15931339  1  0.090492  0  0.105441  0.105232  0  1.002188  0
H  H38  1  0.84672069  0.31485550  0.65931383  1  0.090443  0  0.105444  0.105252  0  1.002112  0
H  H39  1  0.34671891  0.68514687  0.84068851  1  0.09062  0  0.105411  0.105265  0  1.002193  0
H  H40  1  0.36425505  0.56984820  0.46579290  1  0.072999  0  0.094472  0.094235  0  1.042734  0
H  H41  1  0.86425382  0.43015317  0.03420700  1  0.073025  0  0.094502  0.094262  0  1.042694  0
H  H42  1  0.63574448  0.43015578  0.53420890  1  0.073015  0  0.094473  0.094246  0  1.04271  0
H  H43  1  0.13574382  0.56984339  0.96578892  1  0.073074  0  0.094496  0.094289  0  1.042669  0
H  H44  1  0.51278123  0.49978283  0.36412708  1  0.095036  0  0.094395  0.100134  0  1.028975  0
H  H45  1  0.01277970  0.50021672  0.13587519  1  0.095084  0  0.094364  0.100098  0  1.02899  0
H  H46  1  0.48722020  0.50021501  0.63587618  1  0.095126  0  0.094358  0.100077  0  1.02894  0
H  H47  1  0.98721795  0.49978528  0.86412102  1  0.094686  0  0.094398  0.100168  0  1.028933  0
H  H48  1  0.86009747  0.83463178  0.63291150  1  0.082716  0  0.0974  0.096899  0  1.038912  0
H  H49  1  0.36010021  0.16536721  0.86708825  1  0.08274  0  0.097411  0.096928  0  1.038818  0
H  H50  1  0.13990395  0.16537222  0.36708882  1  0.08272  0  0.097433  0.096931  0  1.038945  0
H  H51  1  0.63990216  0.83463203  0.13291151  1  0.082714  0  0.097427  0.096929  0  1.038916  0
H  H52  1  0.81141477  0.90953377  0.76334394  1  0.073064  0  0.107066  0.112545  0  0.979371  0
H  H53  1  0.31141383  0.09046594  0.73665505  1  0.073061  0  0.107081  0.112623  0  0.979326  0
H  H54  1  0.18858288  0.09046954  0.23665715  1  0.072586  0  0.107071  0.112551  0  0.979467  0
H  H55  1  0.68858571  0.90953534  0.26334389  1  0.073184  0  0.10706  0.112554  0  0.979384  0
H  H56  1  0.14509415  0.79096926  0.81163254  1  0.068993  0  0.099091  0.099515  0  1.034612  0
H  H57  1  0.64509230  0.20903329  0.68836737  1  0.069082  0  0.099107  0.099549  0  1.034633  0
H  H58  1  0.85490633  0.20903340  0.18836585  1  0.069059  0  0.099097  0.09952  0  1.034611  0
H  H59  1  0.35491101  0.79096456  0.31163491  1  0.06906  0  0.099102  0.099461  0  1.03462  0
H  H60  1  0.19445143  0.71631401  0.68119082  1  0.097158  0  0.098938  0.104997  0  1.028491  0
H  H61  1  0.69445043  0.28368849  0.81881007  1  0.097212  0  0.098946  0.105017  0  1.028449  0
H  H62  1  0.80554811  0.28369067  0.31880972  1  0.097133  0  0.098925  0.104972  0  1.028338  0
H  H63  1  0.30555289  0.71630800  0.18119128  1  0.097314  0  0.098925  0.10498  0  1.028533  0
H  H64  1  0.91242973  0.96963970  0.89073564  1  0.111013  0  0.116826  0.106203  0  0.983363  0
H  H65  1  0.41242886  0.03036128  0.60926525  1  0.111027  0  0.116832  0.106219  0  0.983389  0
H  H66  1  0.08757170  0.03036091  0.10926357  1  0.11103  0  0.116832  0.106216  0  0.983362  0
H  H67  1  0.58757256  0.96963861  0.39073671  1  0.111031  0  0.116829  0.106214  0  0.983376  0
H  H68  1  0.85788006  0.86390765  0.88552416  1  0.105595  0  0.11611  0.105073  0  0.994583  0
H  H69  1  0.35788282  0.13609611  0.61447516  1  0.10559  0  0.11614  0.105117  0  0.994474  0
H  H70  1  0.14211475  0.13609429  0.11447747  1  0.10563  0  0.116127  0.1051  0  0.994565  0
H  H71  1  0.64211577  0.86390857  0.38552440  1  0.105645  0  0.11613  0.105099  0  0.994649  0
H  H72  1  0.98401873  0.77924936  0.94319437  1  0.142056  0  0.126254  0.100352  0  1.011553  0
H  H73  1  0.48402137  0.22075563  0.55680832  1  0.142062  0  0.126288  0.10037  0  1.011557  0
H  H74  1  0.01597892  0.22075461  0.05680841  1  0.141981  0  0.126275  0.100387  0  1.011571  0
H  H75  1  0.51597817  0.77924702  0.44319057  1  0.142067  0  0.126227  0.100326  0  1.01161  0
H  H76  1  0.12020065  0.05909859  0.90484055  1  0.077477  0  0.099785  0.11726  0  1.01148  0
H  H77  1  0.62019208  0.94090196  0.59515624  1  0.077463  0  0.099763  0.11728  0  1.011391  0
H  H78  1  0.87980833  0.94089998  0.09515702  1  0.077404  0  0.099797  0.117316  0  1.011396  0
H  H79  1  0.37980556  0.05909999  0.40484440  1  0.077452  0  0.099773  0.117288  0  1.011405  0
H  H80  1  0.30961210  0.14230390  0.97043157  1  0.089773  0  0.088676  0.087655  0  1.049482  0
H  H81  1  0.80961121  0.85769847  0.52957373  1  0.089684  0  0.088717  0.087676  0  1.049491  0
H  H82  1  0.69039782  0.85769192  0.02956906  1  0.089616  0  0.088727  0.087686  0  1.049416  0
H  H83  1  0.19039211  0.14230209  0.47042894  1  0.089708  0  0.088712  0.087685  0  1.049531  0
H  H84  1  0.43718867  0.08609012  0.04662851  1  0.074211  0  0.096259  0.095951  0  1.015982  0
H  H85  1  0.93719717  0.91390772  0.45337816  1  0.074144  0  0.096285  0.096059  0  1.016002  0
H  H86  1  0.56281370  0.91390703  0.95337552  1  0.074205  0  0.096274  0.096008  0  1.016109  0
H  H87  1  0.06280614  0.08609284  0.54662500  1  0.074147  0  0.09629  0.096063  0  1.015983  0
H  H88  1  0.37586235  0.94575440  0.06307350  1  0.087774  0  0.105161  0.119803  0  0.984774  0
H  H89  1  0.87586641  0.05423674  0.43692604  1  0.08792  0  0.105141  0.119749  0  0.984797  0
H  H90  1  0.62413152  0.05424204  0.93693277  1  0.087925  0  0.105138  0.119812  0  0.984796  0
H  H91  1  0.12413596  0.94575912  0.56307065  1  0.087907  0  0.105138  0.119784  0  0.98475  0
H  H92  1  0.32694552  0.78011412  0.55140845  1  0.480532  0  0.27709  0.249885  0  1.070566  0
H  H93  1  0.82694557  0.21988558  0.94859103  1  0.480609  0  0.277093  0.24988  0  1.070586  0
H  H94  1  0.67305685  0.21988648  0.44859126  1  0.480675  0  0.277056  0.249833  0  1.070689  0
H  H95  1  0.17305775  0.78011433  0.05140994  1  0.480659  0  0.277048  0.249831  0  1.070774  0
H  H96  1  0.34277822  0.68787858  0.57134690  1  0.429377  0  0.285989  0.25839  0  0.99535  0
H  H97  1  0.84278191  0.31212108  0.92865455  1  0.429361  0  0.285978  0.258407  0  0.995284  0
H  H98  1  0.65722226  0.31212134  0.42865258  1  0.429501  0  0.285981  0.25839  0  0.995337  0
H  H99  1  0.15722329  0.68787811  0.07134866  1  0.429492  0  0.28599  0.258406  0  0.995244  0
C  C100  1  0.83711386  0.71053398  0.22723010  1  0.011936  0  -0.093914  -0.151907  0  3.979609  0
C  C101  1  0.33711548  0.28946328  0.27277340  1  0.012419  0  -0.093775  -0.151692  0  3.979372  0
C  C102  1  0.16288473  0.28946390  0.77276872  1  0.012156  0  -0.093901  -0.151915  0  3.979544  0
C  C103  1  0.66288595  0.71053664  0.72722559  1  0.012965  0  -0.093745  -0.151528  0  3.979392  0
C  C104  1  0.73504642  0.65063822  0.20283929  1  0.395003  0  0.084851  0.13903  0  4.047192  0
C  C105  1  0.23504512  0.34935982  0.29716199  1  0.394718  0  0.084858  0.139023  0  4.04711  0
C  C106  1  0.26495028  0.34936375  0.79715938  1  0.395259  0  0.084825  0.139013  0  4.04731  0
C  C107  1  0.76494686  0.65063943  0.70283678  1  0.394647  0  0.08488  0.138934  0  4.047463  0
C  C108  1  0.67332015  0.61773320  0.24973099  1  0.248789  0  0.092845  0.093428  0  3.987312  0
C  C109  1  0.17332163  0.38226555  0.25027053  1  0.249053  0  0.092769  0.09328  0  3.987437  0
C  C110  1  0.32667750  0.38226265  0.75026668  1  0.24853  0  0.092871  0.093304  0  3.987336  0
C  C111  1  0.82667223  0.61773708  0.74972935  1  0.248712  0  0.092837  0.093381  0  3.987351  0
C  C112  1  0.71067204  0.64302622  0.32150615  1  0.074228  0  -0.098415  -0.16477  0  3.993425  0
C  C113  1  0.21067260  0.35697114  0.17849590  1  0.074107  0  -0.098417  -0.164748  0  3.993543  0
C  C114  1  0.28932372  0.35697100  0.67849048  1  0.074229  0  -0.09839  -0.164618  0  3.993183  0
C  C115  1  0.78931370  0.64302945  0.82150430  1  0.07427  0  -0.098503  -0.164807  0  3.993383  0
C  C116  1  0.81168605  0.70340683  0.34535462  1  -0.04594  0  -0.098569  -0.08877  0  4.031656  0
C  C117  1  0.31169048  0.29659249  0.15464906  1  -0.045919  0  -0.0986  -0.088695  0  4.031719  0
C  C118  1  0.18830215  0.29659172  0.65464591  1  -0.045817  0  -0.09863  -0.088741  0  4.031855  0
C  C119  1  0.68829677  0.70341085  0.84534906  1  -0.045525  0  -0.09868  -0.08881  0  4.031428  0
C  C120  1  0.87362489  0.73647995  0.29904549  1  -0.09615  0  -0.101139  -0.098784  0  4.033961  0
C  C121  1  0.37362654  0.26352001  0.20095742  1  -0.096429  0  -0.101148  -0.098876  0  4.034171  0
C  C122  1  0.12636992  0.26352064  0.70095521  1  -0.096478  0  -0.101125  -0.098754  0  4.034236  0
C  C123  1  0.62635788  0.73648062  0.79903933  1  -0.097038  0  -0.10103  -0.098763  0  4.033553  0
C  C124  1  0.58521278  0.55926262  0.14107765  1  1.011535  0  0.159821  0.130176  0  3.92357  0
C  C125  1  0.08521324  0.44073552  0.35892318  1  1.011722  0  0.159824  0.130189  0  3.923576  0
C  C126  1  0.41478864  0.44073118  0.85892035  1  1.011471  0  0.159865  0.13022  0  3.9235  0
C  C127  1  0.91478724  0.55927120  0.64107753  1  1.01157  0  0.159842  0.130277  0  3.923693  0
C  C128  1  0.49958925  0.50059854  0.22980051  1  0.286416  0  -0.046948  -0.107043  0  3.89406  0
C  C129  1  0.99958983  0.49940135  0.27020088  1  0.286414  0  -0.046975  -0.107156  0  3.893997  0
C  C130  1  0.50041029  0.49939795  0.77020083  1  0.286468  0  -0.04701  -0.107289  0  3.89407  0
C  C131  1  0.00040687  0.50060538  0.72979884  1  0.28653  0  -0.047029  -0.107331  0  3.894205  0
C  C132  1  0.41567475  0.55050455  0.29368239  1  -0.0603  0  -0.009948  0.09736  0  3.96065  0
C  C133  1  0.91567539  0.44949677  0.20631799  1  -0.060279  0  -0.009921  0.097476  0  3.960568  0
C  C134  1  0.58432668  0.44949534  0.70631907  1  -0.060281  0  -0.009959  0.097378  0  3.960615  0
C  C135  1  0.08432887  0.55050658  0.79367915  1  -0.060295  0  -0.009953  0.097414  0  3.960785  0
C  C136  1  0.31502723  0.60353244  0.28769693  1  -0.079784  0  -0.09103  -0.133901  0  3.977503  0
C  C137  1  0.81502795  0.39646757  0.21230549  1  -0.079665  0  -0.09099  -0.133884  0  3.977269  0
C  C138  1  0.68497703  0.39646608  0.71230606  1  -0.079656  0  -0.091001  -0.133873  0  3.97734  0
C  C139  1  0.18497725  0.60353577  0.78769215  1  -0.079862  0  -0.090929  -0.133682  0  3.977278  0
C  C140  1  0.23284924  0.64480618  0.34540666  1  -0.04508  0  -0.085028  -0.109682  0  3.97963  0
C  C141  1  0.73284624  0.35519459  0.15459403  1  -0.044939  0  -0.085044  -0.109674  0  3.979382  0
C  C142  1  0.76715691  0.35519442  0.65459354  1  -0.044973  0  -0.085027  -0.109661  0  3.979447  0
C  C143  1  0.26715991  0.64480600  0.84540568  1  -0.045009  0  -0.085062  -0.109888  0  3.979562  0
C  C144  1  0.24921569  0.63260515  0.40991379  1  0.060391  0  -0.007004  0.024228  0  4.03192  0
C  C145  1  0.74921833  0.36739425  0.09008596  1  0.060151  0  -0.00701  0.024131  0  4.031967  0
C  C146  1  0.75078385  0.36739340  0.59008624  1  0.060174  0  -0.007035  0.024021  0  4.032089  0
C  C147  1  0.25078877  0.63260703  0.90991299  1  0.060205  0  -0.006969  0.024219  0  4.031917  0
C  C148  1  0.35197195  0.58147550  0.41664732  1  -0.088621  0  -0.086646  -0.105055  0  3.968989  0
C  C149  1  0.85197263  0.41852380  0.08335487  1  -0.098817  0  -0.08667  -0.105072  0  3.968919  0
C  C150  1  0.64802853  0.41852235  0.58335447  1  -0.0988  0  -0.086613  -0.104983  0  3.969048  0
C  C151  1  0.14803257  0.58147545  0.91664291  1  -0.098797  0  -0.086672  -0.105108  0  3.968886  0
C  C152  1  0.43435968  0.54087321  0.35877951  1  0.044793  0  -0.089301  -0.126225  0  3.968004  0
C  C153  1  0.93435936  0.45912604  0.14122267  1  0.055159  0  -0.089287  -0.126205  0  3.968014  0
C  C154  1  0.56564363  0.45912532  0.64122250  1  0.055214  0  -0.089257  -0.126139  0  3.967944  0
C  C155  1  0.06564112  0.54087595  0.85877502  1  0.055729  0  -0.089282  -0.126235  0  3.968013  0
C  C156  1  0.15240022  0.66598456  0.46603967  1  0.950251  0  0.224858  0.19332  0  4.009636  0
C  C157  1  0.65239818  0.33401901  0.03395945  1  0.950364  0  0.224865  0.193353  0  4.009634  0
C  C158  1  0.84760404  0.33402149  0.53396032  1  0.950317  0  0.224852  0.19343  0  4.009553  0
C  C159  1  0.34760419  0.66598225  0.96604196  1  0.950381  0  0.224833  0.193358  0  4.009661  0
C  C160  1  0.05592485  0.72407582  0.57134690  1  0.955719  0  0.230858  0.21228  0  3.984159  0
C  C161  1  0.55592670  0.27592067  0.92865154  1  0.953342  0  0.230836  0.212235  0  3.984237  0
C  C162  1  0.94407657  0.27592478  0.42865232  1  0.955657  0  0.230787  0.212205  0  3.984092  0
C  C163  1  0.44407566  0.72407381  0.07134717  1  0.955656  0  0.23079  0.212179  0  3.984255  0
C  C164  1  0.03081255  0.77026527  0.64831534  1  -0.000475  0  -0.013733  0.01213  0  4.048998  0
C  C165  1  0.53081541  0.22973326  0.85168525  1  -0.000643  0  -0.013712  0.012096  0  4.049096  0
C  C166  1  0.96918793  0.22973805  0.35168476  1  -0.001179  0  -0.013763  0.012119  0  4.04898  0
C  C167  1  0.46918601  0.77026189  0.14831368  1  -0.001249  0  -0.013734  0.012134  0  4.048949  0
C  C168  1  0.92291689  0.82531828  0.67210751  1  -0.031397  0  -0.086369  -0.104564  0  3.978931  0
C  C169  1  0.42291772  0.17468135  0.82789146  1  -0.031398  0  -0.086344  -0.104469  0  3.978898  0
C  C170  1  0.07708548  0.17468638  0.32789451  1  -0.031415  0  -0.086367  -0.104592  0  3.978857  0
C  C171  1  0.57708181  0.82531519  0.17210545  1  -0.031414  0  -0.086372  -0.104578  0  3.97879  0
C  C172  1  0.89599156  0.86755086  0.74546655  1  -0.03965  0  -0.090498  -0.130895  0  3.979387  0
C  C173  1  0.39599056  0.13244946  0.75453413  1  -0.039682  0  -0.090536  -0.131061  0  3.979461  0
C  C174  1  0.10401081  0.13245177  0.25453481  1  -0.039113  0  -0.090553  -0.130923  0  3.979419  0
C  C175  1  0.60400992  0.86755045  0.24546635  1  -0.03969  0  -0.090526  -0.130903  0  3.979273  0
C  C176  1  0.97545423  0.85540908  0.79631638  1  -0.006069  0  -0.006902  0.102591  0  3.958689  0
C  C177  1  0.47545416  0.14459320  0.70368593  1  -0.005975  0  -0.006942  0.10257  0  3.958558  0
C  C178  1  0.02454720  0.14459558  0.20368564  1  -0.006001  0  -0.006908  0.102561  0  3.958935  0
C  C179  1  0.52454538  0.85540532  0.29631657  1  -0.006023  0  -0.006909  0.102518  0  3.958939  0
C  C180  1  0.08305890  0.80120549  0.77254126  1  -0.080077  0  -0.09705  -0.139268  0  3.99005  0
C  C181  1  0.58306085  0.19879708  0.72746014  1  -0.080437  0  -0.097004  -0.139245  0  3.990082  0
C  C182  1  0.91694063  0.19879578  0.22745916  1  -0.080515  0  -0.097031  -0.139305  0  3.990346  0
C  C183  1  0.41694530  0.80120349  0.27254203  1  -0.080445  0  -0.096996  -0.139098  0  3.990201  0
C  C184  1  0.11103011  0.75892135  0.69928765  1  0.0004  0  -0.08609  -0.097973  0  3.981896  0
C  C185  1  0.61102916  0.24107985  0.80071232  1  0.000814  0  -0.086155  -0.098033  0  3.981994  0
C  C186  1  0.88897510  0.24108199  0.30070998  1  0.00139  0  -0.086045  -0.097859  0  3.981762  0
C  C187  1  0.38897320  0.75891596  0.19928880  1  0.001328  0  -0.086089  -0.097988  0  3.981798  0
C  C188  1  0.94051621  0.89855053  0.87534096  1  0.259584  0  -0.042594  -0.106862  0  3.911705  0
C  C189  1  0.44051714  0.10145043  0.62465993  1  0.259234  0  -0.042613  -0.106899  0  3.91151  0
C  C190  1  0.05948332  0.10145072  0.12466094  1  0.259155  0  -0.042646  -0.106921  0  3.911826  0
C  C191  1  0.55948145  0.89855014  0.37534224  1  0.259133  0  -0.042625  -0.10691  0  3.911913  0
C  C192  1  0.05306872  0.83287232  0.95275573  1  1.010874  0  0.152681  0.126549  0  3.956792  0
C  C193  1  0.55307258  0.16712755  0.54724529  1  1.010624  0  0.152656  0.126472  0  3.956876  0
C  C194  1  0.94692987  0.16713095  0.04724831  1  1.010664  0  0.15265  0.126533  0  3.956703  0
C  C195  1  0.44692978  0.83287171  0.45275250  1  1.010554  0  0.152733  0.126663  0  3.956711  0
C  C196  1  0.21265816  0.92278918  0.99261768  1  0.367715  0  0.078158  0.12995  0  4.090994  0
C  C197  1  0.71266310  0.07720311  0.50738137  1  0.367868  0  0.078116  0.129776  0  4.091559  0
C  C198  1  0.78733759  0.07720661  0.00738590  1  0.367496  0  0.078114  0.129862  0  4.091269  0
C  C199  1  0.28734116  0.92279272  0.49261778  1  0.367645  0  0.07822  0.129935  0  4.09122  0
C  C200  1  0.14213310  0.95493900  0.94777048  1  0.303845  0  0.086863  0.079666  0  4.012861  0
C  C201  1  0.64213431  0.04505610  0.55222503  1  0.303485  0  0.086809  0.079557  0  4.013321  0
C  C202  1  0.85786549  0.04505751  0.05222938  1  0.303542  0  0.086759  0.079354  0  4.013103  0
C  C203  1  0.35786334  0.95494048  0.44776892  1  0.303361  0  0.086813  0.079654  0  4.013105  0
C  C204  1  0.17545900  0.03320001  0.93796938  1  0.03154  0  -0.100382  -0.163965  0  4.009579  0
C  C205  1  0.67545890  0.96679708  0.56202925  1  0.032432  0  -0.100289  -0.163833  0  4.009642  0
C  C206  1  0.82453675  0.96679309  0.06203086  1  0.03245  0  -0.100278  -0.163708  0  4.009429  0
C  C207  1  0.32454158  0.03320081  0.43796859  1  0.03233  0  -0.100359  -0.163932  0  4.00952  0
C  C208  1  0.28227492  0.07951029  0.97507045  1  -0.069789  0  -0.10515  -0.099407  0  4.040272  0
C  C209  1  0.78227016  0.92048671  0.52492914  1  -0.069751  0  -0.10517  -0.099375  0  4.040591  0
C  C210  1  0.71773217  0.92048690  0.02492914  1  -0.069883  0  -0.105185  -0.099434  0  4.040614  0
C  C211  1  0.21772749  0.07951254  0.47506914  1  -0.069714  0  -0.105128  -0.099325  0  4.040408  0
C  C212  1  0.35380519  0.04810446  0.01925762  1  -0.057792  0  -0.103903  -0.102396  0  4.06102  0
C  C213  1  0.85380892  0.95188803  0.48074533  1  -0.057612  0  -0.104049  -0.102777  0  4.061248  0
C  C214  1  0.64619623  0.95188590  0.98074371  1  -0.057818  0  -0.104035  -0.102662  0  4.061224  0
C  C215  1  0.14619345  0.04811120  0.51925542  1  -0.058032  0  -0.104073  -0.1028  0  4.061258  0
C  C216  1  0.32071076  0.96959993  0.02851890  1  -0.065778  0  -0.097064  -0.164559  0  4.001147  0
C  C217  1  0.82071675  0.03038924  0.47147703  1  -0.066261  0  -0.096918  -0.1642  0  4.001111  0
C  C218  1  0.67928216  0.03039519  0.97148249  1  -0.065878  0  -0.096902  -0.164302  0  4.000972  0
C  C219  1  0.17928468  0.96960797  0.52852059  1  -0.065761  0  -0.096952  -0.164322  0  4.001007  0
N  N220  1  0.02923484  0.65486614  0.45332677  1  -0.705472  0  -0.228085  -0.257158  0  3.231369  0
N  N221  1  0.52923373  0.34513615  0.04667243  1  -0.705494  0  -0.228098  -0.257185  0  3.231338  0
N  N222  1  0.97076847  0.34513718  0.54667333  1  -0.705557  0  -0.228097  -0.257203  0  3.231473  0
N  N223  1  0.47076769  0.65486376  0.95332805  1  -0.705502  0  -0.228086  -0.257171  0  3.231466  0
N  N224  1  0.96933877  0.69104507  0.51917609  1  -0.731037  0  -0.228717  -0.221325  0  3.440033  0
N  N225  1  0.46933754  0.30895657  0.98082304  1  -0.730965  0  -0.228717  -0.221309  0  3.440002  0
N  N226  1  0.03066549  0.30895892  0.48082472  1  -0.731059  0  -0.22864  -0.221268  0  3.439938  0
N  N227  1  0.53066577  0.69104063  0.01917556  1  -0.731085  0  -0.228637  -0.221251  0  3.440053  0
N  N228  1  0.17283107  0.70822545  0.53957358  1  -0.875496  0  -0.138513  0.093667  0  3.752431  0
N  N229  1  0.67283101  0.29177640  0.96042610  1  -0.873347  0  -0.138509  0.093766  0  3.752455  0
N  N230  1  0.82717035  0.29177855  0.46042674  1  -0.875476  0  -0.138555  0.093643  0  3.752381  0
N  N231  1  0.32716947  0.70822215  0.03957393  1  -0.875548  0  -0.138555  0.093685  0  3.752555  0
N  N232  1  0.28577485  0.74146006  0.57646587  1  -0.741573  0  -0.509591  -0.524824  0  3.205581  0
N  N233  1  0.78577483  0.25854168  0.92353576  1  -0.741612  0  -0.509574  -0.524867  0  3.205559  0
N  N234  1  0.71422941  0.25854188  0.42353526  1  -0.741716  0  -0.509495  -0.524741  0  3.205602  0
N  N235  1  0.21422848  0.74145821  0.07646668  1  -0.741744  0  -0.509492  -0.524778  0  3.205571  0
N  N236  1  0.57920870  0.55979508  0.20845329  1  -1.217666  0  -0.235839  -0.010032  0  3.711785  0
N  N237  1  0.07920916  0.44020307  0.29154803  1  -1.217843  0  -0.235813  -0.009972  0  3.711744  0
N  N238  1  0.42079272  0.44019738  0.79154278  1  -1.2177  0  -0.235852  -0.009991  0  3.711796  0
N  N239  1  0.92079226  0.55980364  0.70845367  1  -1.217838  0  -0.235852  -0.009971  0  3.711734  0
N  N240  1  0.67682528  0.61241667  0.13545283  1  -1.199622  0  -0.332371  -0.30507  0  3.508573  0
N  N241  1  0.17682677  0.38758209  0.36454868  1  -1.199753  0  -0.332439  -0.305154  0  3.50866  0
N  N242  1  0.32317519  0.38757713  0.86454516  1  -1.199641  0  -0.332418  -0.305103  0  3.508585  0
N  N243  1  0.82317655  0.61242668  0.63545170  1  -1.199855  0  -0.332459  -0.305218  0  3.508886  0
N  N244  1  0.04062308  0.89568242  0.92330756  1  -1.236476  0  -0.248393  -0.029434  0  3.75777  0
N  N245  1  0.54062515  0.10431477  0.57669061  1  -1.235809  0  -0.248382  -0.029384  0  3.757702  0
N  N246  1  0.95937362  0.10431612  0.07669346  1  -1.235777  0  -0.248407  -0.029396  0  3.757776  0
N  N247  1  0.45937439  0.89568517  0.42330740  1  -1.235819  0  -0.248444  -0.029543  0  3.757899  0
N  N248  1  0.15378610  0.84646628  0.99445621  1  -1.202018  0  -0.335835  -0.355693  0  3.321274  0
N  N249  1  0.65378999  0.15352742  0.50554181  1  -1.202541  0  -0.335843  -0.355621  0  3.321321  0
N  N250  1  0.84620776  0.15353293  0.00554601  1  -1.202166  0  -0.335793  -0.355713  0  3.321078  0
N  N251  1  0.34621144  0.84646911  0.49445559  1  -1.202143  0  -0.335864  -0.355771  0  3.321195  0
Cl  Cl252  1  0.76116029  0.47976919  0.42452855  1  -0.573574  0  -0.303761  -0.454696  0  1.139025  0
Cl  Cl253  1  0.26115967  0.52022953  0.07547098  1  -0.573546  0  -0.303737  -0.454653  0  1.139002  0
Cl  Cl254  1  0.23883830  0.52023207  0.57547286  1  -0.573603  0  -0.303741  -0.454666  0  1.139012  0
Cl  Cl255  1  0.73884081  0.47976903  0.92452807  1  -0.573583  0  -0.303762  -0.454694  0  1.139029  0
Cl  Cl256  1  0.60134385  0.74308253  0.55805451  1  -0.551521  0  -0.288072  -0.435347  0  1.192294  0
Cl  Cl257  1  0.10134364  0.25691800  0.94194524  1  -0.551535  0  -0.288076  -0.435334  0  1.192268  0
Cl  Cl258  1  0.39865757  0.25692010  0.44194635  1  -0.551529  0  -0.288062  -0.435349  0  1.192322  0
Cl  Cl259  1  0.89865779  0.74307986  0.05805556  1  -0.551541  0  -0.288062  -0.435328  0  1.192304  0
