# generated using pymatgen
data_ZnH8(C5N7)2
_symmetry_space_group_name_H-M   'P 1'
_cell_length_a   8.22065810
_cell_length_b   8.19502121
_cell_length_c   11.84746509
_cell_angle_alpha   109.98484900
_cell_angle_beta   90.97543203
_cell_angle_gamma   98.82976000
_symmetry_Int_Tables_number   1
_chemical_formula_structural   ZnH8(C5N7)2
_chemical_formula_sum   'Zn2 H16 C20 N28'
_cell_volume   739.11648628
_cell_formula_units_Z   2
loop_
 _symmetry_equiv_pos_site_id
 _symmetry_equiv_pos_as_xyz
  1  'x, y, z'
loop_
 _atom_site_type_symbol
 _atom_site_label
 _atom_site_symmetry_multiplicity
 _atom_site_fract_x
 _atom_site_fract_y
 _atom_site_fract_z
 _atom_site_occupancy
 _atom_site_hle17_bader_spin_density
 _atom_site_hle17_ddec_charge
 _atom_site_hle17_ddec_spin_density
 _atom_site_hle17_ddec_sum_bond_order
 _atom_site_hle17_magmom
 _atom_site_hse06_10hf_bader_spin_density
 _atom_site_hse06_10hf_ddec_charge
 _atom_site_hse06_10hf_ddec_spin_density
 _atom_site_hse06_10hf_ddec_sum_bond_order
 _atom_site_hse06_10hf_magmom
 _atom_site_hse06_bader_spin_density
 _atom_site_hse06_ddec_charge
 _atom_site_hse06_ddec_spin_density
 _atom_site_hse06_ddec_sum_bond_order
 _atom_site_hse06_magmom
 _atom_site_pbe_bader_spin_density
 _atom_site_pbe_cm5_charge
 _atom_site_pbe_ddec_charge
 _atom_site_pbe_ddec_spin_density
 _atom_site_pbe_ddec_sum_bond_order
 _atom_site_pbe_magmom
Zn  Zn0  1  0.29984345  0.98401774  0.51987674  1  0  0.905838  0  2.02066  0  0  0.741078  0  2.468323  0  0  0.77894  0  2.430566  0  0  0.705533  0.715169  0  2.493804  0
Zn  Zn1  1  0.70015548  0.01598181  0.48012318  1  0  0.905847  0  2.02064  0  0  0.741096  0  2.468288  0  0  0.778957  0  2.430532  0  0  0.705549  0.715187  0  2.493771  0
H  H2  1  0.33818166  0.13947419  0.79557818  1  0  0.08188  0  0.975419  0  0  0.084912  0  1.049878  0  0  0.086498  0  1.047509  0  0  0.114448  0.083658  0  1.051689  0
H  H3  1  0.66181361  0.86052536  0.20442253  1  0  0.081909  0  0.975402  0  0  0.084913  0  1.049911  0  0  0.086494  0  1.04754  0  0  0.114439  0.083658  0  1.051721  0
H  H4  1  0.35620983  0.03788911  0.96994936  1  0  0.12445  0  0.945007  0  0  0.133871  0  1.005038  0  0  0.137195  0  1.004177  0  0  0.11204  0.131538  0  1.005742  0
H  H5  1  0.64378666  0.96211045  0.03005137  1  0  0.124446  0  0.945041  0  0  0.133871  0  1.005067  0  0  0.137194  0  1.004207  0  0  0.11205  0.131537  0  1.005772  0
H  H6  1  0.29599594  0.50390407  0.71497027  1  0  0.12066  0  0.97561  0  0  0.123879  0  1.047641  0  0  0.1264  0  1.048045  0  0  0.105833  0.122042  0  1.047584  0
H  H7  1  0.70400643  0.49609416  0.28502854  1  0  0.120705  0  0.975558  0  0  0.123898  0  1.047621  0  0  0.12642  0  1.048024  0  0  0.105852  0.12206  0  1.047564  0
H  H8  1  0.28404569  0.63130283  0.55106257  1  0  0.078303  0  0.951137  0  0  0.088487  0  1.015137  0  0  0.090243  0  1.013074  0  0  0.116162  0.087187  0  1.016618  0
H  H9  1  0.71595588  0.36869804  0.44893685  1  0  0.078347  0  0.951091  0  0  0.088496  0  1.015132  0  0  0.090252  0  1.013068  0  0  0.116164  0.087205  0  1.016604  0
H  H10  1  0.28334168  0.33700090  0.49568969  1  0  0.072451  0  0.954385  0  0  0.081788  0  1.018831  0  0  0.083292  0  1.017634  0  0  0.115179  0.080678  0  1.019706  0
H  H11  1  0.71665724  0.66299866  0.50431023  1  0  0.072401  0  0.954422  0  0  0.08175  0  1.018859  0  0  0.083254  0  1.01766  0  0  0.115171  0.08064  0  1.019732  0
H  H12  1  0.17267157  0.46016909  0.34942344  1  0  0.120601  0  0.976272  0  0  0.123995  0  1.048449  0  0  0.126934  0  1.047812  0  0  0.106596  0.121863  0  1.049123  0
H  H13  1  0.82732878  0.53983178  0.65057681  1  0  0.120589  0  0.976281  0  0  0.123986  0  1.048453  0  0  0.126924  0  1.047816  0  0  0.106595  0.121855  0  1.049126  0
H  H14  1  0.10085395  0.93212928  0.08531915  1  0  0.119311  0  0.967352  0  0  0.120082  0  1.042596  0  0  0.124484  0  1.040548  0  0  0.107053  0.117028  0  1.044081  0
H  H15  1  0.89915248  0.06787158  0.91467949  1  0  0.119349  0  0.967306  0  0  0.120073  0  1.042629  0  0  0.124474  0  1.040581  0  0  0.10707  0.117018  0  1.044114  0
H  H16  1  0.20867969  0.83259155  0.24449233  1  0  0.074015  0  0.975875  0  0  0.076947  0  1.050862  0  0  0.078267  0  1.049465  0  0  0.112857  0.075888  0  1.051936  0
H  H17  1  0.79132310  0.16740932  0.75550710  1  0  0.074004  0  0.975926  0  0  0.076938  0  1.050902  0  0  0.078258  0  1.049506  0  0  0.112853  0.075882  0  1.051975  0
C  C18  1  0.33221515  0.00032627  0.78120514  1  0  0.149933  0  3.691804  0  0  0.116864  0  3.945261  0  0  0.125684  0  3.962935  0  0  0.047242  0.11123  0  3.933185  0
C  C19  1  0.66778256  0.99967328  0.21879560  1  0  0.149937  0  3.691829  0  0  0.116873  0  3.945317  0  0  0.125698  0  3.96299  0  0  0.047243  0.111238  0  3.933238  0
C  C20  1  0.34148984  0.94344550  0.87840137  1  0  -0.19489  0  3.690782  0  0  -0.216758  0  3.947445  0  0  -0.224912  0  3.965019  0  0  -0.087915  -0.211584  0  3.935682  0
C  C21  1  0.65850766  0.05655274  0.12159822  1  0  -0.194915  0  3.690779  0  0  -0.216786  0  3.947452  0  0  -0.224941  0  3.965022  0  0  -0.087922  -0.211613  0  3.935689  0
C  C22  1  0.32981698  0.76257087  0.85636018  1  0  0.243081  0  3.843547  0  0  0.239266  0  4.105683  0  0  0.251767  0  4.123681  0  0  0.112569  0.231008  0  4.093344  0
C  C23  1  0.67018316  0.23742868  0.14363975  1  0  0.243072  0  3.843486  0  0  0.239252  0  4.105629  0  0  0.251752  0  4.123627  0  0  0.112557  0.230993  0  4.093288  0
C  C24  1  0.30758694  0.64580041  0.73646076  1  0  -0.218717  0  3.705982  0  0  -0.238579  0  3.960001  0  0  -0.249586  0  3.981901  0  0  -0.099738  -0.231554  0  3.945468  0
C  C25  1  0.69241442  0.35419915  0.26353835  1  0  -0.218709  0  3.705969  0  0  -0.238543  0  3.959984  0  0  -0.24955  0  3.981882  0  0  -0.099734  -0.231519  0  3.945453  0
C  C26  1  0.30070979  0.71580270  0.64542998  1  0  0.152529  0  3.703068  0  0  0.120545  0  3.954434  0  0  0.129771  0  3.97197  0  0  0.046184  0.114628  0  3.94248  0
C  C27  1  0.69929035  0.28419686  0.35456911  1  0  0.152462  0  3.703097  0  0  0.1205  0  3.954459  0  0  0.129727  0  3.971996  0  0  0.046168  0.114577  0  3.9425  0
C  C28  1  0.24115293  0.25284840  0.40356200  1  0  0.149642  0  3.719066  0  0  0.118815  0  3.970469  0  0  0.126931  0  3.989269  0  0  0.043146  0.11357  0  3.957703  0
C  C29  1  0.75884599  0.74715115  0.59643876  1  0  0.149734  0  3.71901  0  0  0.118895  0  3.970419  0  0  0.127012  0  3.989219  0  0  0.043174  0.113653  0  3.957651  0
C  C30  1  0.18163559  0.32079474  0.32199534  1  0  -0.20905  0  3.708598  0  0  -0.228706  0  3.960904  0  0  -0.238731  0  3.98193  0  0  -0.094144  -0.222308  0  3.946987  0
C  C31  1  0.81836476  0.67920613  0.67800406  1  0  -0.209054  0  3.708558  0  0  -0.228697  0  3.96087  0  0  -0.238731  0  3.98189  0  0  -0.094157  -0.222297  0  3.946954  0
C  C32  1  0.13153042  0.20428451  0.20454170  1  0  0.252409  0  3.824896  0  0  0.251939  0  4.077238  0  0  0.263772  0  4.095643  0  0  0.118142  0.244093  0  4.064661  0
C  C33  1  0.86847115  0.79571636  0.79545856  1  0  0.252342  0  3.824886  0  0  0.251852  0  4.077251  0  0  0.263709  0  4.095625  0  0  0.118114  0.244006  0  4.064676  0
C  C34  1  0.14154094  0.02582029  0.17515099  1  0  -0.188834  0  3.681742  0  0  -0.207061  0  3.933355  0  0  -0.215735  0  3.951157  0  0  -0.085848  -0.201524  0  3.921473  0
C  C35  1  0.85846327  0.97418190  0.82484878  1  0  -0.188819  0  3.681668  0  0  -0.207027  0  3.933296  0  0  -0.215707  0  3.951089  0  0  -0.085839  -0.201485  0  3.921412  0
C  C36  1  0.20120801  0.97075616  0.26382346  1  0  0.151265  0  3.702626  0  0  0.117759  0  3.956679  0  0  0.125975  0  3.975415  0  0  0.044616  0.112493  0  3.943985  0
C  C37  1  0.79879377  0.02924603  0.73617712  1  0  0.151295  0  3.702674  0  0  0.117791  0  3.956704  0  0  0.126006  0  3.975443  0  0  0.044619  0.112526  0  3.944011  0
N  N38  1  0.52569921  0.17620928  0.57879352  1  0  -0.588141  0  2.826125  0  0  -0.547717  0  3.144662  0  0  -0.570092  0  3.148298  0  0  -0.311213  -0.532358  0  3.141873  0
N  N39  1  0.47429929  0.82378764  0.42120661  1  0  -0.588101  0  2.826166  0  0  -0.54767  0  3.144706  0  0  -0.570047  0  3.148345  0  0  -0.311184  -0.532296  0  3.141872  0
N  N40  1  0.55525776  0.29453600  0.67448074  1  0  0.401701  0  4.213923  0  0  0.439444  0  4.495324  0  0  0.455489  0  4.522252  0  0  0.082621  0.428698  0  4.477048  0
N  N41  1  0.44473952  0.70546092  0.32552022  1  0  0.401592  0  4.214006  0  0  0.439328  0  4.495411  0  0  0.455373  0  4.522339  0  0  0.082541  0.428586  0  4.47714  0
N  N42  1  0.58410622  0.41066769  0.76650128  1  0  -0.39883  0  2.419997  0  0  -0.414917  0  2.667283  0  0  -0.421244  0  2.677549  0  0  -0.211599  -0.410358  0  2.660382  0
N  N43  1  0.41589106  0.58932922  0.23349883  1  0  -0.398774  0  2.420046  0  0  -0.414847  0  2.667309  0  0  -0.421176  0  2.677583  0  0  -0.211554  -0.410291  0  2.660408  0
N  N44  1  0.15602667  0.18012835  0.63536127  1  0  -0.492197  0  2.613968  0  0  -0.4819  0  2.903385  0  0  -0.496763  0  2.911508  0  0  -0.25447  -0.471714  0  2.897908  0
N  N45  1  0.84397347  0.81987120  0.36463782  1  0  -0.492256  0  2.613993  0  0  -0.481964  0  2.903411  0  0  -0.496824  0  2.911534  0  0  -0.254502  -0.471781  0  2.897937  0
N  N46  1  0.03141013  0.20641782  0.59854664  1  0  0.392944  0  4.258242  0  0  0.427128  0  4.543752  0  0  0.442897  0  4.572863  0  0  0.075298  0.416636  0  4.523994  0
N  N47  1  0.96858880  0.79358174  0.40145244  1  0  0.393077  0  4.258184  0  0  0.427269  0  4.543681  0  0  0.443037  0  4.572792  0  0  0.075378  0.416776  0  4.523923  0
N  N48  1  0.90743638  0.23657352  0.56340851  1  0  -0.502885  0  2.613437  0  0  -0.492061  0  2.901874  0  0  -0.506866  0  2.909732  0  0  -0.261495  -0.48186  0  2.89651  0
N  N49  1  0.09256255  0.76342604  0.43659056  1  0  -0.502985  0  2.61339  0  0  -0.49217  0  2.901835  0  0  -0.506975  0  2.909695  0  0  -0.261559  -0.481973  0  2.896476  0
N  N50  1  0.31299763  0.88942577  0.66608907  1  0  -0.318577  0  3.283849  0  0  -0.238951  0  3.542636  0  0  -0.25936  0  3.561682  0  0  -0.323894  -0.225275  0  3.529529  0
N  N51  1  0.68700008  0.11057378  0.33391083  1  0  -0.318604  0  3.283884  0  0  -0.238966  0  3.542644  0  0  -0.259376  0  3.561687  0  0  -0.323908  -0.225291  0  3.529537  0
N  N52  1  0.33942737  0.71154599  0.95745396  1  0  -0.25757  0  3.000783  0  0  -0.245423  0  3.282881  0  0  -0.265853  0  3.29979  0  0  -0.151783  -0.231351  0  3.271013  0
N  N53  1  0.66057277  0.28845357  0.04254598  1  0  -0.257555  0  3.000754  0  0  -0.2454  0  3.282853  0  0  -0.265831  0  3.299763  0  0  -0.15178  -0.231327  0  3.270984  0
N  N54  1  0.32670726  0.55364199  0.94471637  1  0  0.341155  0  3.995789  0  0  0.366687  0  4.306431  0  0  0.378696  0  4.328777  0  0  0.147766  0.358365  0  4.291377  0
N  N55  1  0.67329430  0.44635888  0.05528473  1  0  0.341154  0  3.995862  0  0  0.366685  0  4.306502  0  0  0.378694  0  4.328848  0  0  0.147775  0.358364  0  4.291451  0
N  N56  1  0.31594248  0.41557052  0.94975868  1  0  -0.153289  0  2.419984  0  0  -0.164144  0  2.663388  0  0  -0.16113  0  2.670268  0  0  -0.047225  -0.165996  0  2.658958  0
N  N57  1  0.68405909  0.58443035  0.05024242  1  0  -0.153308  0  2.420084  0  0  -0.164158  0  2.663484  0  0  -0.161142  0  2.670361  0  0  -0.047228  -0.166011  0  2.659056  0
N  N58  1  0.24981547  0.08111993  0.37676385  1  0  -0.333141  0  3.284137  0  0  -0.256912  0  3.54353  0  0  -0.277125  0  3.564039  0  0  -0.328099  -0.243325  0  3.52943  0
N  N59  1  0.75018488  0.91888094  0.62323724  1  0  -0.33321  0  3.284134  0  0  -0.256983  0  3.543543  0  0  -0.277197  0  3.56405  0  0  -0.328106  -0.243396  0  3.529446  0
N  N60  1  0.07068960  0.25461840  0.11235272  1  0  -0.251816  0  3.014956  0  0  -0.235912  0  3.289806  0  0  -0.255206  0  3.305038  0  0  -0.145391  -0.222639  0  3.279103  0
N  N61  1  0.92931461  0.74538378  0.88764705  1  0  -0.251809  0  3.014916  0  0  -0.235899  0  3.289781  0  0  -0.255201  0  3.305006  0  0  -0.145383  -0.222622  0  3.279074  0
N  N62  1  0.06034442  0.41036229  0.13185971  1  0  0.34617  0  3.991736  0  0  0.373669  0  4.29926  0  0  0.386629  0  4.320789  0  0  0.148402  0.36475  0  4.284768  0
N  N63  1  0.93965593  0.58963858  0.86814138  1  0  0.346213  0  3.991736  0  0  0.373713  0  4.299258  0  0  0.386673  0  4.320788  0  0  0.148402  0.364794  0  4.284767  0
N  N64  1  0.04138936  0.54717292  0.13439271  1  0  -0.170373  0  2.409732  0  0  -0.178078  0  2.646162  0  0  -0.177221  0  2.655046  0  0  -0.058871  -0.178649  0  2.640574  0
N  N65  1  0.95860997  0.45282926  0.86560952  1  0  -0.170402  0  2.409786  0  0  -0.17811  0  2.646218  0  0  -0.177251  0  2.655095  0  0  -0.058859  -0.178681  0  2.64063  0
