# generated using pymatgen
data_HgH3C5Br4N
_symmetry_space_group_name_H-M   'P 1'
_cell_length_a   4.03553255
_cell_length_b   9.32701649
_cell_length_c   14.00001843
_cell_angle_alpha   81.92293562
_cell_angle_beta   86.73528111
_cell_angle_gamma   88.41869333
_symmetry_Int_Tables_number   1
_chemical_formula_structural   HgH3C5Br4N
_chemical_formula_sum   'Hg2 H6 C10 Br8 N2'
_cell_volume   520.77694109
_cell_formula_units_Z   2
loop_
 _symmetry_equiv_pos_site_id
 _symmetry_equiv_pos_as_xyz
  1  'x, y, z'
loop_
 _atom_site_type_symbol
 _atom_site_label
 _atom_site_symmetry_multiplicity
 _atom_site_fract_x
 _atom_site_fract_y
 _atom_site_fract_z
 _atom_site_occupancy
 _atom_site_hle17_bader_spin_density
 _atom_site_hle17_ddec_charge
 _atom_site_hle17_ddec_spin_density
 _atom_site_hle17_ddec_sum_bond_order
 _atom_site_hle17_magmom
 _atom_site_hse06_10hf_bader_spin_density
 _atom_site_hse06_10hf_ddec_charge
 _atom_site_hse06_10hf_ddec_spin_density
 _atom_site_hse06_10hf_ddec_sum_bond_order
 _atom_site_hse06_10hf_magmom
 _atom_site_hse06_bader_spin_density
 _atom_site_hse06_ddec_charge
 _atom_site_hse06_ddec_spin_density
 _atom_site_hse06_ddec_sum_bond_order
 _atom_site_hse06_magmom
 _atom_site_pbe_bader_spin_density
 _atom_site_pbe_cm5_charge
 _atom_site_pbe_ddec_charge
 _atom_site_pbe_ddec_spin_density
 _atom_site_pbe_ddec_sum_bond_order
 _atom_site_pbe_magmom
Hg  Hg0  1  0.93201135  0.22848382  0.30309630  1  0  0.629715  0  2.135062  0  0  0.492  0  2.632939  0  0  0.5402  0  2.600952  0  0  0.407094  0.459641  0  2.654161  0
Hg  Hg1  1  0.06799546  0.77151357  0.69690623  1  0  0.629722  0  2.135047  0  0  0.49201  0  2.632927  0  0  0.540205  0  2.600939  0  0  0.407092  0.459649  0  2.654149  0
H  H2  1  0.76043471  0.04534417  0.12472211  1  0  0.084473  0  0.974571  0  0  0.084191  0  1.056643  0  0  0.087916  0  1.052731  0  0  0.095212  0.081493  0  1.059462  0
H  H3  1  0.23955934  0.95466080  0.87527992  1  0  0.084449  0  0.97462  0  0  0.0842  0  1.056635  0  0  0.087925  0  1.052722  0  0  0.09522  0.081502  0  1.059452  0
H  H4  1  0.18009641  0.89651405  0.38577417  1  0  0.095984  0  0.962806  0  0  0.098209  0  1.039426  0  0  0.102017  0  1.035302  0  0  0.094641  0.0954  0  1.042511  0
H  H5  1  0.81990284  0.10348661  0.61422603  1  0  0.096012  0  0.962813  0  0  0.098238  0  1.039432  0  0  0.102041  0  1.035313  0  0  0.094665  0.095432  0  1.042512  0
H  H6  1  0.00915203  0.58848052  0.18973586  1  0  0.12672  0  0.956567  0  0  0.133147  0  1.025  0  0  0.13709  0  1.021316  0  0  0.094386  0.130247  0  1.027734  0
H  H7  1  0.99084460  0.41152340  0.81026266  1  0  0.126709  0  0.956536  0  0  0.133137  0  1.024974  0  0  0.137076  0  1.021295  0  0  0.094376  0.130236  0  1.027711  0
C  C8  1  0.11072345  0.72792782  0.29588055  1  0  0.060228  0  3.704584  0  0  0.08229  0  3.970204  0  0  0.081003  0  3.992224  0  0  -0.015794  0.082624  0  3.955558  0
C  C9  1  0.88927322  0.27207502  0.70411878  1  0  0.060255  0  3.704526  0  0  0.082329  0  3.970121  0  0  0.08105  0  3.992133  0  0  -0.015776  0.082656  0  3.95549  0
C  C10  1  0.87144541  0.81351355  0.14594960  1  0  0.052939  0  3.716562  0  0  0.074489  0  3.982625  0  0  0.073073  0  4.005061  0  0  -0.017607  0.074914  0  3.967663  0
C  C11  1  0.12854378  0.18648926  0.85405199  1  0  0.052856  0  3.716585  0  0  0.074453  0  3.982592  0  0  0.073037  0  4.005031  0  0  -0.017575  0.074881  0  3.967628  0
C  C12  1  0.85916096  0.95284986  0.17179548  1  0  0.058356  0  3.713378  0  0  0.016246  0  3.97373  0  0  0.023506  0  3.990988  0  0  0.024378  0.011563  0  3.962061  0
C  C13  1  0.14083583  0.04715081  0.82820333  1  0  0.058465  0  3.713352  0  0  0.016323  0  3.973708  0  0  0.023583  0  3.990966  0  0  0.024395  0.011641  0  3.962036  0
C  C14  1  0.09452721  0.86936579  0.31812046  1  0  0.067983  0  3.685953  0  0  0.026461  0  3.943185  0  0  0.034402  0  3.959107  0  0  0.025226  0.021279  0  3.932524  0
C  C15  1  0.90547203  0.13063486  0.68188046  1  0  0.067957  0  3.68599  0  0  0.026413  0  3.943234  0  0  0.034356  0  3.959154  0  0  0.025213  0.021233  0  3.93258  0
C  C16  1  0.99940651  0.69807871  0.20838125  1  0  -0.107274  0  3.709479  0  0  -0.14117  0  3.957437  0  0  -0.139185  0  3.975046  0  0  -0.087002  -0.142129  0  3.945633  0
C  C17  1  0.00059021  0.30192303  0.79161889  1  0  -0.107267  0  3.709542  0  0  -0.141174  0  3.957468  0  0  -0.139194  0  3.975082  0  0  -0.087038  -0.142132  0  3.94567  0
Br  Br18  1  0.31588155  0.17694262  0.44141566  1  0  -0.359433  0  1.240854  0  0  -0.300406  0  1.59276  0  0  -0.322694  0  1.572423  0  0  -0.193462  -0.28528  0  1.606611  0
Br  Br19  1  0.68412504  0.82305910  0.55858719  1  0  -0.359449  0  1.240879  0  0  -0.300424  0  1.592784  0  0  -0.322713  0  1.572451  0  0  -0.193482  -0.285296  0  1.606635  0
Br  Br20  1  0.58261232  0.35025177  0.16940182  1  0  -0.371485  0  1.177467  0  0  -0.312346  0  1.508283  0  0  -0.333245  0  1.487588  0  0  -0.202838  -0.29807  0  1.52229  0
Br  Br21  1  0.41740507  0.64973487  0.83059364  1  0  -0.37147  0  1.177424  0  0  -0.312356  0  1.508279  0  0  -0.333239  0  1.487557  0  0  -0.20283  -0.298082  0  1.522292  0
Br  Br22  1  0.27443504  0.57538548  0.38555460  1  0  -0.046989  0  1.424488  0  0  -0.043133  0  1.721859  0  0  -0.048942  0  1.716558  0  0  0.039219  -0.038978  0  1.725722  0
Br  Br23  1  0.72556672  0.42461520  0.61444413  1  0  -0.046986  0  1.424504  0  0  -0.043124  0  1.721856  0  0  -0.048935  0  1.716548  0  0  0.039217  -0.038965  0  1.725725  0
Br  Br24  1  0.71333897  0.77997485  0.02620295  1  0  -0.036459  0  1.383451  0  0  -0.032365  0  1.66363  0  0  -0.036569  0  1.656737  0  0  0.044505  -0.029334  0  1.66861  0
Br  Br25  1  0.28665781  0.22002581  0.97379657  1  0  -0.03643  0  1.383525  0  0  -0.032358  0  1.663696  0  0  -0.036553  0  1.656792  0  0  0.044499  -0.029324  0  1.66867  0
N  N26  1  0.97040936  0.97786653  0.25628792  1  0  -0.254751  0  3.25299  0  0  -0.17761  0  3.516061  0  0  -0.198576  0  3.539023  0  0  -0.307955  -0.163371  0  3.500104  0
N  N27  1  0.02958493  0.02213413  0.74371164  1  0  -0.254828  0  3.253087  0  0  -0.17767  0  3.516157  0  0  -0.198635  0  3.53912  0  0  -0.30798  -0.16343  0  3.500199  0
