# generated using pymatgen
data_ZnH10C12(NO)4
_symmetry_space_group_name_H-M   'P 1'
_cell_length_a   7.37564210
_cell_length_b   8.87448947
_cell_length_c   12.62969574
_cell_angle_alpha   108.31531796
_cell_angle_beta   104.30355078
_cell_angle_gamma   97.36266106
_symmetry_Int_Tables_number   1
_chemical_formula_structural   ZnH10C12(NO)4
_chemical_formula_sum   'Zn2 H20 C24 N8 O8'
_cell_volume   741.19852794
_cell_formula_units_Z   2
loop_
 _symmetry_equiv_pos_site_id
 _symmetry_equiv_pos_as_xyz
  1  'x, y, z'
loop_
 _atom_site_type_symbol
 _atom_site_label
 _atom_site_symmetry_multiplicity
 _atom_site_fract_x
 _atom_site_fract_y
 _atom_site_fract_z
 _atom_site_occupancy
 _atom_site_hle17_bader_spin_density
 _atom_site_hle17_ddec_charge
 _atom_site_hle17_ddec_spin_density
 _atom_site_hle17_ddec_sum_bond_order
 _atom_site_hle17_magmom
 _atom_site_hse06_10hf_bader_spin_density
 _atom_site_hse06_10hf_ddec_charge
 _atom_site_hse06_10hf_ddec_spin_density
 _atom_site_hse06_10hf_ddec_sum_bond_order
 _atom_site_hse06_10hf_magmom
 _atom_site_hse06_bader_spin_density
 _atom_site_hse06_ddec_charge
 _atom_site_hse06_ddec_spin_density
 _atom_site_hse06_ddec_sum_bond_order
 _atom_site_hse06_magmom
 _atom_site_pbe_bader_spin_density
 _atom_site_pbe_cm5_charge
 _atom_site_pbe_ddec_charge
 _atom_site_pbe_ddec_spin_density
 _atom_site_pbe_ddec_sum_bond_order
 _atom_site_pbe_magmom
Zn  Zn0  1  0.50521437  0.44234338  0.75107381  1  0  1.008151  0  1.877154  0  0  0.814031  0  2.358998  0  0  0.860851  0  2.303664  0  0  0.695388  0.781287  0  2.397097  0
Zn  Zn1  1  0.25452790  0.69146763  0.24907098  1  0  1.007627  0  1.877921  0  0  0.813279  0  2.359916  0  0  0.860098  0  2.304531  0  0  0.694994  0.780547  0  2.398031  0
H  H2  1  0.89006996  0.51705646  0.28557589  1  0  0.312198  0  0.929523  0  0  0.291574  0  0.991555  0  0  0.299941  0  0.985348  0  0  0.310175  0.285662  0  0.995983  0
H  H3  1  0.10387446  0.23113667  0.71427614  1  0  0.314747  0  0.926497  0  0  0.293991  0  0.988974  0  0  0.302403  0  0.982666  0  0  0.310432  0.288048  0  0.99343  0
H  H4  1  0.90248125  0.88918332  0.13266782  1  0  0.331787  0  0.921777  0  0  0.30911  0  0.989837  0  0  0.31804  0  0.981853  0  0  0.313402  0.302809  0  0.995519  0
H  H5  1  0.26998732  0.75664849  0.86755972  1  0  0.332744  0  0.919397  0  0  0.309415  0  0.988468  0  0  0.318367  0  0.980436  0  0  0.313754  0.303094  0  0.994194  0
H  H6  1  0.58004162  0.53221985  0.15164423  1  0  0.103358  0  0.972666  0  0  0.111629  0  1.038837  0  0  0.114681  0  1.034995  0  0  0.135791  0.10935  0  1.041597  0
H  H7  1  0.92773954  0.37992095  0.84826577  1  0  0.103352  0  0.973266  0  0  0.110836  0  1.040273  0  0  0.113911  0  1.0364  0  0  0.135275  0.108479  0  1.04313  0
H  H8  1  0.54359163  0.71217720  0.49580419  1  0  0.117831  0  0.932226  0  0  0.129315  0  0.987346  0  0  0.132288  0  0.985603  0  0  0.125467  0.127147  0  0.988691  0
H  H9  1  0.54751632  0.21681293  0.50404963  1  0  0.118024  0  0.93176  0  0  0.129284  0  0.987066  0  0  0.132227  0  0.985359  0  0  0.125419  0.127105  0  0.988426  0
H  H10  1  0.90129998  0.66113350  0.61435846  1  0  0.106953  0  0.93406  0  0  0.117703  0  0.991434  0  0  0.121296  0  0.988233  0  0  0.108315  0.11507  0  0.993807  0
H  H11  1  0.78652081  0.04716493  0.38538730  1  0  0.106499  0  0.934044  0  0  0.117485  0  0.991244  0  0  0.121005  0  0.988108  0  0  0.108281  0.114905  0  0.993568  0
H  H12  1  0.11128927  0.49947548  0.44078702  1  0  0.12216  0  0.947991  0  0  0.131133  0  1.008201  0  0  0.135754  0  1.005739  0  0  0.103771  0.12782  0  1.010137  0
H  H13  1  0.16978327  0.05867126  0.55910347  1  0  0.122166  0  0.947986  0  0  0.131151  0  1.008154  0  0  0.135802  0  1.005692  0  0  0.103597  0.12778  0  1.01016  0
H  H14  1  0.74924243  0.59345319  0.02606632  1  0  0.107749  0  0.960583  0  0  0.1154  0  1.024547  0  0  0.118232  0  1.020903  0  0  0.139768  0.113285  0  1.027161  0
H  H15  1  0.22408758  0.56746853  0.97421104  1  0  0.107507  0  0.959971  0  0  0.11562  0  1.023405  0  0  0.118466  0  1.019741  0  0  0.139884  0.113502  0  1.026021  0
H  H16  1  0.64056196  0.81295101  0.77263310  1  0  0.113566  0  0.929591  0  0  0.127021  0  0.981508  0  0  0.129559  0  0.980367  0  0  0.125831  0.125156  0  0.982418  0
H  H17  1  0.36768841  0.04065682  0.22754430  1  0  0.114226  0  0.929682  0  0  0.127647  0  0.981562  0  0  0.13017  0  0.980439  0  0  0.125917  0.125796  0  0.982457  0
H  H18  1  0.85554720  0.13180799  0.91601800  1  0  0.102867  0  0.938532  0  0  0.113477  0  0.997852  0  0  0.116061  0  0.995996  0  0  0.109431  0.111538  0  0.999285  0
H  H19  1  0.43917662  0.21609507  0.08408825  1  0  0.103872  0  0.938593  0  0  0.114315  0  0.997845  0  0  0.116952  0  0.99596  0  0  0.109613  0.11234  0  0.999299  0
H  H20  1  0.95671654  0.18208472  0.17871451  1  0  0.1194  0  0.939865  0  0  0.129885  0  0.996827  0  0  0.13471  0  0.994681  0  0  0.103674  0.126472  0  0.998499  0
H  H21  1  0.27686211  0.00337935  0.82137099  1  0  0.120496  0  0.94007  0  0  0.130739  0  0.997076  0  0  0.135498  0  0.994988  0  0  0.104212  0.127364  0  0.998736  0
C  C22  1  0.61652498  0.57116558  0.24646258  1  0  0.234746  0  3.64716  0  0  0.171845  0  3.91499  0  0  0.186013  0  3.927091  0  0  0.152089  0.162788  0  3.906364  0
C  C23  1  0.86939000  0.32418228  0.75342794  1  0  0.234186  0  3.646374  0  0  0.172493  0  3.914293  0  0  0.186629  0  3.926421  0  0  0.152359  0.163502  0  3.905695  0
C  C24  1  0.60280547  0.66114918  0.42538007  1  0  -0.017801  0  3.664561  0  0  -0.058042  0  3.922814  0  0  -0.055696  0  3.942746  0  0  0.016755  -0.059487  0  3.909272  0
C  C25  1  0.67698802  0.23582473  0.57447329  1  0  -0.01729  0  3.664669  0  0  -0.057577  0  3.922637  0  0  -0.055192  0  3.942591  0  0  0.016978  -0.059012  0  3.909084  0
C  C26  1  0.77461772  0.61132809  0.43043654  1  0  0.149439  0  3.827922  0  0  0.141304  0  4.084224  0  0  0.140778  0  4.11026  0  0  0.081197  0.141527  0  4.066645  0
C  C27  1  0.84369834  0.18090200  0.56937469  1  0  0.147625  0  3.831968  0  0  0.141357  0  4.086049  0  0  0.140831  0  4.112081  0  0  0.08132  0.141601  0  4.068457  0
C  C28  1  0.92235340  0.61189563  0.52848826  1  0  -0.067434  0  3.802254  0  0  -0.089388  0  4.056246  0  0  -0.084669  0  4.074602  0  0  -0.076174  -0.092317  0  4.043751  0
C  C29  1  0.89334021  0.08353107  0.47126691  1  0  -0.065382  0  3.804243  0  0  -0.087961  0  4.057571  0  0  -0.083154  0  4.075975  0  0  -0.075198  -0.09096  0  4.045043  0
C  C30  1  0.08128690  0.55342016  0.52322964  1  0  -0.235691  0  3.681408  0  0  -0.253861  0  3.938256  0  0  -0.266272  0  3.954928  0  0  -0.109218  -0.245744  0  3.927021  0
C  C31  1  0.05753026  0.03030558  0.47658662  1  0  -0.236747  0  3.682222  0  0  -0.25508  0  3.939426  0  0  -0.267525  0  3.956014  0  0  -0.110031  -0.246936  0  3.928325  0
C  C32  1  0.21897076  0.55165290  0.62933545  1  0  0.68265  0  3.948741  0  0  0.640824  0  4.234515  0  0  0.675959  0  4.226475  0  0  0.192443  0.617077  0  4.239138  0
C  C33  1  0.08929219  0.92238129  0.37054050  1  0  0.683535  0  3.948929  0  0  0.641977  0  4.23433  0  0  0.677138  0  4.226237  0  0  0.192461  0.618207  0  4.238983  0
C  C34  1  0.74744016  0.68514650  0.98640904  1  0  0.25238  0  3.641499  0  0  0.186874  0  3.914721  0  0  0.20198  0  3.925662  0  0  0.157649  0.177118  0  3.907018  0
C  C35  1  0.26152794  0.69886684  0.01384361  1  0  0.252762  0  3.640465  0  0  0.186978  0  3.913541  0  0  0.202097  0  3.92452  0  0  0.157734  0.177202  0  3.905828  0
C  C36  1  0.69549565  0.80172384  0.85710853  1  0  -0.026231  0  3.672855  0  0  -0.067512  0  3.936067  0  0  -0.064682  0  3.955399  0  0  0.012873  -0.069244  0  3.922908  0
C  C37  1  0.33828222  0.94488119  0.14309157  1  0  -0.027416  0  3.67402  0  0  -0.069356  0  3.936758  0  0  -0.066522  0  3.956091  0  0  0.012469  -0.071094  0  3.923607  0
C  C38  1  0.80021154  0.92290763  0.96384307  1  0  0.151764  0  3.812078  0  0  0.143431  0  4.070104  0  0  0.143253  0  4.094839  0  0  0.08168  0.143442  0  4.053424  0
C  C39  1  0.33599900  0.95930549  0.03635341  1  0  0.15047  0  3.817346  0  0  0.144173  0  4.072554  0  0  0.144016  0  4.097323  0  0  0.081349  0.144161  0  4.055859  0
C  C40  1  0.86738985  0.09333438  0.99110777  1  0  -0.054205  0  3.797978  0  0  -0.077059  0  4.054597  0  0  -0.071583  0  4.073471  0  0  -0.071135  -0.080493  0  4.041804  0
C  C41  1  0.37565068  0.10243505  0.00900869  1  0  -0.054923  0  3.800894  0  0  -0.078161  0  4.056783  0  0  -0.072749  0  4.0756  0  0  -0.071485  -0.081549  0  4.044033  0
C  C42  1  0.94483691  0.20910928  0.09900912  1  0  -0.244847  0  3.678643  0  0  -0.262601  0  3.936162  0  0  -0.27581  0  3.952481  0  0  -0.110095  -0.254  0  3.925243  0
C  C43  1  0.34488200  0.11017851  0.90107161  1  0  -0.246095  0  3.680253  0  0  -0.263595  0  3.938099  0  0  -0.276724  0  3.954417  0  0  -0.11008  -0.255052  0  3.927179  0
C  C44  1  0.02190158  0.37831361  0.11236592  1  0  0.678391  0  3.92935  0  0  0.635385  0  4.216576  0  0  0.670669  0  4.207966  0  0  0.195644  0.611476  0  4.221669  0
C  C45  1  0.40890353  0.26589533  0.88760882  1  0  0.681187  0  3.924223  0  0  0.637988  0  4.211577  0  0  0.67327  0  4.202903  0  0  0.196525  0.614079  0  4.216716  0
N  N46  1  0.50682807  0.63546644  0.31094197  1  0  -0.389591  0  3.30661  0  0  -0.307806  0  3.60643  0  0  -0.328756  0  3.619457  0  0  -0.360278  -0.293588  0  3.597161  0
N  N47  1  0.69533673  0.32425748  0.68897674  1  0  -0.388527  0  3.304661  0  0  -0.307529  0  3.605035  0  0  -0.328443  0  3.617994  0  0  -0.360011  -0.293337  0  3.595803  0
N  N48  1  0.77756585  0.55430944  0.31531973  1  0  -0.314002  0  3.397062  0  0  -0.24448  0  3.620009  0  0  -0.261287  0  3.636073  0  0  -0.367646  -0.233185  0  3.609  0
N  N49  1  0.96164781  0.23867545  0.68451083  1  0  -0.31575  0  3.396264  0  0  -0.247429  0  3.61924  0  0  -0.264293  0  3.635299  0  0  -0.368454  -0.236094  0  3.608225  0
N  N50  1  0.66216436  0.65544582  0.87282449  1  0  -0.400263  0  3.333776  0  0  -0.318182  0  3.64399  0  0  -0.339401  0  3.655385  0  0  -0.361233  -0.303894  0  3.635991  0
N  N51  1  0.28974214  0.78285112  0.12740888  1  0  -0.399553  0  3.332723  0  0  -0.317579  0  3.643254  0  0  -0.338791  0  3.654655  0  0  -0.361321  -0.303284  0  3.635237  0
N  N52  1  0.82979682  0.84373844  0.04334041  1  0  -0.320878  0  3.393323  0  0  -0.252223  0  3.618334  0  0  -0.268948  0  3.633668  0  0  -0.366298  -0.241078  0  3.60798  0
N  N53  1  0.28646473  0.80051779  0.95686120  1  0  -0.321217  0  3.393218  0  0  -0.252762  0  3.618126  0  0  -0.269515  0  3.633475  0  0  -0.366003  -0.241596  0  3.607779  0
O  O54  1  0.20405954  0.62064297  0.72980717  1  0  -0.668863  0  1.967017  0  0  -0.622544  0  2.197523  0  0  -0.645789  0  2.186283  0  0  -0.340259  -0.606293  0  2.204648  0
O  O55  1  0.97388284  0.89072714  0.27005822  1  0  -0.668999  0  1.966847  0  0  -0.62298  0  2.197233  0  0  -0.646263  0  2.186063  0  0  -0.340435  -0.606723  0  2.204351  0
O  O56  1  0.35035818  0.47138586  0.61036351  1  0  -0.656281  0  1.989689  0  0  -0.581645  0  2.25  0  0  -0.610318  0  2.234204  0  0  -0.345189  -0.561635  0  2.2601  0
O  O57  1  0.23970396  0.86120870  0.38961391  1  0  -0.655983  0  1.992607  0  0  -0.581461  0  2.252959  0  0  -0.610104  0  2.237058  0  0  -0.344066  -0.561468  0  2.26313  0
O  O58  1  0.06886054  0.48650517  0.21941289  1  0  -0.67936  0  2.055616  0  0  -0.59892  0  2.318964  0  0  -0.626899  0  2.300433  0  0  -0.336825  -0.579262  0  2.331057  0
O  O59  1  0.34886997  0.26695726  0.78056784  1  0  -0.681534  0  2.054074  0  0  -0.600811  0  2.317322  0  0  -0.628819  0  2.298758  0  0  -0.33769  -0.581095  0  2.329374  0
O  O60  1  0.04496909  0.41390924  0.02769943  1  0  -0.620385  0  1.948798  0  0  -0.575606  0  2.176537  0  0  -0.599885  0  2.168202  0  0  -0.317372  -0.558719  0  2.181701  0
O  O61  1  0.51686853  0.38620333  0.97220926  1  0  -0.621166  0  1.945838  0  0  -0.576516  0  2.17389  0  0  -0.600857  0  2.165636  0  0  -0.317421  -0.559594  0  2.178993  0
