# generated using pymatgen
data_CdH8C6S(NO3)2
_symmetry_space_group_name_H-M   'P 1'
_cell_length_a   6.85948062
_cell_length_b   8.00577157
_cell_length_c   9.22033221
_cell_angle_alpha   90.90336526
_cell_angle_beta   90.00060422
_cell_angle_gamma   89.99987165
_symmetry_Int_Tables_number   1
_chemical_formula_structural   CdH8C6S(NO3)2
_chemical_formula_sum   'Cd2 H16 C12 S2 N4 O12'
_cell_volume   506.27561926
_cell_formula_units_Z   2
loop_
 _symmetry_equiv_pos_site_id
 _symmetry_equiv_pos_as_xyz
  1  'x, y, z'
loop_
 _atom_site_type_symbol
 _atom_site_label
 _atom_site_symmetry_multiplicity
 _atom_site_fract_x
 _atom_site_fract_y
 _atom_site_fract_z
 _atom_site_occupancy
 _atom_site_hle17_bader_spin_density
 _atom_site_hle17_ddec_charge
 _atom_site_hle17_ddec_spin_density
 _atom_site_hle17_ddec_sum_bond_order
 _atom_site_hle17_magmom
 _atom_site_hse06_10hf_bader_spin_density
 _atom_site_hse06_10hf_ddec_charge
 _atom_site_hse06_10hf_ddec_spin_density
 _atom_site_hse06_10hf_ddec_sum_bond_order
 _atom_site_hse06_10hf_magmom
 _atom_site_hse06_bader_spin_density
 _atom_site_hse06_ddec_charge
 _atom_site_hse06_ddec_spin_density
 _atom_site_hse06_ddec_sum_bond_order
 _atom_site_hse06_magmom
 _atom_site_pbe_bader_spin_density
 _atom_site_pbe_cm5_charge
 _atom_site_pbe_ddec_charge
 _atom_site_pbe_ddec_spin_density
 _atom_site_pbe_ddec_sum_bond_order
 _atom_site_pbe_magmom
Cd  Cd0  1  0.36116826  0.17060991  0.17098817  1  0  1.238156  0  1.66813  0  0  1.052562  0  2.13062  0  0  1.102588  0  2.07572  0  0  0.815255  1.01707  0  2.168797  0
Cd  Cd1  1  0.86116176  0.82938706  0.82901430  1  0  1.238165  0  1.66817  0  0  1.052572  0  2.130638  0  0  1.102597  0  2.075742  0  0  0.81526  1.017082  0  2.168817  0
H  H2  1  0.27387973  0.77116981  0.20007458  1  0  0.376748  0  0.907432  0  0  0.346283  0  0.986994  0  0  0.357089  0  0.975399  0  0  0.310214  0.338753  0  0.994804  0
H  H3  1  0.77388168  0.22882733  0.79992611  1  0  0.376741  0  0.907427  0  0  0.346258  0  0.987009  0  0  0.357064  0  0.975416  0  0  0.310206  0.33873  0  0.994818  0
H  H4  1  0.24358675  0.90713202  0.55576927  1  0  0.120051  0  0.92971  0  0  0.13111  0  0.992418  0  0  0.133998  0  0.989115  0  0  0.128287  0.128889  0  0.99482  0
H  H5  1  0.74358844  0.09286767  0.44423231  1  0  0.120031  0  0.929667  0  0  0.131092  0  0.992399  0  0  0.133979  0  0.989096  0  0  0.128268  0.12887  0  0.994801  0
H  H6  1  0.25466423  0.13191920  0.73975821  1  0  0.123383  0  0.957472  0  0  0.131281  0  1.020349  0  0  0.134512  0  1.01907  0  0  0.109094  0.128762  0  1.021555  0
H  H7  1  0.75466862  0.86808673  0.26023922  1  0  0.12331  0  0.957502  0  0  0.131286  0  1.0203  0  0  0.134517  0  1.019021  0  0  0.109096  0.128767  0  1.021504  0
H  H8  1  0.31585261  0.43189224  0.80644592  1  0  0.100165  0  0.962822  0  0  0.109603  0  1.022713  0  0  0.112627  0  1.019921  0  0  0.106599  0.107072  0  1.025333  0
H  H9  1  0.81585976  0.56811357  0.19355525  1  0  0.100182  0  0.962925  0  0  0.109616  0  1.022793  0  0  0.112637  0  1.020009  0  0  0.106611  0.107086  0  1.025411  0
H  H10  1  0.40133267  0.63230754  0.61028716  1  0  0.117298  0  0.949482  0  0  0.125051  0  1.012054  0  0  0.128387  0  1.010771  0  0  0.107677  0.122443  0  1.013335  0
H  H11  1  0.90132268  0.36769188  0.38970916  1  0  0.117227  0  0.949564  0  0  0.125026  0  1.012084  0  0  0.128343  0  1.010826  0  0  0.107682  0.122416  0  1.013367  0
H  H12  1  0.42323355  0.52345406  0.35395171  1  0  0.074028  0  0.961958  0  0  0.080957  0  1.028808  0  0  0.083614  0  1.026662  0  0  0.112456  0.078054  0  1.032076  0
H  H13  1  0.92322249  0.47654032  0.64604687  1  0  0.073967  0  0.962067  0  0  0.080911  0  1.028903  0  0  0.083565  0  1.026757  0  0  0.112457  0.078009  0  1.032168  0
H  H14  1  0.57642367  0.38727301  0.00923946  1  0  0.429265  0  0.869886  0  0  0.398217  0  0.932098  0  0  0.408587  0  0.917071  0  0  0.295599  0.391047  0  0.94244  0
H  H15  1  0.07642300  0.61272448  0.99076075  1  0  0.429249  0  0.86991  0  0  0.398202  0  0.932122  0  0  0.408571  0  0.917097  0  0  0.295594  0.391031  0  0.942463  0
H  H16  1  0.40500259  0.52348742  0.04333916  1  0  0.437459  0  0.859155  0  0  0.404127  0  0.925009  0  0  0.415146  0  0.908885  0  0  0.294166  0.39629  0  0.936513  0
H  H17  1  0.90500317  0.47651073  0.95666258  1  0  0.437465  0  0.859145  0  0  0.404138  0  0.924992  0  0  0.415157  0  0.908863  0  0  0.294196  0.396308  0  0.93649  0
C  C18  1  0.30686479  0.17185068  0.51220731  1  0  0.197991  0  3.817339  0  0  0.201332  0  4.062855  0  0  0.205088  0  4.085528  0  0  0.112004  0.198589  0  4.047505  0
C  C19  1  0.80686080  0.82814640  0.48779255  1  0  0.197935  0  3.817349  0  0  0.201258  0  4.062924  0  0  0.205013  0  4.0856  0  0  0.111991  0.198516  0  4.047574  0
C  C20  1  0.27648941  0.99690326  0.47085102  1  0  0.017375  0  3.657822  0  0  -0.037005  0  3.933639  0  0  -0.026636  0  3.942693  0  0  0.050629  -0.043651  0  3.927217  0
C  C21  1  0.77648815  0.00309512  0.52915079  1  0  0.017439  0  3.657642  0  0  -0.036971  0  3.933522  0  0  -0.026599  0  3.942569  0  0  0.050623  -0.043617  0  3.9271  0
C  C22  1  0.29000586  0.22321001  0.65739104  1  0  -0.125323  0  3.653255  0  0  -0.151122  0  3.904007  0  0  -0.156053  0  3.923345  0  0  -0.076027  -0.147912  0  3.891214  0
C  C23  1  0.79000581  0.77679584  0.34261100  1  0  -0.125184  0  3.653146  0  0  -0.151033  0  3.903893  0  0  -0.155963  0  3.923228  0  0  -0.076019  -0.147822  0  3.891097  0
C  C24  1  0.32416300  0.39046718  0.69356092  1  0  0.010387  0  3.687785  0  0  -0.006764  0  3.941031  0  0  -0.00286  0  3.956229  0  0  -0.063387  -0.008976  0  3.930992  0
C  C25  1  0.82416288  0.60953363  0.30643481  1  0  0.01025  0  3.687867  0  0  -0.006921  0  3.941153  0  0  -0.00301  0  3.95634  0  0  -0.063441  -0.009134  0  3.931114  0
C  C26  1  0.37311770  0.50142431  0.58478209  1  0  -0.100368  0  3.684042  0  0  -0.121331  0  3.945619  0  0  -0.126295  0  3.96426  0  0  -0.079591  -0.118142  0  3.933112  0
C  C27  1  0.87310918  0.49858015  0.41521951  1  0  -0.100305  0  3.684385  0  0  -0.121288  0  3.945933  0  0  -0.126241  0  3.964586  0  0  -0.079583  -0.118097  0  3.933422  0
C  C28  1  0.38631603  0.44081709  0.44235758  1  0  0.147835  0  3.717218  0  0  0.115346  0  3.974695  0  0  0.122893  0  3.991883  0  0  0.052359  0.110512  0  3.963809  0
C  C29  1  0.88630497  0.55917611  0.55764068  1  0  0.147937  0  3.717399  0  0  0.115427  0  3.974862  0  0  0.122977  0  3.992046  0  0  0.052355  0.110594  0  3.963975  0
S  S30  1  0.86367365  0.16921918  0.08628323  1  0  1.609924  0  5.794029  0  0  1.480586  0  6.336901  0  0  1.537439  0  6.301421  0  0  0.573751  1.44102  0  6.360228  0
S  S31  1  0.36366842  0.83078280  0.91371500  1  0  1.609787  0  5.79407  0  0  1.480429  0  6.336973  0  0  1.537282  0  6.301491  0  0  0.573633  1.44086  0  6.360302  0
N  N32  1  0.35447247  0.28071991  0.40682121  1  0  -0.385293  0  3.250215  0  0  -0.312993  0  3.508049  0  0  -0.332555  0  3.527126  0  0  -0.32939  -0.29951  0  3.494819  0
N  N33  1  0.85446004  0.71927958  0.59318125  1  0  -0.385279  0  3.250176  0  0  -0.31294  0  3.507945  0  0  -0.332506  0  3.527035  0  0  -0.329334  -0.299459  0  3.494718  0
N  N34  1  0.29087591  0.95154024  0.33640922  1  0  -0.13337  0  3.194286  0  0  -0.076161  0  3.490195  0  0  -0.085837  0  3.503349  0  0  -0.231296  -0.070063  0  3.480716  0
N  N35  1  0.79086913  0.04845561  0.66359267  1  0  -0.133431  0  3.194291  0  0  -0.076244  0  3.490228  0  0  -0.085921  0  3.503381  0  0  -0.231306  -0.070147  0  3.480751  0
O  O36  1  0.26191893  0.78547182  0.30936068  1  0  -0.385488  0  2.092029  0  0  -0.337705  0  2.316755  0  0  -0.359882  0  2.318567  0  0  -0.247126  -0.32129  0  2.314431  0
O  O37  1  0.76192084  0.21452659  0.69063885  1  0  -0.385467  0  2.092033  0  0  -0.337637  0  2.316751  0  0  -0.359813  0  2.31856  0  0  -0.247107  -0.321223  0  2.314427  0
O  O38  1  0.03834039  0.24763763  0.15331680  1  0  -0.747137  0  1.995905  0  0  -0.683327  0  2.276107  0  0  -0.708495  0  2.256889  0  0  -0.367557  -0.665287  0  2.288379  0
O  O39  1  0.53833434  0.75236367  0.84668317  1  0  -0.747097  0  1.995936  0  0  -0.683272  0  2.276131  0  0  -0.708438  0  2.256913  0  0  -0.367507  -0.665231  0  2.288406  0
O  O40  1  0.79502431  0.28262906  0.96502610  1  0  -0.767221  0  2.007685  0  0  -0.688627  0  2.23223  0  0  -0.712034  0  2.213718  0  0  -0.347796  -0.6725  0  2.244544  0
O  O41  1  0.29502456  0.71737179  0.03497374  1  0  -0.767224  0  2.00771  0  0  -0.688632  0  2.232261  0  0  -0.712041  0  2.213749  0  0  -0.3478  -0.672501  0  2.24457  0
O  O42  1  0.91179224  0.00195354  0.02545487  1  0  -0.750181  0  2.010786  0  0  -0.686421  0  2.297848  0  0  -0.709995  0  2.27536  0  0  -0.368685  -0.669544  0  2.312807  0
O  O43  1  0.41178889  0.99804710  0.97454589  1  0  -0.750145  0  2.010736  0  0  -0.686374  0  2.297786  0  0  -0.709943  0  2.275296  0  0  -0.368645  -0.669495  0  2.312744  0
O  O44  1  0.70702846  0.15861623  0.19684477  1  0  -0.753323  0  1.995447  0  0  -0.692001  0  2.277106  0  0  -0.716457  0  2.258002  0  0  -0.362408  -0.674679  0  2.289687  0
O  O45  1  0.20701874  0.84138353  0.80315543  1  0  -0.753312  0  1.995492  0  0  -0.691971  0  2.277159  0  0  -0.716431  0  2.258058  0  0  -0.362397  -0.674651  0  2.289743  0
O  O46  1  0.44060893  0.40333299  0.04249030  1  0  -0.852302  0  1.869751  0  0  -0.782967  0  2.068407  0  0  -0.804836  0  2.033518  0  0  -0.594817  -0.766918  0  2.093416  0
O  O47  1  0.94060775  0.59666385  0.95751063  1  0  -0.852301  0  1.869793  0  0  -0.782964  0  2.068437  0  0  -0.804826  0  2.033557  0  0  -0.594844  -0.766921  0  2.093422  0
