# generated using pymatgen
data_CuPH13C18S(NO3)2
_symmetry_space_group_name_H-M   'P 1'
_cell_length_a   8.35874481
_cell_length_b   9.93981498
_cell_length_c   11.10870303
_cell_angle_alpha   79.49844265
_cell_angle_beta   84.67972550
_cell_angle_gamma   83.40321101
_symmetry_Int_Tables_number   1
_chemical_formula_structural   CuPH13C18S(NO3)2
_chemical_formula_sum   'Cu2 P2 H26 C36 S2 N4 O12'
_cell_volume   899.05375106
_cell_formula_units_Z   2
loop_
 _symmetry_equiv_pos_site_id
 _symmetry_equiv_pos_as_xyz
  1  'x, y, z'
loop_
 _atom_site_type_symbol
 _atom_site_label
 _atom_site_symmetry_multiplicity
 _atom_site_fract_x
 _atom_site_fract_y
 _atom_site_fract_z
 _atom_site_occupancy
 _atom_site_hle17_ddec_charge
 _atom_site_hle17_ddec_spin_density
 _atom_site_hle17_ddec_sum_bond_order
 _atom_site_hle17_magmom
 _atom_site_hse06_10hf_ddec_charge
 _atom_site_hse06_10hf_ddec_spin_density
 _atom_site_hse06_10hf_ddec_sum_bond_order
 _atom_site_hse06_10hf_magmom
 _atom_site_hse06_ddec_charge
 _atom_site_hse06_ddec_spin_density
 _atom_site_hse06_ddec_sum_bond_order
 _atom_site_hse06_magmom
 _atom_site_pbe_cm5_charge
 _atom_site_pbe_ddec_charge
 _atom_site_pbe_ddec_spin_density
 _atom_site_pbe_ddec_sum_bond_order
 _atom_site_pbe_magmom
Cu  Cu0  1  0.61047906  0.54602820  0.77624339  1  0.961047  -0.716539  1.800516  -0.543  0.943739  -0.797484  2.192653  -0.656  1.035085  -0.85772  2.110849  -0.737  0.772873  0.892222  -0.753276  2.237696  -0.601
Cu  Cu1  1  0.38952910  0.45397429  0.22375371  1  0.960948  -0.716531  1.800554  -0.543  0.943673  -0.797482  2.192621  -0.656  1.03502  -0.857717  2.110856  -0.737  0.772835  0.892155  -0.75327  2.237661  -0.601
P  P2  1  0.38242155  0.68725538  0.98587035  1  1.481743  -0.002999  4.795115  0.0  1.337349  -0.008008  5.295525  -0.006  1.393242  -0.005723  5.256132  -0.005  0.368921  1.29786  -0.01002  5.322928  -0.006
P  P3  1  0.61758166  0.31274814  0.01412778  1  1.481891  -0.003  4.794834  0.0  1.337464  -0.008009  5.295215  -0.006  1.393354  -0.005722  5.255826  -0.005  0.369019  1.297986  -0.010019  5.322628  -0.006
H  H4  1  0.07553282  0.67038066  0.89111920  1  0.114292  -1.3e-05  0.932927  0.0  0.126799  -0.000145  0.988126  0.0  0.130301  -0.000103  0.985285  0.0  0.112099  0.124312  -0.000163  0.990073  0.0
H  H5  1  0.92446611  0.32961874  0.10887808  1  0.114296  -1.3e-05  0.932952  0.0  0.126792  -0.000145  0.988161  0.0  0.130295  -0.000104  0.985319  0.0  0.112081  0.124305  -0.000163  0.990108  0.0
H  H6  1  0.89971878  0.09303381  0.77807931  1  0.092049  0.000216  0.962477  0.0  0.102076  1.2e-05  1.027584  0.0  0.105147  1.9e-05  1.025408  0.0  0.104989  0.099834  1e-06  1.029273  0.0
H  H7  1  0.10027770  0.90696558  0.22192081  1  0.092091  0.000216  0.962428  0.0  0.102112  1.2e-05  1.027543  0.0  0.105183  2e-05  1.025366  0.0  0.105003  0.099868  1e-06  1.029232  0.0
H  H8  1  0.14047791  0.16771748  0.85699832  1  0.090446  -0.000204  0.95092  0.0  0.103376  -0.000129  1.006645  0.0  0.105476  -8.7e-05  1.007258  0.0  0.102121  0.10191  -0.000169  1.006253  0.0
H  H9  1  0.85951865  0.83228089  0.14300466  1  0.090474  -0.000204  0.950893  0.0  0.103409  -0.000128  1.006606  0.0  0.10551  -8.7e-05  1.007218  0.0  0.102153  0.10195  -0.000169  1.006213  0.0
H  H10  1  0.35063767  0.99262912  0.94980354  1  0.105921  0.00013  0.946727  0.0  0.116064  -3.2e-05  1.007698  0.0  0.119253  -1.8e-05  1.005333  0.0  0.107128  0.113653  -4.8e-05  1.009616  0.0
H  H11  1  0.64935755  0.00737029  0.05020026  1  0.105899  0.000129  0.946815  0.0  0.116072  -3.1e-05  1.00775  0.0  0.119262  -1.8e-05  1.005386  0.0  0.107136  0.113662  -4.8e-05  1.009667  0.0
H  H12  1  0.37183489  0.81574184  0.71648208  1  0.08098  -0.001551  0.96652  -0.002  0.088626  -0.001245  1.030883  -0.002  0.089086  -0.000842  1.030977  -0.001  0.11785  0.088081  -0.001571  1.030957  -0.002
H  H13  1  0.62815578  0.18424523  0.28352493  1  0.081005  -0.001551  0.966532  -0.002  0.088631  -0.001244  1.030923  -0.002  0.089072  -0.000842  1.031036  -0.001  0.117842  0.088088  -0.001571  1.030994  -0.002
H  H14  1  0.28941424  0.96452367  0.51824824  1  0.128129  -0.000614  0.9468  -0.001  0.138744  -0.000519  1.000128  -0.001  0.142012  -0.000361  0.999253  0.0  0.113686  0.13636  -0.000644  1.000706  -0.001
H  H15  1  0.71057760  0.03546340  0.48176049  1  0.128127  -0.000614  0.946738  -0.001  0.138718  -0.000519  1.000083  -0.001  0.141979  -0.000362  0.999206  0.0  0.113695  0.13634  -0.000644  1.000664  -0.001
H  H16  1  0.41042087  0.90546442  0.31981232  1  0.118714  -0.000271  0.948688  -0.001  0.1286  2e-06  1.008347  0.0  0.131701  3.9e-05  1.005744  0.0  0.112674  0.126301  -4.6e-05  1.009897  0.0
H  H17  1  0.58958116  0.09453809  0.68019325  1  0.118764  -0.000272  0.948835  -0.001  0.128627  1e-06  1.008496  0.0  0.131727  3.9e-05  1.005894  0.0  0.112707  0.126329  -4.6e-05  1.010042  0.0
H  H18  1  0.59304389  0.73078691  0.20878850  1  0.124182  -0.000256  0.964046  -0.001  0.134397  -0.000129  1.022975  0.0  0.13712  -4.8e-05  1.022114  0.0  0.111258  0.132159  -0.000255  1.024121  0.0
H  H19  1  0.40695872  0.26922074  0.79121709  1  0.124091  -0.000255  0.964075  -0.001  0.134295  -0.000129  1.023042  0.0  0.137012  -4.8e-05  1.022184  0.0  0.111237  0.132058  -0.000255  1.024189  0.0
H  H20  1  0.78960822  0.52468806  0.22188096  1  0.120065  -0.00047  0.924861  -0.001  0.135246  -0.000317  0.975066  0.0  0.137632  -0.000194  0.974756  0.0  0.115514  0.133293  -0.000401  0.975669  0.0
H  H21  1  0.21039236  0.47531750  0.77811610  1  0.120052  -0.00047  0.924914  -0.001  0.13527  -0.000317  0.975076  0.0  0.137628  -0.000194  0.974801  0.0  0.115503  0.133318  -0.000401  0.975682  0.0
H  H22  1  0.96316896  0.33348426  0.35678128  1  0.111173  -0.000339  0.961167  -0.001  0.119401  -3.7e-05  1.026006  0.0  0.121785  3e-06  1.023987  0.0  0.110415  0.117477  -7.9e-05  1.027589  0.0
H  H23  1  0.03682821  0.66652027  0.64321166  1  0.111173  -0.000338  0.961182  -0.001  0.119391  -3.7e-05  1.026031  0.0  0.121774  3e-06  1.024012  0.0  0.1104  0.117464  -7.8e-05  1.02762  0.0
H  H24  1  0.02694720  0.21752569  0.56661819  1  0.121977  -0.000567  0.93187  -0.001  0.133002  -0.00051  0.986686  -0.001  0.135954  -0.000367  0.986378  0.0  0.114693  0.130609  -0.000644  0.98741  -0.001
H  H25  1  0.97304974  0.78247061  0.43337611  1  0.12192  -0.000567  0.931831  -0.001  0.132956  -0.00051  0.986642  -0.001  0.135906  -0.000367  0.986334  0.0  0.11466  0.130561  -0.000644  0.987365  -0.001
H  H26  1  0.88014092  0.31137906  0.75050678  1  0.097301  -0.001493  0.94169  -0.003  0.107473  -0.00111  0.999868  -0.002  0.109177  -0.000725  0.997872  -0.002  0.125004  0.1058  -0.001467  1.001805  -0.003
H  H27  1  0.11985985  0.68861519  0.24948943  1  0.097276  -0.001494  0.941678  -0.003  0.107458  -0.00111  0.999857  -0.002  0.109163  -0.000726  0.997859  -0.002  0.125002  0.105798  -0.001467  1.00177  -0.003
H  H28  1  0.58707110  0.81401127  0.93949626  1  0.424512  0.000105  0.886468  0.0  0.390727  5.9e-05  0.955444  0.0  0.401921  5.5e-05  0.939456  0.0  0.304581  0.382845  5.5e-05  0.966681  0.0
H  H29  1  0.41292819  0.18599532  0.06049891  1  0.424548  0.000105  0.886404  0.0  0.390745  5.9e-05  0.955409  0.0  0.401939  5.5e-05  0.93942  0.0  0.304629  0.382863  5.5e-05  0.966646  0.0
C  C30  1  0.22861931  0.81990322  0.92648304  1  -0.247251  -0.011737  3.772774  -0.012  -0.204027  -0.006354  4.013841  -0.007  -0.21551  -0.004028  4.035045  -0.005  -0.024812  -0.196264  -0.008455  3.999583  -0.009
C  C31  1  0.77138182  0.18009822  0.07351016  1  -0.247309  -0.011741  3.772908  -0.012  -0.203966  -0.006353  4.013808  -0.007  -0.215446  -0.004029  4.035019  -0.005  -0.024832  -0.196222  -0.008454  3.999584  -0.009
C  C32  1  0.09235310  0.77882304  0.88309201  1  -0.043101  -0.002518  3.735291  -0.002  -0.078866  -0.000955  3.977698  -0.001  -0.075866  -0.000687  3.996589  -0.001  -0.076749  -0.080533  -0.001341  3.964769  -0.001
C  C33  1  0.90764694  0.22117737  0.11690233  1  -0.043082  -0.002514  3.735354  -0.002  -0.078852  -0.000957  3.977734  -0.001  -0.07585  -0.000684  3.996622  -0.001  -0.076696  -0.080517  -0.001341  3.964807  -0.001
C  C34  1  0.97730855  0.87787968  0.82863545  1  -0.119192  0.002599  3.75163  0.002  -0.088971  0.000734  3.995373  0.0  -0.097181  0.000859  4.018471  0.001  -0.020184  -0.083853  0.000644  3.979928  0.0
C  C35  1  0.02268559  0.12211871  0.17136948  1  -0.11917  0.002594  3.751681  0.002  -0.088996  0.000739  3.995484  0.0  -0.097208  0.000852  4.018577  0.001  -0.02014  -0.083868  0.000643  3.980018  0.0
C  C36  1  0.99365441  0.01808183  0.81872606  1  -0.054195  -0.00468  3.747812  -0.004  -0.083663  -0.001335  3.999438  -0.001  -0.082066  -0.000897  4.019105  -0.001  -0.081829  -0.084227  -0.00196  3.985815  -0.002
C  C37  1  0.00634071  0.98191860  0.18127668  1  -0.054296  -0.004676  3.747864  -0.004  -0.083751  -0.001336  3.999514  -0.001  -0.082151  -0.000895  4.019176  -0.001  -0.081878  -0.084317  -0.00196  3.985889  -0.002
C  C38  1  0.12749031  0.05877506  0.86290174  1  -0.061306  0.001726  3.741739  0.001  -0.072895  0.000113  3.997081  0.0  -0.076752  0.000365  4.019573  0.0  -0.086612  -0.070134  -0.000173  3.981392  0.0
C  C39  1  0.87250398  0.94122229  0.13710065  1  -0.061285  0.001719  3.741675  0.001  -0.072884  0.000113  3.997023  0.0  -0.076738  0.000364  4.019513  0.0  -0.086654  -0.070135  -0.000173  3.981338  0.0
C  C40  1  0.24554438  0.96013075  0.91617563  1  -0.029605  -0.00393  3.721699  -0.004  -0.059211  -0.001987  3.972381  -0.002  -0.05723  -0.001351  3.992078  -0.001  -0.078183  -0.060536  -0.002606  3.959168  -0.003
C  C41  1  0.75445317  0.03986968  0.08382516  1  -0.029626  -0.003925  3.721781  -0.004  -0.059287  -0.001988  3.972427  -0.002  -0.057314  -0.00135  3.992128  -0.001  -0.078204  -0.060608  -0.002606  3.959219  -0.003
C  C42  1  0.42277780  0.79273003  0.62795289  1  0.16742  0.011828  3.651312  0.008  0.137552  0.00325  3.911563  0.002  0.14936  0.004812  3.92847  0.003  0.064658  0.129302  0.002275  3.901144  0.001
C  C43  1  0.57721816  0.20726321  0.37205188  1  0.167412  0.011824  3.651444  0.008  0.13753  0.003248  3.911692  0.002  0.149356  0.004814  3.928602  0.003  0.064658  0.129281  0.002274  3.901271  0.001
C  C44  1  0.37744223  0.87503532  0.51726564  1  -0.111829  -0.008903  3.704559  -0.01  -0.125463  -0.004012  3.956391  -0.005  -0.133366  -0.003403  3.976943  -0.004  -0.076017  -0.119477  -0.004584  3.941248  -0.006
C  C45  1  0.62255723  0.12495895  0.48273785  1  -0.111891  -0.008901  3.704601  -0.01  -0.125463  -0.004011  3.956415  -0.005  -0.133354  -0.003404  3.976951  -0.004  -0.076042  -0.119489  -0.004584  3.941281  -0.006
C  C46  1  0.44374457  0.84146722  0.40636187  1  -0.034077  0.012642  3.637141  0.008  -0.058749  0.004962  3.882349  0.003  -0.055335  0.005359  3.899204  0.003  -0.056539  -0.059801  0.00487  3.869295  0.003
C  C47  1  0.55626240  0.15853426  0.59364267  1  -0.034112  0.012641  3.637328  0.008  -0.058781  0.004962  3.882544  0.003  -0.055367  0.005362  3.899396  0.003  -0.056589  -0.059835  0.00487  3.869496  0.003
C  C48  1  0.55637840  0.72409985  0.40653319  1  0.036446  -0.004601  3.777724  -0.005  0.052331  -0.002194  4.008181  -0.003  0.049516  -0.001739  4.032429  -0.002  0.001579  0.053555  -0.002597  3.992247  -0.003
C  C49  1  0.44363192  0.27590370  0.59347170  1  0.036289  -0.004601  3.777792  -0.005  0.052164  -0.002193  4.008292  -0.003  0.049348  -0.001739  4.03254  -0.002  0.001515  0.053388  -0.002597  3.992364  -0.003
C  C50  1  0.62914690  0.67603878  0.29800046  1  -0.109015  -0.001114  3.718657  -0.002  -0.137425  -0.000139  3.988769  -0.001  -0.141091  -3e-06  4.010816  -0.001  -0.08007  -0.135415  -0.000254  3.975646  -0.001
C  C51  1  0.37085841  0.32396681  0.70200170  1  -0.108782  -0.001117  3.718556  -0.002  -0.137187  -0.000139  3.988686  -0.001  -0.140844  -2e-06  4.010718  -0.001  -0.08  -0.135175  -0.000254  3.975568  -0.001
C  C52  1  0.73860085  0.56167954  0.30518297  1  -0.094793  -0.000403  3.714632  -0.001  -0.122731  2.2e-05  3.980701  0.0  -0.126033  0.000144  4.003191  0.0  -0.078554  -0.121181  -0.000161  3.966921  -0.001
C  C53  1  0.26140544  0.43832810  0.69481699  1  -0.094803  -0.000401  3.714619  -0.001  -0.12283  2.2e-05  3.980673  0.0  -0.126109  0.000143  4.003166  0.0  -0.078545  -0.121281  -0.000161  3.9669  -0.001
C  C54  1  0.78548103  0.48649504  0.42141839  1  0.025901  -0.005171  3.794954  -0.006  0.044038  -0.00236  4.023756  -0.003  0.0409  -0.001935  4.048355  -0.002  -2.8e-05  0.046453  -0.002764  4.007204  -0.003
C  C55  1  0.21452193  0.51351053  0.57858032  1  0.025826  -0.005174  3.794989  -0.006  0.044105  -0.002359  4.023615  -0.003  0.040968  -0.001937  4.048209  -0.002  -2.9e-05  0.04652  -0.002764  4.007067  -0.003
C  C56  1  0.90091584  0.37051632  0.43670440  1  -0.024844  0.013792  3.639304  0.008  -0.052483  0.005378  3.88863  0.003  -0.048044  0.005766  3.905059  0.003  -0.056797  -0.055462  0.005218  3.878044  0.003
C  C57  1  0.09908262  0.62948718  0.56329042  1  -0.024775  0.013796  3.639263  0.009  -0.052426  0.005378  3.888522  0.003  -0.047987  0.005769  3.90495  0.003  -0.056758  -0.055405  0.005218  3.877941  0.003
C  C58  1  0.93743014  0.30666203  0.55380612  1  -0.113812  -0.009787  3.711099  -0.011  -0.129252  -0.004245  3.968853  -0.005  -0.137072  -0.003603  3.989459  -0.005  -0.078054  -0.124968  -0.004858  3.955666  -0.006
C  C59  1  0.06256665  0.69333530  0.44618982  1  -0.113839  -0.00979  3.71107  -0.011  -0.129295  -0.004246  3.968857  -0.005  -0.137112  -0.003602  3.989458  -0.005  -0.078056  -0.125009  -0.004858  3.95567  -0.006
C  C60  1  0.85741693  0.35692219  0.65602652  1  0.144827  0.0128  3.664819  0.009  0.116299  0.003626  3.92361  0.003  0.127419  0.005265  3.940719  0.004  0.060671  0.108719  0.002415  3.913249  0.002
C  C61  1  0.14258341  0.64307515  0.34397280  1  0.144923  0.012803  3.664836  0.009  0.116356  0.003626  3.923662  0.003  0.127477  0.005263  3.940769  0.004  0.060671  0.108769  0.002415  3.913286  0.002
C  C62  1  0.71194320  0.53035776  0.52948022  1  0.121863  0.00344  3.787468  0.002  0.115785  0.00042  4.028919  0.0  0.121111  0.001599  4.052349  0.001  0.113422  0.112032  -0.000447  4.013933  -0.001
C  C63  1  0.28806014  0.46964473  0.47051807  1  0.121938  0.003442  3.787511  0.002  0.115803  0.00042  4.028944  0.0  0.121124  0.001602  4.052384  0.001  0.113477  0.112051  -0.000447  4.013961  -0.001
C  C64  1  0.59648962  0.64848987  0.52233586  1  0.124691  0.003263  3.779389  0.002  0.12066  0.000389  4.020231  0.0  0.12624  0.001487  4.042935  0.001  0.114611  0.116976  -0.000421  4.005729  -0.001
C  C65  1  0.40351617  0.35151161  0.47766784  1  0.124704  0.003262  3.779422  0.002  0.120651  0.000387  4.020307  0.0  0.126235  0.001486  4.043012  0.001  0.11462  0.116966  -0.000422  4.005806  -0.001
S  S66  1  0.80878820  0.82841061  0.76578359  1  1.285156  0.000331  5.663646  0.0  1.191121  0.000326  6.188512  0.0  1.23906  0.000328  6.164919  0.0  0.503115  1.158058  0.000309  6.203884  0.0
S  S67  1  0.19121091  0.17158673  0.23421760  1  1.285353  0.000332  5.663414  0.0  1.191359  0.000332  6.188263  0.0  1.239301  0.00033  6.164666  0.0  0.50324  1.158291  0.000309  6.203633  0.0
N  N68  1  0.52982067  0.68229435  0.63029933  1  -0.33918  -0.07809  3.337135  -0.102  -0.304703  -0.054085  3.640436  -0.075  -0.337146  -0.043035  3.661933  -0.065  -0.338242  -0.285935  -0.061038  3.627615  -0.081
N  N69  1  0.47018083  0.31770300  0.36970262  1  -0.33917  -0.078083  3.33715  -0.102  -0.30466  -0.05408  3.640414  -0.075  -0.337106  -0.043035  3.66191  -0.065  -0.338234  -0.28589  -0.061034  3.62759  -0.081
N  N70  1  0.74683548  0.46512906  0.64355193  1  -0.32098  -0.080685  3.33871  -0.106  -0.284266  -0.055245  3.638548  -0.077  -0.316317  -0.043983  3.659977  -0.066  -0.33962  -0.265811  -0.062337  3.625759  -0.083
N  N71  1  0.25316812  0.53487137  0.35644579  1  -0.320976  -0.080682  3.338686  -0.106  -0.284221  -0.055242  3.638497  -0.077  -0.316275  -0.043981  3.659938  -0.066  -0.339588  -0.265766  -0.062333  3.625712  -0.083
O  O72  1  0.42896486  0.60249146  0.88441933  1  -0.834956  -0.053137  2.082569  -0.075  -0.788629  -0.034036  2.394708  -0.051  -0.828697  -0.025302  2.371333  -0.041  -0.386701  -0.761921  -0.040195  2.409317  -0.057
O  O73  1  0.57103919  0.39751515  0.11557824  1  -0.834887  -0.053139  2.082364  -0.075  -0.78864  -0.034036  2.394608  -0.051  -0.828712  -0.025303  2.371245  -0.041  -0.386724  -0.761933  -0.040195  2.409217  -0.057
O  O74  1  0.30750836  0.61146060  0.10571505  1  -0.790493  -0.075612  2.029542  -0.105  -0.74947  -0.045316  2.32792  -0.068  -0.792031  -0.033062  2.306898  -0.053  -0.377061  -0.720393  -0.054825  2.340457  -0.078
O  O75  1  0.69249107  0.38853467  0.89428107  1  -0.790553  -0.075602  2.029517  -0.105  -0.749522  -0.045311  2.327909  -0.068  -0.792082  -0.033058  2.306886  -0.053  -0.377065  -0.720433  -0.054817  2.340417  -0.078
O  O76  1  0.52693902  0.76282248  0.01584444  1  -0.738035  0.001078  2.024392  0.0  -0.669276  0.000897  2.241938  0.0  -0.690528  0.00104  2.216279  0.0  -0.381449  -0.654178  0.000784  2.259649  0.0
O  O77  1  0.47306527  0.23718207  0.98415345  1  -0.738121  0.001079  2.02426  0.0  -0.669317  0.000897  2.241781  0.0  -0.690552  0.00104  2.216097  0.0  -0.381546  -0.65422  0.000784  2.25949  0.0
O  O78  1  0.82862415  0.87622133  0.63346667  1  -0.64599  -9.4e-05  1.908402  0.0  -0.599341  -0.000112  2.144882  0.0  -0.619176  -5.3e-05  2.132913  0.0  -0.342406  -0.584846  -0.000199  2.152309  0.0
O  O79  1  0.17137772  0.12377294  0.36653576  1  -0.646061  -9.3e-05  1.908304  0.0  -0.59942  -0.000112  2.14477  0.0  -0.619253  -5.5e-05  2.132791  0.0  -0.342466  -0.584937  -0.000199  2.152227  0.0
O  O80  1  0.66314937  0.90047611  0.82307362  1  -0.681706  -0.000118  1.970341  0.0  -0.626268  6.9e-05  2.215156  0.0  -0.648156  0.000106  2.200703  0.0  -0.341972  -0.61057  -1.5e-05  2.22457  0.0
O  O81  1  0.33685169  0.09952535  0.17692498  1  -0.681767  -0.00012  1.970333  0.0  -0.626329  6.2e-05  2.215141  0.0  -0.648227  0.000111  2.200701  0.0  -0.342012  -0.610626  -1.5e-05  2.224554  0.0
O  O82  1  0.81613917  0.67812035  0.80318269  1  -0.684453  0.001936  2.009783  0.0  -0.647703  0.001771  2.281053  0.0  -0.67089  0.002017  2.261895  0.001  -0.349993  -0.63229  0.001432  2.293218  0.0
O  O83  1  0.18385141  0.32187802  0.19681886  1  -0.68452  0.001936  2.009672  0.0  -0.647769  0.00177  2.280884  0.0  -0.670959  0.002013  2.261734  0.001  -0.350016  -0.632356  0.001432  2.293051  0.0
