# generated using pymatgen
data_Hg2H3C4Br5N2
_symmetry_space_group_name_H-M   'P 1'
_cell_length_a   6.40632527
_cell_length_b   6.60629721
_cell_length_c   17.31809482
_cell_angle_alpha   90.00065953
_cell_angle_beta   89.99970348
_cell_angle_gamma   118.49855060
_symmetry_Int_Tables_number   1
_chemical_formula_structural   Hg2H3C4Br5N2
_chemical_formula_sum   'Hg4 H6 C8 Br10 N4'
_cell_volume   644.12725594
_cell_formula_units_Z   2
loop_
 _symmetry_equiv_pos_site_id
 _symmetry_equiv_pos_as_xyz
  1  'x, y, z'
loop_
 _atom_site_type_symbol
 _atom_site_label
 _atom_site_symmetry_multiplicity
 _atom_site_fract_x
 _atom_site_fract_y
 _atom_site_fract_z
 _atom_site_occupancy
 _atom_site_hle17_bader_spin_density
 _atom_site_hle17_ddec_charge
 _atom_site_hle17_ddec_spin_density
 _atom_site_hle17_ddec_sum_bond_order
 _atom_site_hle17_magmom
 _atom_site_hse06_10hf_bader_spin_density
 _atom_site_hse06_10hf_ddec_charge
 _atom_site_hse06_10hf_ddec_spin_density
 _atom_site_hse06_10hf_ddec_sum_bond_order
 _atom_site_hse06_10hf_magmom
 _atom_site_hse06_bader_spin_density
 _atom_site_hse06_ddec_charge
 _atom_site_hse06_ddec_spin_density
 _atom_site_hse06_ddec_sum_bond_order
 _atom_site_hse06_magmom
 _atom_site_pbe_bader_spin_density
 _atom_site_pbe_cm5_charge
 _atom_site_pbe_ddec_charge
 _atom_site_pbe_ddec_spin_density
 _atom_site_pbe_ddec_sum_bond_order
 _atom_site_pbe_magmom
Hg  Hg0  1  0.16676060  0.32740099  0.55560092  1  0  0.6609  0  2.109539  0  0  0.527828  0  2.609217  0  0  0.5776  0  2.575509  0  0  0.406258  0.494287  0  2.631544  0
Hg  Hg1  1  0.83321857  0.67259299  0.05560666  1  0  0.660892  0  2.109535  0  0  0.527834  0  2.609184  0  0  0.577593  0  2.575493  0  0  0.406254  0.494292  0  2.631522  0
Hg  Hg2  1  0.16676692  0.32740358  0.94439427  1  0  0.660918  0  2.109585  0  0  0.52784  0  2.609275  0  0  0.57761  0  2.575566  0  0  0.406284  0.494306  0  2.631602  0
Hg  Hg3  1  0.83321625  0.67259391  0.44439481  1  0  0.660929  0  2.109586  0  0  0.527885  0  2.609237  0  0  0.577646  0  2.575539  0  0  0.406289  0.494345  0  2.631568  0
H  H4  1  0.13730570  0.27439519  0.74999809  1  0  0.057375  0  0.984321  0  0  0.055175  0  1.072473  0  0  0.058511  0  1.066816  0  0  0.09927  0.052735  0  1.076497  0
H  H5  1  0.86269496  0.72560994  0.25000227  1  0  0.057346  0  0.984305  0  0  0.055175  0  1.072439  0  0  0.058512  0  1.06678  0  0  0.099254  0.052736  0  1.076465  0
H  H6  1  0.44761336  0.88486023  0.62455344  1  0  0.096407  0  0.955449  0  0  0.100812  0  1.027989  0  0  0.103994  0  1.023728  0  0  0.097267  0.098379  0  1.031269  0
H  H7  1  0.55239096  0.11513923  0.12455500  1  0  0.096363  0  0.955548  0  0  0.100783  0  1.02807  0  0  0.103965  0  1.02381  0  0  0.097275  0.098348  0  1.031352  0
H  H8  1  0.44761974  0.88486412  0.87544594  1  0  0.096387  0  0.955481  0  0  0.100787  0  1.028004  0  0  0.103968  0  1.023744  0  0  0.097258  0.098352  0  1.031287  0
H  H9  1  0.55239082  0.11513625  0.37544634  1  0  0.096425  0  0.955434  0  0  0.100817  0  1.027975  0  0  0.103999  0  1.023714  0  0  0.097284  0.098383  0  1.031253  0
C  C10  1  0.23322760  0.46230109  0.74999956  1  0  0.270399  0  3.757219  0  0  0.214701  0  4.034734  0  0  0.231901  0  4.047306  0  0  0.157994  0.203338  0  4.026144  0
C  C11  1  0.76677221  0.53770232  0.25000137  1  0  0.27044  0  3.757163  0  0  0.214705  0  4.034729  0  0  0.231907  0  4.047294  0  0  0.157999  0.20334  0  4.026139  0
C  C12  1  0.40505911  0.80042073  0.68082219  1  0  0.134888  0  3.685586  0  0  0.092754  0  3.940731  0  0  0.105136  0  3.954215  0  0  0.048988  0.084743  0  3.931771  0
C  C13  1  0.59494287  0.19957877  0.18082461  1  0  0.134917  0  3.685658  0  0  0.092815  0  3.940757  0  0  0.105201  0  3.954237  0  0  0.048989  0.084806  0  3.931799  0
C  C14  1  0.40505974  0.80041771  0.81917806  1  0  0.134905  0  3.685538  0  0  0.09282  0  3.940625  0  0  0.105206  0  3.954106  0  0  0.048997  0.084812  0  3.931669  0
C  C15  1  0.59494678  0.19957919  0.31917470  1  0  0.134872  0  3.685695  0  0  0.092798  0  3.940796  0  0  0.105186  0  3.954271  0  0  0.048986  0.084791  0  3.931835  0
C  C16  1  0.46748887  0.92336567  0.74999918  1  0  -0.006096  0  3.693887  0  0  0.014949  0  3.965484  0  0  0.009468  0  3.98487  0  0  -0.015257  0.017755  0  3.952883  0
C  C17  1  0.53252767  0.07664628  0.25000060  1  0  -0.006021  0  3.694298  0  0  0.014975  0  3.965923  0  0  0.009492  0  3.985308  0  0  -0.015241  0.017778  0  3.953327  0
Br  Br18  1  0.97586209  0.94154094  0.62055205  1  0  -0.364076  0  1.117793  0  0  -0.311863  0  1.43855  0  0  -0.333983  0  1.421486  0  0  -0.205322  -0.296796  0  1.45009  0
Br  Br19  1  0.02411710  0.05843607  0.12056879  1  0  -0.36405  0  1.117702  0  0  -0.311842  0  1.438462  0  0  -0.33394  0  1.421365  0  0  -0.205292  -0.296769  0  1.450004  0
Br  Br20  1  0.97586848  0.94154496  0.87944311  1  0  -0.364072  0  1.117784  0  0  -0.311869  0  1.438558  0  0  -0.333992  0  1.421498  0  0  -0.205316  -0.296797  0  1.450103  0
Br  Br21  1  0.02412590  0.05844180  0.37944022  1  0  -0.364053  0  1.11778  0  0  -0.311848  0  1.43855  0  0  -0.333962  0  1.42148  0  0  -0.205292  -0.296779  0  1.450091  0
Br  Br22  1  0.33957733  0.68244459  0.47092016  1  0  -0.376693  0  1.288338  0  0  -0.316644  0  1.650536  0  0  -0.34041  0  1.628468  0  0  -0.194691  -0.300502  0  1.665508  0
Br  Br23  1  0.66042316  0.31755709  0.97092210  1  0  -0.376715  0  1.288399  0  0  -0.316644  0  1.650576  0  0  -0.340415  0  1.628506  0  0  -0.1947  -0.3005  0  1.665556  0
Br  Br24  1  0.33957479  0.68243942  0.02907710  1  0  -0.376721  0  1.288406  0  0  -0.316652  0  1.650582  0  0  -0.340421  0  1.628513  0  0  -0.194706  -0.300507  0  1.665556  0
Br  Br25  1  0.66041299  0.31755541  0.52907327  1  0  -0.37674  0  1.288428  0  0  -0.316669  0  1.650596  0  0  -0.340445  0  1.628544  0  0  -0.194723  -0.30052  0  1.665559  0
Br  Br26  1  0.63062648  0.24800225  0.75000218  1  0  0.011669  0  1.34814  0  0  0.02222  0  1.6163  0  0  0.014983  0  1.611977  0  0  0.072772  0.027573  0  1.6196  0
Br  Br27  1  0.36940703  0.75200615  0.24999817  1  0  0.011645  0  1.348179  0  0  0.022226  0  1.616331  0  0  0.014963  0  1.612056  0  0  0.07276  0.027578  0  1.619636  0
N  N28  1  0.28767158  0.56942441  0.68167236  1  0  -0.318106  0  3.183554  0  0  -0.246449  0  3.450603  0  0  -0.269799  0  3.468016  0  0  -0.30991  -0.230857  0  3.438548  0
N  N29  1  0.71233016  0.43058721  0.18167382  1  0  -0.318111  0  3.183432  0  0  -0.246483  0  3.450502  0  0  -0.269834  0  3.467913  0  0  -0.309913  -0.23089  0  3.438449  0
N  N30  1  0.28767392  0.56942480  0.81832654  1  0  -0.318083  0  3.183598  0  0  -0.246443  0  3.450639  0  0  -0.269795  0  3.468053  0  0  -0.309894  -0.230858  0  3.438595  0
N  N31  1  0.71232839  0.43058245  0.31832857  1  0  -0.31814  0  3.183424  0  0  -0.246493  0  3.450468  0  0  -0.269843  0  3.467874  0  0  -0.309921  -0.230903  0  3.438417  0
