# generated using pymatgen
data_CaPH9C3O7
_symmetry_space_group_name_H-M   'P 1'
_cell_length_a   5.47237513
_cell_length_b   7.88236117
_cell_length_c   18.17588493
_cell_angle_alpha   90.00078305
_cell_angle_beta   89.99954124
_cell_angle_gamma   95.26654115
_symmetry_Int_Tables_number   1
_chemical_formula_structural   CaPH9C3O7
_chemical_formula_sum   'Ca4 P4 H36 C12 O28'
_cell_volume   780.71133893
_cell_formula_units_Z   4
loop_
 _symmetry_equiv_pos_site_id
 _symmetry_equiv_pos_as_xyz
  1  'x, y, z'
loop_
 _atom_site_type_symbol
 _atom_site_label
 _atom_site_symmetry_multiplicity
 _atom_site_fract_x
 _atom_site_fract_y
 _atom_site_fract_z
 _atom_site_occupancy
 _atom_site_hle17_bader_spin_density
 _atom_site_hle17_ddec_charge
 _atom_site_hle17_ddec_spin_density
 _atom_site_hle17_ddec_sum_bond_order
 _atom_site_hle17_magmom
 _atom_site_hse06_10hf_bader_spin_density
 _atom_site_hse06_10hf_ddec_charge
 _atom_site_hse06_10hf_ddec_spin_density
 _atom_site_hse06_10hf_ddec_sum_bond_order
 _atom_site_hse06_10hf_magmom
 _atom_site_hse06_bader_spin_density
 _atom_site_hse06_ddec_charge
 _atom_site_hse06_ddec_spin_density
 _atom_site_hse06_ddec_sum_bond_order
 _atom_site_hse06_magmom
 _atom_site_pbe_bader_spin_density
 _atom_site_pbe_cm5_charge
 _atom_site_pbe_ddec_charge
 _atom_site_pbe_ddec_spin_density
 _atom_site_pbe_ddec_sum_bond_order
 _atom_site_pbe_magmom
Ca  Ca0  1  0.88494461  0.16620260  0.56174485  1  0  1.583218  0  1.077672  0  0  1.454811  0  1.423989  0  0  1.495093  0  1.380542  0  0  0.915813  1.424939  0  1.454232  0
Ca  Ca1  1  0.11505895  0.33380143  0.06174641  1  0  1.583187  0  1.077785  0  0  1.454833  0  1.423977  0  0  1.49502  0  1.380709  0  0  0.91581  1.42497  0  1.454204  0
Ca  Ca2  1  0.11505721  0.83380424  0.43825338  1  0  1.58311  0  1.077913  0  0  1.454802  0  1.424049  0  0  1.49496  0  1.380828  0  0  0.9158  1.424946  0  1.454268  0
Ca  Ca3  1  0.88495300  0.66619905  0.93825567  1  0  1.583221  0  1.077667  0  0  1.454813  0  1.423995  0  0  1.495101  0  1.380544  0  0  0.915778  1.424924  0  1.454268  0
P  P4  1  0.64264898  0.14812217  0.40911538  1  0  1.519652  0  4.846305  0  0  1.361371  0  5.348917  0  0  1.410567  0  5.311548  0  0  0.336817  1.327024  0  5.374092  0
P  P5  1  0.35735363  0.35187561  0.90911675  1  0  1.51979  0  4.846502  0  0  1.361488  0  5.349089  0  0  1.410701  0  5.31171  0  0  0.336856  1.327136  0  5.374267  0
P  P6  1  0.35734852  0.85187958  0.59088120  1  0  1.51976  0  4.846389  0  0  1.361486  0  5.348965  0  0  1.410689  0  5.311578  0  0  0.336874  1.327143  0  5.37414  0
P  P7  1  0.64265633  0.64812360  0.09088423  1  0  1.519565  0  4.846537  0  0  1.361261  0  5.349128  0  0  1.410451  0  5.311754  0  0  0.336791  1.326918  0  5.374298  0
H  H8  1  0.75978286  0.12638578  0.28451381  1  0  0.12595  0  0.944296  0  0  0.141022  0  1.000474  0  0  0.14322  0  1.000137  0  0  0.109289  0.139368  0  1.000932  0
H  H9  1  0.24022342  0.37360066  0.78451504  1  0  0.126079  0  0.944293  0  0  0.141054  0  1.000539  0  0  0.143281  0  1.000169  0  0  0.10931  0.139401  0  1.001002  0
H  H10  1  0.24021330  0.87360578  0.71548442  1  0  0.126042  0  0.944272  0  0  0.141051  0  1.000489  0  0  0.143247  0  1.000153  0  0  0.109314  0.139395  0  1.000952  0
H  H11  1  0.75977873  0.62639472  0.21548704  1  0  0.126009  0  0.944305  0  0  0.141035  0  1.000489  0  0  0.143252  0  1.000114  0  0  0.109307  0.139381  0  1.000948  0
H  H12  1  0.60822988  0.31036864  0.30004942  1  0  0.124788  0  0.944165  0  0  0.138175  0  1.003227  0  0  0.140627  0  1.002552  0  0  0.104812  0.136367  0  1.003876  0
H  H13  1  0.39177188  0.18961444  0.80005138  1  0  0.124773  0  0.944336  0  0  0.138181  0  1.003317  0  0  0.140637  0  1.002643  0  0  0.104796  0.136372  0  1.003971  0
H  H14  1  0.39177176  0.68962292  0.69994496  1  0  0.124789  0  0.944164  0  0  0.138147  0  1.003247  0  0  0.140608  0  1.002547  0  0  0.104779  0.136337  0  1.003897  0
H  H15  1  0.60821663  0.81037456  0.19995180  1  0  0.124712  0  0.944423  0  0  0.138117  0  1.003426  0  0  0.140562  0  1.002749  0  0  0.104774  0.136307  0  1.004078  0
H  H16  1  0.99055145  0.46154756  0.35277972  1  0  0.113265  0  0.936851  0  0  0.130041  0  0.995019  0  0  0.132279  0  0.99434  0  0  0.117658  0.128415  0  0.99566  0
H  H17  1  0.00944813  0.03844345  0.85277949  1  0  0.113211  0  0.936735  0  0  0.130015  0  0.994895  0  0  0.13225  0  0.994217  0  0  0.117644  0.128392  0  0.995538  0
H  H18  1  0.00945369  0.53844272  0.64721961  1  0  0.113302  0  0.93672  0  0  0.130078  0  0.994906  0  0  0.132312  0  0.994223  0  0  0.117667  0.128453  0  0.995548  0
H  H19  1  0.99052412  0.96156084  0.14722424  1  0  0.113157  0  0.936777  0  0  0.129983  0  0.994928  0  0  0.132221  0  0.994239  0  0  0.117656  0.12836  0  0.995576  0
H  H20  1  0.13998903  0.27466936  0.35010796  1  0  0.125482  0  0.934918  0  0  0.139146  0  0.995853  0  0  0.142379  0  0.994043  0  0  0.117254  0.13676  0  0.997328  0
H  H21  1  0.86001659  0.22532540  0.85010956  1  0  0.125473  0  0.934935  0  0  0.139113  0  0.995925  0  0  0.142366  0  0.994092  0  0  0.117228  0.136732  0  0.997389  0
H  H22  1  0.86000846  0.72531838  0.64988697  1  0  0.125545  0  0.934888  0  0  0.139188  0  0.995856  0  0  0.142415  0  0.994062  0  0  0.11724  0.136805  0  0.997321  0
H  H23  1  0.13997426  0.77468144  0.14989087  1  0  0.125412  0  0.934826  0  0  0.139028  0  0.995853  0  0  0.142246  0  0.99406  0  0  0.117208  0.136647  0  0.997325  0
H  H24  1  0.33671850  0.51910200  0.18405161  1  0  0.412688  0  0.892063  0  0  0.375296  0  0.978756  0  0  0.388302  0  0.962752  0  0  0.306697  0.366282  0  0.987444  0
H  H25  1  0.66328406  0.98090267  0.68405412  1  0  0.412688  0  0.892069  0  0  0.375312  0  0.978735  0  0  0.388315  0  0.962732  0  0  0.306722  0.366301  0  0.987422  0
H  H26  1  0.66328448  0.48089975  0.81594606  1  0  0.412693  0  0.89208  0  0  0.375313  0  0.978749  0  0  0.388316  0  0.962742  0  0  0.306697  0.366302  0  0.987435  0
H  H27  1  0.33670830  0.01910163  0.31594631  1  0  0.41275  0  0.891975  0  0  0.375367  0  0.978636  0  0  0.388369  0  0.962655  0  0  0.306753  0.366356  0  0.987324  0
H  H28  1  0.35431163  0.33539206  0.50166914  1  0  0.442889  0  0.855599  0  0  0.410534  0  0.920545  0  0  0.421805  0  0.904229  0  0  0.307639  0.402587  0  0.932031  0
H  H29  1  0.64570261  0.16461147  0.00166896  1  0  0.442956  0  0.855498  0  0  0.410593  0  0.920461  0  0  0.421866  0  0.904139  0  0  0.307655  0.402643  0  0.93195  0
H  H30  1  0.64569618  0.66461861  0.49832799  1  0  0.443015  0  0.855418  0  0  0.410681  0  0.920341  0  0  0.421954  0  0.904019  0  0  0.30769  0.402735  0  0.931825  0
H  H31  1  0.35431283  0.83538774  0.99833257  1  0  0.442928  0  0.855538  0  0  0.41058  0  0.920479  0  0  0.421853  0  0.90416  0  0  0.307624  0.402634  0  0.931964  0
H  H32  1  0.25132824  0.50071732  0.53410835  1  0  0.436889  0  0.863442  0  0  0.404686  0  0.928815  0  0  0.415414  0  0.913219  0  0  0.303654  0.397119  0  0.939798  0
H  H33  1  0.74868389  0.99928799  0.03410993  1  0  0.436894  0  0.863402  0  0  0.404684  0  0.928797  0  0  0.415409  0  0.913205  0  0  0.303643  0.397118  0  0.939779  0
H  H34  1  0.74867924  0.49929080  0.46589043  1  0  0.436954  0  0.86332  0  0  0.404762  0  0.928681  0  0  0.415484  0  0.913093  0  0  0.303684  0.397195  0  0.939666  0
H  H35  1  0.25133172  0.00071249  0.96588995  1  0  0.436972  0  0.863311  0  0  0.404767  0  0.92869  0  0  0.415494  0  0.913096  0  0  0.303701  0.397198  0  0.939677  0
H  H36  1  0.45281042  0.35001379  0.60533665  1  0  0.423961  0  0.874427  0  0  0.39631  0  0.933336  0  0  0.407292  0  0.917008  0  0  0.3042  0.388456  0  0.94502  0
H  H37  1  0.54719648  0.14999663  0.10533772  1  0  0.423814  0  0.874652  0  0  0.39628  0  0.933324  0  0  0.407254  0  0.917014  0  0  0.304269  0.388431  0  0.944997  0
H  H38  1  0.54718941  0.64999178  0.39466103  1  0  0.423985  0  0.874394  0  0  0.39637  0  0.933229  0  0  0.407351  0  0.916906  0  0  0.304247  0.388517  0  0.944912  0
H  H39  1  0.45282079  0.85000258  0.89466711  1  0  0.423944  0  0.874481  0  0  0.396312  0  0.933344  0  0  0.407295  0  0.917018  0  0  0.304241  0.388458  0  0.945028  0
H  H40  1  0.62355801  0.38833732  0.67582666  1  0  0.425915  0  0.872921  0  0  0.394981  0  0.936264  0  0  0.405232  0  0.921251  0  0  0.299854  0.387679  0  0.946966  0
H  H41  1  0.37644096  0.11166882  0.17582791  1  0  0.42591  0  0.872944  0  0  0.394869  0  0.936433  0  0  0.405121  0  0.921419  0  0  0.299775  0.387573  0  0.947122  0
H  H42  1  0.37643234  0.61166570  0.32417487  1  0  0.425866  0  0.873011  0  0  0.394906  0  0.936389  0  0  0.405155  0  0.921378  0  0  0.299823  0.387609  0  0.947081  0
H  H43  1  0.62356600  0.88832147  0.82417692  1  0  0.425909  0  0.872953  0  0  0.394911  0  0.936368  0  0  0.405163  0  0.921355  0  0  0.299804  0.387617  0  0.947055  0
C  C44  1  0.75206931  0.23541260  0.32181247  1  0  -0.417229  0  3.708501  0  0  -0.438187  0  3.964287  0  0  -0.445822  0  3.971612  0  0  -0.17016  -0.432771  0  3.959284  0
C  C45  1  0.24794210  0.26457877  0.82181303  1  0  -0.417412  0  3.708707  0  0  -0.438236  0  3.964355  0  0  -0.44592  0  3.971722  0  0  -0.170202  -0.43282  0  3.959348  0
C  C46  1  0.24792736  0.76458278  0.67818356  1  0  -0.417318  0  3.708551  0  0  -0.438108  0  3.964153  0  0  -0.445788  0  3.97158  0  0  -0.170177  -0.43269  0  3.959144  0
C  C47  1  0.75205473  0.73541788  0.17818960  1  0  -0.417281  0  3.708684  0  0  -0.438088  0  3.96424  0  0  -0.445742  0  3.971589  0  0  -0.170201  -0.432664  0  3.959236  0
C  C48  1  0.99791026  0.34183857  0.32229060  1  0  -0.23411  0  3.701346  0  0  -0.276806  0  3.951403  0  0  -0.282017  0  3.959567  0  0  -0.154569  -0.273143  0  3.94594  0
C  C49  1  0.00209650  0.15815918  0.82229001  1  0  -0.234143  0  3.700986  0  0  -0.276865  0  3.951066  0  0  -0.282079  0  3.959217  0  0  -0.154596  -0.273201  0  3.945622  0
C  C50  1  0.00208624  0.65815553  0.67770818  1  0  -0.23435  0  3.701279  0  0  -0.277088  0  3.951351  0  0  -0.282286  0  3.959487  0  0  -0.154606  -0.273422  0  3.945887  0
C  C51  1  0.99789486  0.84185148  0.17771482  1  0  -0.233934  0  3.700913  0  0  -0.276734  0  3.951096  0  0  -0.281929  0  3.959234  0  0  -0.154516  -0.273092  0  3.945667  0
C  C52  1  0.08614781  0.38392155  0.24528374  1  0  0.726881  0  3.720131  0  0  0.673755  0  4.026812  0  0  0.70713  0  4.018503  0  0  0.247337  0.651014  0  4.031895  0
C  C53  1  0.91384741  0.11608410  0.74527741  1  0  0.727023  0  3.720242  0  0  0.673879  0  4.026986  0  0  0.70726  0  4.018675  0  0  0.247348  0.651118  0  4.032098  0
C  C54  1  0.91385534  0.61608148  0.75472109  1  0  0.726944  0  3.72078  0  0  0.673944  0  4.027301  0  0  0.707325  0  4.018987  0  0  0.247335  0.651202  0  4.032385  0
C  C55  1  0.08615043  0.88393421  0.25472027  1  0  0.72698  0  3.719655  0  0  0.67382  0  4.026406  0  0  0.7072  0  4.018091  0  0  0.247383  0.651086  0  4.031484  0
O  O56  1  0.82226143  0.02984875  0.44183674  1  0  -0.97261  0  1.923075  0  0  -0.886339  0  2.199097  0  0  -0.915738  0  2.180354  0  0  -0.465102  -0.865067  0  2.211291  0
O  O57  1  0.17773811  0.47014618  0.94183539  1  0  -0.97262  0  1.923173  0  0  -0.886304  0  2.199152  0  0  -0.915711  0  2.180396  0  0  -0.465062  -0.865022  0  2.211345  0
O  O58  1  0.17774006  0.97015555  0.55816314  1  0  -0.972564  0  1.922993  0  0  -0.886356  0  2.199078  0  0  -0.915735  0  2.180312  0  0  -0.465097  -0.865082  0  2.211271  0
O  O59  1  0.82226420  0.52985048  0.05816503  1  0  -0.972532  0  1.923128  0  0  -0.886294  0  2.199203  0  0  -0.915692  0  2.180458  0  0  -0.465059  -0.865021  0  2.211398  0
O  O60  1  0.62042946  0.29306268  0.46565999  1  0  -0.928043  0  1.955944  0  0  -0.833132  0  2.194147  0  0  -0.861287  0  2.17495  0  0  -0.392433  -0.813186  0  2.207032  0
O  O61  1  0.37957586  0.20693933  0.96566044  1  0  -0.928122  0  1.955964  0  0  -0.833209  0  2.194185  0  0  -0.861359  0  2.174982  0  0  -0.392477  -0.813258  0  2.207072  0
O  O62  1  0.37956589  0.70695054  0.53433493  1  0  -0.928138  0  1.956034  0  0  -0.833233  0  2.19425  0  0  -0.861386  0  2.175051  0  0  -0.392482  -0.813301  0  2.207145  0
O  O63  1  0.62043410  0.79305987  0.03434109  1  0  -0.928026  0  1.956044  0  0  -0.833113  0  2.194269  0  0  -0.861269  0  2.175075  0  0  -0.392426  -0.813174  0  2.207159  0
O  O64  1  0.38820000  0.05604286  0.38949931  1  0  -0.903579  0  2.012611  0  0  -0.819836  0  2.279277  0  0  -0.846682  0  2.257959  0  0  -0.416197  -0.800641  0  2.292743  0
O  O65  1  0.61180423  0.44394925  0.88950062  1  0  -0.903652  0  2.01265  0  0  -0.819942  0  2.279421  0  0  -0.846811  0  2.258091  0  0  -0.416195  -0.800742  0  2.292887  0
O  O66  1  0.61180066  0.94395507  0.61050002  1  0  -0.903628  0  2.012605  0  0  -0.81988  0  2.279265  0  0  -0.846741  0  2.257934  0  0  -0.416204  -0.800682  0  2.292729  0
O  O67  1  0.38819609  0.55604613  0.11050036  1  0  -0.903528  0  2.012608  0  0  -0.819776  0  2.279279  0  0  -0.846623  0  2.257951  0  0  -0.416167  -0.80058  0  2.292741  0
O  O68  1  0.98152316  0.32083015  0.18986784  1  0  -0.614901  0  1.957315  0  0  -0.557814  0  2.190384  0  0  -0.581862  0  2.182058  0  0  -0.315269  -0.541218  0  2.195792  0
O  O69  1  0.01846768  0.17917259  0.68987009  1  0  -0.614759  0  1.957767  0  0  -0.557679  0  2.190815  0  0  -0.581744  0  2.182488  0  0  -0.315168  -0.541072  0  2.196228  0
O  O70  1  0.01846951  0.67916268  0.81012543  1  0  -0.614666  0  1.958034  0  0  -0.557716  0  2.191111  0  0  -0.581779  0  2.182785  0  0  -0.315179  -0.541117  0  2.196522  0
O  O71  1  0.98151504  0.82082788  0.31013804  1  0  -0.61485  0  1.956759  0  0  -0.557789  0  2.189885  0  0  -0.581835  0  2.181564  0  0  -0.315278  -0.541198  0  2.195296  0
O  O72  1  0.28562694  0.49299405  0.24128182  1  0  -0.598551  0  2.108409  0  0  -0.529592  0  2.327955  0  0  -0.555769  0  2.313878  0  0  -0.314272  -0.511434  0  2.335769  0
O  O73  1  0.71436471  0.00699747  0.74128082  1  0  -0.59863  0  2.108279  0  0  -0.52966  0  2.327823  0  0  -0.555835  0  2.313738  0  0  -0.314293  -0.511499  0  2.335649  0
O  O74  1  0.71436208  0.50699877  0.75871695  1  0  -0.598623  0  2.108349  0  0  -0.529674  0  2.327834  0  0  -0.55585  0  2.313746  0  0  -0.314268  -0.511515  0  2.335657  0
O  O75  1  0.28563512  0.99300810  0.25871906  1  0  -0.598638  0  2.108425  0  0  -0.529619  0  2.327934  0  0  -0.555794  0  2.313867  0  0  -0.314287  -0.511461  0  2.335741  0
O  O76  1  0.22071241  0.37371240  0.53427030  1  0  -0.900959  0  1.784978  0  0  -0.835537  0  1.96739  0  0  -0.857999  0  1.934368  0  0  -0.610137  -0.819421  0  1.990251  0
O  O77  1  0.77929593  0.12629464  0.03427068  1  0  -0.900943  0  1.784904  0  0  -0.835571  0  1.967254  0  0  -0.858028  0  1.93428  0  0  -0.610138  -0.81946  0  1.990113  0
O  O78  1  0.77928974  0.62629699  0.46572737  1  0  -0.901102  0  1.784764  0  0  -0.835747  0  1.967082  0  0  -0.85819  0  1.934079  0  0  -0.610222  -0.819636  0  1.98994  0
O  O79  1  0.22071602  0.87370584  0.96573030  1  0  -0.901063  0  1.784865  0  0  -0.835635  0  1.967199  0  0  -0.858107  0  1.934189  0  0  -0.610151  -0.819516  0  1.990062  0
O  O80  1  0.61611928  0.33718635  0.62655959  1  0  -0.891677  0  1.836364  0  0  -0.842983  0  2.02238  0  0  -0.862205  0  1.99006  0  0  -0.632926  -0.829236  0  2.045035  0
O  O81  1  0.38387915  0.16281961  0.12655838  1  0  -0.891518  0  1.836532  0  0  -0.842795  0  2.022695  0  0  -0.861994  0  1.990381  0  0  -0.632909  -0.829053  0  2.045341  0
O  O82  1  0.38386990  0.66280775  0.37343809  1  0  -0.891611  0  1.836444  0  0  -0.842932  0  2.022518  0  0  -0.862133  0  1.990206  0  0  -0.632937  -0.82919  0  2.045166  0
O  O83  1  0.61612549  0.83718087  0.87344205  1  0  -0.891626  0  1.836431  0  0  -0.842882  0  2.022605  0  0  -0.862101  0  1.990277  0  0  -0.632886  -0.829132  0  2.045256  0
