# generated using pymatgen
data_CdH26C34(NO)4
_symmetry_space_group_name_H-M   'P 1'
_cell_length_a   9.73295682
_cell_length_b   9.73295925
_cell_length_c   16.73297248
_cell_angle_alpha   89.21185780
_cell_angle_beta   89.21185525
_cell_angle_gamma   76.01132888
_symmetry_Int_Tables_number   1
_chemical_formula_structural   CdH26C34(NO)4
_chemical_formula_sum   'Cd2 H52 C68 N8 O8'
_cell_volume   1537.87887995
_cell_formula_units_Z   2
loop_
 _symmetry_equiv_pos_site_id
 _symmetry_equiv_pos_as_xyz
  1  'x, y, z'
loop_
 _atom_site_type_symbol
 _atom_site_label
 _atom_site_symmetry_multiplicity
 _atom_site_fract_x
 _atom_site_fract_y
 _atom_site_fract_z
 _atom_site_occupancy
 _atom_site_hle17_bader_spin_density
 _atom_site_hle17_ddec_charge
 _atom_site_hle17_ddec_spin_density
 _atom_site_hle17_ddec_sum_bond_order
 _atom_site_hle17_magmom
 _atom_site_hse06_10hf_bader_spin_density
 _atom_site_hse06_10hf_ddec_charge
 _atom_site_hse06_10hf_ddec_spin_density
 _atom_site_hse06_10hf_ddec_sum_bond_order
 _atom_site_hse06_10hf_magmom
 _atom_site_hse06_bader_spin_density
 _atom_site_hse06_ddec_charge
 _atom_site_hse06_ddec_spin_density
 _atom_site_hse06_ddec_sum_bond_order
 _atom_site_hse06_magmom
 _atom_site_pbe_bader_spin_density
 _atom_site_pbe_cm5_charge
 _atom_site_pbe_ddec_charge
 _atom_site_pbe_ddec_spin_density
 _atom_site_pbe_ddec_sum_bond_order
 _atom_site_pbe_magmom
Cd  Cd0  1  0.50000030  0.49999963  0.50000017  1  0  1.152427  0  1.771526  0  0  0.974065  0  2.226941  0  0  1.027963  0  2.172939  0  0  0.782873  0.936498  0  2.262755  0
Cd  Cd1  1  0.49999971  0.50000030  0.99999994  1  0  1.152393  0  1.771583  0  0  0.974027  0  2.227014  0  0  1.027923  0  2.173011  0  0  0.782857  0.936458  0  2.262829  0
H  H2  1  0.31219935  0.82726277  0.20755413  1  0  0.125636  0  0.950546  0  0  0.144643  0  1.011709  0  0  0.147303  0  1.009985  0  0  0.092562  0.142761  0  1.012806  0
H  H3  1  0.17273784  0.68780057  0.29244523  1  0  0.125644  0  0.950594  0  0  0.144649  0  1.011748  0  0  0.14731  0  1.010026  0  0  0.092559  0.142767  0  1.012845  0
H  H4  1  0.68779970  0.17273861  0.79244560  1  0  0.125627  0  0.950589  0  0  0.144633  0  1.011752  0  0  0.147294  0  1.010029  0  0  0.092561  0.14275  0  1.012848  0
H  H5  1  0.82726147  0.31219974  0.70755450  1  0  0.12565  0  0.950586  0  0  0.144656  0  1.01174  0  0  0.147317  0  1.010017  0  0  0.092562  0.142773  0  1.012836  0
H  H6  1  0.30065294  0.98962151  0.15315092  1  0  0.117011  0  0.956003  0  0  0.137766  0  1.015965  0  0  0.139405  0  1.016562  0  0  0.08869  0.136673  0  1.015591  0
H  H7  1  0.01037868  0.69934626  0.34684785  1  0  0.117009  0  0.956024  0  0  0.137762  0  1.015986  0  0  0.139401  0  1.016583  0  0  0.088688  0.13667  0  1.015611  0
H  H8  1  0.69934535  0.01037881  0.84684763  1  0  0.116997  0  0.956016  0  0  0.137756  0  1.015972  0  0  0.139394  0  1.01657  0  0  0.088684  0.136662  0  1.015598  0
H  H9  1  0.98962063  0.30065406  0.65315188  1  0  0.117008  0  0.956029  0  0  0.137766  0  1.015982  0  0  0.139404  0  1.01658  0  0  0.088687  0.136673  0  1.015607  0
H  H10  1  0.16033005  0.90188923  0.14938455  1  0  0.11888  0  0.940987  0  0  0.142161  0  0.997981  0  0  0.144588  0  0.996784  0  0  0.094545  0.140358  0  0.999035  0
H  H11  1  0.09811069  0.83966912  0.35061482  1  0  0.118893  0  0.940982  0  0  0.142168  0  0.997977  0  0  0.144597  0  0.996779  0  0  0.094547  0.140365  0  0.999031  0
H  H12  1  0.83966952  0.09811002  0.85061459  1  0  0.118877  0  0.940943  0  0  0.142149  0  0.997948  0  0  0.144572  0  0.996754  0  0  0.094542  0.140345  0  0.999001  0
H  H13  1  0.90188990  0.16033014  0.64938551  1  0  0.118909  0  0.94096  0  0  0.142188  0  0.997951  0  0  0.144618  0  0.996751  0  0  0.094557  0.140384  0  0.999004  0
H  H14  1  0.31508451  0.98833025  0.01273725  1  0  0.107494  0  1.020539  0  0  0.115023  0  1.090382  0  0  0.117684  0  1.093472  0  0  0.086311  0.113078  0  1.088426  0
H  H15  1  0.01166900  0.68491523  0.48726272  1  0  0.107472  0  1.0205  0  0  0.115002  0  1.090344  0  0  0.117657  0  1.093441  0  0  0.086296  0.113056  0  1.088395  0
H  H16  1  0.68491480  0.01167006  0.98726248  1  0  0.107488  0  1.02054  0  0  0.115017  0  1.090382  0  0  0.117675  0  1.093477  0  0  0.086313  0.113071  0  1.088431  0
H  H17  1  0.98832928  0.31508508  0.51273703  1  0  0.1075  0  1.020512  0  0  0.115006  0  1.090386  0  0  0.117663  0  1.09348  0  0  0.086298  0.113062  0  1.088431  0
H  H18  1  0.49795384  0.74656276  0.78900873  1  0  0.113893  0  0.958458  0  0  0.120308  0  1.025153  0  0  0.125071  0  1.020885  0  0  0.105962  0.116946  0  1.028122  0
H  H19  1  0.25343660  0.50204703  0.71099198  1  0  0.113924  0  0.958374  0  0  0.120343  0  1.025066  0  0  0.125106  0  1.020798  0  0  0.105981  0.116981  0  1.028035  0
H  H20  1  0.50204727  0.25343862  0.21099218  1  0  0.11387  0  0.958393  0  0  0.120301  0  1.025075  0  0  0.125065  0  1.020805  0  0  0.10598  0.116941  0  1.028045  0
H  H21  1  0.74656245  0.49795434  0.28900835  1  0  0.113918  0  0.958371  0  0  0.120331  0  1.025067  0  0  0.125095  0  1.020797  0  0  0.10598  0.11697  0  1.028037  0
H  H22  1  0.42122314  0.15932966  0.67606508  1  0  0.107469  0  0.963877  0  0  0.118487  0  1.024169  0  0  0.121697  0  1.02213  0  0  0.108412  0.116269  0  1.02544  0
H  H23  1  0.84067116  0.57877711  0.82393561  1  0  0.107461  0  0.963886  0  0  0.11848  0  1.02418  0  0  0.121691  0  1.022141  0  0  0.108401  0.116262  0  1.025451  0
H  H24  1  0.57877797  0.84067172  0.32393582  1  0  0.107492  0  0.963824  0  0  0.118477  0  1.02415  0  0  0.121688  0  1.02211  0  0  0.108411  0.116257  0  1.025427  0
H  H25  1  0.15932841  0.42122214  0.17606473  1  0  0.107454  0  0.963921  0  0  0.118482  0  1.024198  0  0  0.121692  0  1.022159  0  0  0.108399  0.116261  0  1.025475  0
H  H26  1  0.34049743  0.26906817  0.80733847  1  0  0.09037  0  0.959281  0  0  0.098976  0  1.020819  0  0  0.101554  0  1.020397  0  0  0.100277  0.097125  0  1.02121  0
H  H27  1  0.73093208  0.65950193  0.69266164  1  0  0.090349  0  0.959294  0  0  0.098955  0  1.020834  0  0  0.101533  0  1.020411  0  0  0.100276  0.097104  0  1.021224  0
H  H28  1  0.65950496  0.73093215  0.19266184  1  0  0.090367  0  0.959281  0  0  0.098974  0  1.020821  0  0  0.101554  0  1.020398  0  0  0.100285  0.097123  0  1.021212  0
H  H29  1  0.26906698  0.34049521  0.30733813  1  0  0.090382  0  0.959286  0  0  0.098999  0  1.020815  0  0  0.101576  0  1.020394  0  0  0.100295  0.097148  0  1.021206  0
H  H30  1  0.33069825  0.12081791  0.92660238  1  0  0.088234  0  0.994601  0  0  0.09765  0  1.060267  0  0  0.099829  0  1.060684  0  0  0.097706  0.096123  0  1.060019  0
H  H31  1  0.87918223  0.66930196  0.57339773  1  0  0.088243  0  0.994602  0  0  0.097657  0  1.060269  0  0  0.099838  0  1.060683  0  0  0.097712  0.096131  0  1.060021  0
H  H32  1  0.66930209  0.87918240  0.07339855  1  0  0.088214  0  0.994601  0  0  0.09763  0  1.060271  0  0  0.099821  0  1.060648  0  0  0.097682  0.096103  0  1.060022  0
H  H33  1  0.12081734  0.33069729  0.42660202  1  0  0.088219  0  0.994649  0  0  0.097639  0  1.060308  0  0  0.099819  0  1.060722  0  0  0.097706  0.096112  0  1.06006  0
H  H34  1  0.70925872  0.71987020  0.42216327  1  0  0.113303  0  0.957985  0  0  0.123796  0  1.016811  0  0  0.126787  0  1.015295  0  0  0.106649  0.122108  0  1.017377  0
H  H35  1  0.28012999  0.29074106  0.07783669  1  0  0.113196  0  0.958131  0  0  0.123718  0  1.016918  0  0  0.126706  0  1.01541  0  0  0.10663  0.122033  0  1.017476  0
H  H36  1  0.29074059  0.28013012  0.57783647  1  0  0.113193  0  0.958131  0  0  0.123712  0  1.016917  0  0  0.1267  0  1.015412  0  0  0.106638  0.122026  0  1.017478  0
H  H37  1  0.71987060  0.70925820  0.92216305  1  0  0.113206  0  0.958106  0  0  0.123725  0  1.016897  0  0  0.126713  0  1.015389  0  0  0.106627  0.122038  0  1.017457  0
H  H38  1  0.83744059  0.91484323  0.40715908  1  0  0.085217  0  0.953756  0  0  0.100657  0  1.007422  0  0  0.103007  0  1.006848  0  0  0.099001  0.098817  0  1.008119  0
H  H39  1  0.08515583  0.16255997  0.09284029  1  0  0.085214  0  0.953785  0  0  0.100649  0  1.007458  0  0  0.102996  0  1.006884  0  0  0.099003  0.098809  0  1.008155  0
H  H40  1  0.16256001  0.08515603  0.59284126  1  0  0.085208  0  0.953774  0  0  0.100642  0  1.007449  0  0  0.10299  0  1.006875  0  0  0.098998  0.098802  0  1.008145  0
H  H41  1  0.91484348  0.83744034  0.90715945  1  0  0.085215  0  0.953776  0  0  0.10065  0  1.007449  0  0  0.102997  0  1.006876  0  0  0.098997  0.098809  0  1.008145  0
H  H42  1  0.81311929  0.09922505  0.50970175  1  0  0.085095  0  0.977374  0  0  0.096182  0  1.039104  0  0  0.097897  0  1.040251  0  0  0.095512  0.095616  0  1.037274  0
H  H43  1  0.90077414  0.18688168  0.99029775  1  0  0.08511  0  0.977361  0  0  0.096197  0  1.039087  0  0  0.097912  0  1.040234  0  0  0.095511  0.095631  0  1.037255  0
H  H44  1  0.18688131  0.90077421  0.49029859  1  0  0.085131  0  0.977416  0  0  0.096217  0  1.039133  0  0  0.097933  0  1.04028  0  0  0.095527  0.095651  0  1.037302  0
H  H45  1  0.09922594  0.81311969  0.00970197  1  0  0.085126  0  0.977422  0  0  0.096213  0  1.03914  0  0  0.097928  0  1.040287  0  0  0.095525  0.095646  0  1.037311  0
H  H46  1  0.65899923  0.10164077  0.62952460  1  0  0.110657  0  0.960104  0  0  0.120738  0  1.02179  0  0  0.123585  0  1.02057  0  0  0.106788  0.119029  0  1.022221  0
H  H47  1  0.89835892  0.34100237  0.87047549  1  0  0.110685  0  0.960085  0  0  0.120774  0  1.021765  0  0  0.123621  0  1.020545  0  0  0.106801  0.119064  0  1.022197  0
H  H48  1  0.34100239  0.89835849  0.37047573  1  0  0.110732  0  0.960026  0  0  0.120792  0  1.021743  0  0  0.123638  0  1.020522  0  0  0.10681  0.119082  0  1.022175  0
H  H49  1  0.10164141  0.65899795  0.12952423  1  0  0.110726  0  0.960042  0  0  0.120786  0  1.02176  0  0  0.123633  0  1.02054  0  0  0.106806  0.119077  0  1.022192  0
H  H50  1  0.39450976  0.71116414  0.65779252  1  0  0.099922  0  0.927862  0  0  0.11027  0  0.987902  0  0  0.112741  0  0.984654  0  0  0.139874  0.108267  0  0.990526  0
H  H51  1  0.28883512  0.60549199  0.84220758  1  0  0.0999  0  0.927866  0  0  0.110254  0  0.987901  0  0  0.112732  0  0.984644  0  0  0.139879  0.108251  0  0.990525  0
H  H52  1  0.60549084  0.28883512  0.34220841  1  0  0.099912  0  0.927865  0  0  0.110269  0  0.987892  0  0  0.112735  0  0.984651  0  0  0.139894  0.108267  0  0.990518  0
H  H53  1  0.71116495  0.39450939  0.15779214  1  0  0.099907  0  0.927873  0  0  0.110265  0  0.9879  0  0  0.112731  0  0.984657  0  0  0.139892  0.108262  0  0.990525  0
C  C54  1  0.27624191  0.88532783  0.15215086  1  0  -0.415671  0  3.686277  0  0  -0.494904  0  3.917837  0  0  -0.500349  0  3.921276  0  0  -0.249943  -0.490907  0  3.91503  0
C  C55  1  0.11467197  0.72375720  0.34784852  1  0  -0.415726  0  3.686332  0  0  -0.494943  0  3.917875  0  0  -0.500392  0  3.921315  0  0  -0.249941  -0.490944  0  3.915069  0
C  C56  1  0.72375535  0.11467249  0.84784890  1  0  -0.41567  0  3.686312  0  0  -0.494892  0  3.917868  0  0  -0.500338  0  3.921316  0  0  -0.249932  -0.490893  0  3.91506  0
C  C57  1  0.88532811  0.27624418  0.65215120  1  0  -0.415754  0  3.686358  0  0  -0.49498  0  3.917905  0  0  -0.500429  0  3.921342  0  0  -0.249955  -0.490981  0  3.915097  0
C  C58  1  0.34492535  0.79840510  0.08114613  1  0  0.520718  0  3.769945  0  0  0.51429  0  4.031306  0  0  0.541388  0  4.035732  0  0  0.12105  0.496238  0  4.027317  0
C  C59  1  0.20159477  0.65507428  0.41885324  1  0  0.520788  0  3.769892  0  0  0.514356  0  4.03126  0  0  0.541452  0  4.035685  0  0  0.121059  0.496298  0  4.027282  0
C  C60  1  0.65507396  0.20159522  0.91885301  1  0  0.520772  0  3.769924  0  0  0.514331  0  4.031299  0  0  0.541428  0  4.035726  0  0  0.121051  0.496274  0  4.027318  0
C  C61  1  0.79840454  0.34492604  0.58114710  1  0  0.520817  0  3.769887  0  0  0.514381  0  4.031256  0  0  0.541476  0  4.035682  0  0  0.12106  0.496323  0  4.027275  0
C  C62  1  0.35730615  0.87439993  0.00917223  1  0  -0.456276  0  3.721014  0  0  -0.47948  0  3.986636  0  0  -0.505487  0  4.008233  0  0  -0.164361  -0.46262  0  3.971723  0
C  C63  1  0.12560058  0.64269308  0.49082774  1  0  -0.456272  0  3.720942  0  0  -0.47949  0  3.986574  0  0  -0.50549  0  4.008174  0  0  -0.164333  -0.462628  0  3.971662  0
C  C64  1  0.64269316  0.12560039  0.99082751  1  0  -0.456256  0  3.720968  0  0  -0.479467  0  3.986596  0  0  -0.505471  0  4.008199  0  0  -0.164335  -0.462603  0  3.971683  0
C  C65  1  0.87439873  0.35730723  0.50917200  1  0  -0.45627  0  3.720927  0  0  -0.479476  0  3.986569  0  0  -0.505476  0  4.008167  0  0  -0.164328  -0.462611  0  3.971658  0
C  C66  1  0.41556625  0.82153132  0.93520978  1  0  0.411378  0  3.837232  0  0  0.388148  0  4.103686  0  0  0.414532  0  4.110865  0  0  0.109062  0.370884  0  4.09843  0
C  C67  1  0.17846934  0.58443352  0.56479034  1  0  0.411406  0  3.837196  0  0  0.388199  0  4.103608  0  0  0.414583  0  4.110783  0  0  0.109063  0.370935  0  4.098352  0
C  C68  1  0.58443409  0.17846900  0.06479115  1  0  0.411424  0  3.837196  0  0  0.388207  0  4.103636  0  0  0.414589  0  4.110814  0  0  0.109064  0.370941  0  4.098383  0
C  C69  1  0.82153074  0.41556786  0.43520939  1  0  0.411393  0  3.837249  0  0  0.388197  0  4.103649  0  0  0.414579  0  4.110825  0  0  0.109066  0.370929  0  4.098398  0
C  C70  1  0.41194935  0.92205064  0.86555870  1  0  -0.004289  0  3.749537  0  0  0.020578  0  3.975003  0  0  0.016011  0  3.99716  0  0  -0.015012  0.023392  0  3.960141  0
C  C71  1  0.07794941  0.58804722  0.63444145  1  0  -0.004257  0  3.749548  0  0  0.020634  0  3.974964  0  0  0.01607  0  3.997119  0  0  -0.015027  0.023448  0  3.960102  0
C  C72  1  0.58804894  0.07794968  0.13444165  1  0  -0.004391  0  3.749586  0  0  0.020488  0  3.975033  0  0  0.015922  0  3.997188  0  0  -0.015042  0.023305  0  3.960173  0
C  C73  1  0.92205016  0.41195204  0.36555890  1  0  -0.004297  0  3.749582  0  0  0.020579  0  3.975015  0  0  0.016013  0  3.997171  0  0  -0.015023  0.023396  0  3.960156  0
C  C74  1  0.46012363  0.86141646  0.79169327  1  0  -0.182608  0  3.728947  0  0  -0.2132  0  3.979303  0  0  -0.215785  0  3.998355  0  0  -0.093977  -0.211427  0  3.966645  0
C  C75  1  0.13858308  0.53987665  0.70830745  1  0  -0.182692  0  3.728954  0  0  -0.213288  0  3.979351  0  0  -0.215871  0  3.998398  0  0  -0.09401  -0.211514  0  3.966693  0
C  C76  1  0.53987876  0.13858387  0.20830764  1  0  -0.182533  0  3.728897  0  0  -0.213145  0  3.979267  0  0  -0.21573  0  3.998317  0  0  -0.093992  -0.211373  0  3.96661  0
C  C77  1  0.86141649  0.46012261  0.29169290  1  0  -0.182621  0  3.728906  0  0  -0.213215  0  3.979267  0  0  -0.215797  0  3.998312  0  0  -0.093984  -0.211443  0  3.966612  0
C  C78  1  0.46168441  0.94618194  0.72397602  1  0  0.17966  0  3.810702  0  0  0.172628  0  4.062895  0  0  0.177261  0  4.086026  0  0  0.089235  0.169431  0  4.047335  0
C  C79  1  0.05381827  0.53831605  0.77602349  1  0  0.179761  0  3.810653  0  0  0.172654  0  4.06294  0  0  0.177287  0  4.086072  0  0  0.089272  0.169457  0  4.04738  0
C  C80  1  0.53831695  0.05381838  0.27602429  1  0  0.179614  0  3.810743  0  0  0.172575  0  4.062936  0  0  0.177208  0  4.086069  0  0  0.089204  0.169379  0  4.047379  0
C  C81  1  0.94618104  0.46168427  0.22397625  1  0  0.179709  0  3.810619  0  0  0.172671  0  4.062814  0  0  0.177305  0  4.085945  0  0  0.089237  0.169476  0  4.047257  0
C  C82  1  0.41915202  0.09368608  0.72896234  1  0  -0.141041  0  3.722375  0  0  -0.163418  0  3.972134  0  0  -0.165275  0  3.990777  0  0  -0.087039  -0.162052  0  3.959513  0
C  C83  1  0.90631404  0.58084725  0.77103837  1  0  -0.141087  0  3.722384  0  0  -0.163453  0  3.972178  0  0  -0.16531  0  3.990821  0  0  -0.087041  -0.162088  0  3.959557  0
C  C84  1  0.58085037  0.90631425  0.27103916  1  0  -0.140983  0  3.722299  0  0  -0.163314  0  3.97205  0  0  -0.165172  0  3.990694  0  0  -0.086973  -0.16195  0  3.959432  0
C  C85  1  0.09368578  0.41915095  0.22896198  1  0  -0.141064  0  3.722327  0  0  -0.163434  0  3.972076  0  0  -0.165292  0  3.990719  0  0  -0.087007  -0.162069  0  3.959457  0
C  C86  1  0.37239996  0.15420466  0.80258737  1  0  -0.04507  0  3.75369  0  0  -0.054835  0  4.002797  0  0  -0.056981  0  4.023563  0  0  -0.08636  -0.053435  0  3.988903  0
C  C87  1  0.84579507  0.62759980  0.69741274  1  0  -0.04498  0  3.753635  0  0  -0.054742  0  4.002743  0  0  -0.056889  0  4.02351  0  0  -0.086329  -0.053342  0  3.988848  0
C  C88  1  0.62760243  0.84579566  0.19741354  1  0  -0.045081  0  3.753623  0  0  -0.054857  0  4.002746  0  0  -0.057007  0  4.023513  0  0  -0.086373  -0.053457  0  3.988856  0
C  C89  1  0.15420501  0.37239734  0.30258701  1  0  -0.045053  0  3.753667  0  0  -0.054839  0  4.002798  0  0  -0.056985  0  4.023565  0  0  -0.08639  -0.053439  0  3.988908  0
C  C90  1  0.36739394  0.06999202  0.87017878  1  0  -0.082311  0  3.71905  0  0  -0.105259  0  3.961125  0  0  -0.105885  0  3.98242  0  0  -0.083026  -0.104663  0  3.946747  0
C  C91  1  0.93000713  0.63260661  0.62982193  1  0  -0.082377  0  3.719052  0  0  -0.105329  0  3.961121  0  0  -0.105956  0  3.982417  0  0  -0.083055  -0.104732  0  3.946743  0
C  C92  1  0.63260742  0.93000830  0.12982274  1  0  -0.082248  0  3.718942  0  0  -0.105193  0  3.961016  0  0  -0.105813  0  3.982319  0  0  -0.082995  -0.104596  0  3.94664  0
C  C93  1  0.06999244  0.36739264  0.37017781  1  0  -0.082314  0  3.719055  0  0  -0.105265  0  3.96113  0  0  -0.105891  0  3.982427  0  0  -0.083034  -0.104669  0  3.946755  0
C  C94  1  0.59697832  0.91170727  0.59172710  1  0  0.105089  0  3.759138  0  0  0.094136  0  4.00485  0  0  0.097579  0  4.028071  0  0  0.094378  0.091737  0  3.989204  0
C  C95  1  0.08829297  0.40302179  0.90827241  1  0  0.105093  0  3.759262  0  0  0.094135  0  4.004989  0  0  0.097578  0  4.028212  0  0  0.094363  0.091737  0  3.989342  0
C  C96  1  0.40302073  0.08829411  0.40827323  1  0  0.105108  0  3.75913  0  0  0.094139  0  4.004863  0  0  0.097582  0  4.028083  0  0  0.094365  0.091741  0  3.989217  0
C  C97  1  0.91170711  0.59697959  0.09172731  1  0  0.105174  0  3.759151  0  0  0.094204  0  4.004875  0  0  0.097647  0  4.028096  0  0  0.094395  0.091806  0  3.989228  0
C  C98  1  0.61041047  0.80504724  0.53315921  1  0  0.149362  0  3.824069  0  0  0.148925  0  4.070834  0  0  0.152042  0  4.094249  0  0  0.089708  0.146683  0  4.054828  0
C  C99  1  0.19495283  0.38958959  0.96684149  1  0  0.149392  0  3.824029  0  0  0.148915  0  4.070859  0  0  0.152032  0  4.094274  0  0  0.0897  0.146672  0  4.054855  0
C  C100  1  0.38958781  0.19495308  0.46684053  1  0  0.149403  0  3.824133  0  0  0.148976  0  4.070892  0  0  0.152093  0  4.094307  0  0  0.089707  0.146734  0  4.054888  0
C  C101  1  0.80504827  0.61041179  0.03315941  1  0  0.149409  0  3.824093  0  0  0.148989  0  4.070857  0  0  0.152106  0  4.094274  0  0  0.08972  0.146747  0  4.054853  0
C  C102  1  0.69802966  0.80379498  0.46602730  1  0  -0.145701  0  3.736968  0  0  -0.164743  0  3.991804  0  0  -0.166676  0  4.009905  0  0  -0.093408  -0.163331  0  3.97895  0
C  C103  1  0.19620528  0.30197179  0.03397264  1  0  -0.145639  0  3.736969  0  0  -0.164689  0  3.991841  0  0  -0.166622  0  4.00994  0  0  -0.093399  -0.163279  0  3.978991  0
C  C104  1  0.30197068  0.19620533  0.53397243  1  0  -0.145597  0  3.737112  0  0  -0.16465  0  3.991959  0  0  -0.166583  0  4.010059  0  0  -0.093376  -0.163241  0  3.97911  0
C  C105  1  0.80379480  0.69802959  0.96602768  1  0  -0.145594  0  3.737081  0  0  -0.164662  0  3.991939  0  0  -0.166596  0  4.010039  0  0  -0.093381  -0.163251  0  3.979086  0
C  C106  1  0.76955181  0.91129220  0.45915039  1  0  -0.080947  0  3.792491  0  0  -0.099166  0  4.051599  0  0  -0.100971  0  4.072788  0  0  -0.099973  -0.097593  0  4.036671  0
C  C107  1  0.08870772  0.23044808  0.04084957  1  0  -0.08093  0  3.79241  0  0  -0.099151  0  4.051534  0  0  -0.100951  0  4.072715  0  0  -0.099985  -0.097579  0  4.036607  0
C  C108  1  0.23044775  0.08870705  0.54084935  1  0  -0.080993  0  3.792523  0  0  -0.099222  0  4.051654  0  0  -0.101021  0  4.072835  0  0  -0.100033  -0.097649  0  4.036725  0
C  C109  1  0.91129261  0.76955223  0.95915016  1  0  -0.081008  0  3.792442  0  0  -0.099228  0  4.05157  0  0  -0.101028  0  4.072754  0  0  -0.100016  -0.097654  0  4.03664  0
C  C110  1  0.75607715  0.01637144  0.51784559  1  0  -0.064797  0  3.768936  0  0  -0.080413  0  4.022555  0  0  -0.082163  0  4.045335  0  0  -0.096689  -0.079365  0  4.006507  0
C  C111  1  0.98362780  0.24392387  0.98215391  1  0  -0.064816  0  3.768872  0  0  -0.080422  0  4.022488  0  0  -0.082172  0  4.045268  0  0  -0.096661  -0.079373  0  4.006442  0
C  C112  1  0.24392344  0.98362781  0.48215414  1  0  -0.064798  0  3.769007  0  0  -0.080396  0  4.022605  0  0  -0.082147  0  4.045385  0  0  -0.096648  -0.079348  0  4.006558  0
C  C113  1  0.01637254  0.75607644  0.01784582  1  0  -0.064782  0  3.768961  0  0  -0.080383  0  4.022562  0  0  -0.082134  0  4.045342  0  0  -0.096647  -0.079335  0  4.006515  0
C  C114  1  0.66996821  0.01854790  0.58531634  1  0  -0.142926  0  3.750169  0  0  -0.163111  0  4.00476  0  0  -0.166307  0  4.025709  0  0  -0.094021  -0.161385  0  3.991019  0
C  C115  1  0.98145282  0.33003336  0.91468315  1  0  -0.142993  0  3.750209  0  0  -0.163192  0  4.004819  0  0  -0.166389  0  4.025769  0  0  -0.094071  -0.161467  0  3.991081  0
C  C116  1  0.33003212  0.98145242  0.41468339  1  0  -0.142993  0  3.750117  0  0  -0.163166  0  4.004737  0  0  -0.166366  0  4.025693  0  0  -0.094042  -0.161441  0  3.991  0
C  C117  1  0.01854828  0.66996802  0.08531657  1  0  -0.143019  0  3.750153  0  0  -0.163197  0  4.004781  0  0  -0.166397  0  4.025736  0  0  -0.094054  -0.161472  0  3.991044  0
C  C118  1  0.46781972  0.75908694  0.62454790  1  0  0.207107  0  3.66109  0  0  0.144124  0  3.937529  0  0  0.161037  0  3.947098  0  0  0.161313  0.133084  0  3.930898  0
C  C119  1  0.24091327  0.53218085  0.87545161  1  0  0.207201  0  3.660947  0  0  0.144203  0  3.937371  0  0  0.161111  0  3.946937  0  0  0.161369  0.133163  0  3.93074  0
C  C120  1  0.53218062  0.24091338  0.37545243  1  0  0.207221  0  3.660954  0  0  0.144242  0  3.93739  0  0  0.161159  0  3.94696  0  0  0.161362  0.133201  0  3.930763  0
C  C121  1  0.75908707  0.46781947  0.12454812  1  0  0.207226  0  3.661013  0  0  0.144246  0  3.937448  0  0  0.161164  0  3.947018  0  0  0.161357  0.133206  0  3.93082  0
N  N122  1  0.52801929  0.71258014  0.55575349  1  0  -0.412004  0  3.175523  0  0  -0.352753  0  3.459522  0  0  -0.372408  0  3.473705  0  0  -0.343001  -0.339421  0  3.449399  0
N  N123  1  0.28742002  0.47198131  0.94424721  1  0  -0.412021  0  3.175509  0  0  -0.352759  0  3.459528  0  0  -0.372414  0  3.473713  0  0  -0.343003  -0.339425  0  3.449405  0
N  N124  1  0.47198002  0.28742018  0.44424684  1  0  -0.412058  0  3.175485  0  0  -0.352827  0  3.459499  0  0  -0.372482  0  3.473681  0  0  -0.343013  -0.339492  0  3.449376  0
N  N125  1  0.71258006  0.52802006  0.05575371  1  0  -0.412054  0  3.17546  0  0  -0.352818  0  3.459468  0  0  -0.372478  0  3.473659  0  0  -0.343004  -0.339483  0  3.449345  0
N  N126  1  0.50532561  0.87858942  0.64983669  1  0  -0.159677  0  3.559201  0  0  -0.075464  0  3.777982  0  0  -0.092745  0  3.802595  0  0  -0.225043  -0.063947  0  3.761141  0
N  N127  1  0.12141064  0.49467434  0.85016342  1  0  -0.159754  0  3.559151  0  0  -0.075473  0  3.777919  0  0  -0.092755  0  3.802534  0  0  -0.225071  -0.063956  0  3.761078  0
N  N128  1  0.49467473  0.12141090  0.35016364  1  0  -0.159817  0  3.559176  0  0  -0.0756  0  3.777985  0  0  -0.09288  0  3.802597  0  0  -0.225107  -0.064082  0  3.761148  0
N  N129  1  0.87858867  0.50532598  0.14983691  1  0  -0.159858  0  3.559199  0  0  -0.075644  0  3.778009  0  0  -0.092925  0  3.80262  0  0  -0.22512  -0.064127  0  3.761173  0
O  O130  1  0.38140246  0.66513211  0.09199384  1  0  -0.582012  0  1.957854  0  0  -0.521437  0  2.190874  0  0  -0.547447  0  2.18194  0  0  -0.320388  -0.503533  0  2.195952  0
O  O131  1  0.33486725  0.61859737  0.40800613  1  0  -0.582026  0  1.957837  0  0  -0.521448  0  2.190862  0  0  -0.547457  0  2.181928  0  0  -0.3204  -0.503542  0  2.195942  0
O  O132  1  0.61859685  0.33486821  0.90800650  1  0  -0.582039  0  1.957826  0  0  -0.521452  0  2.19085  0  0  -0.547458  0  2.181916  0  0  -0.320404  -0.503544  0  2.195928  0
O  O133  1  0.66513206  0.38140294  0.59199421  1  0  -0.582064  0  1.957822  0  0  -0.52148  0  2.190846  0  0  -0.547488  0  2.181913  0  0  -0.320409  -0.503573  0  2.195925  0
O  O134  1  0.47455056  0.69193844  0.91893548  1  0  -0.597368  0  2.055117  0  0  -0.528321  0  2.302735  0  0  -0.556489  0  2.293692  0  0  -0.326238  -0.509177  0  2.307962  0
O  O135  1  0.30806092  0.52544996  0.58106404  1  0  -0.597377  0  2.055067  0  0  -0.52835  0  2.302683  0  0  -0.556516  0  2.293638  0  0  -0.326222  -0.509207  0  2.307912  0
O  O136  1  0.52544978  0.30806188  0.08106425  1  0  -0.597385  0  2.055045  0  0  -0.52836  0  2.302684  0  0  -0.556525  0  2.293637  0  0  -0.326236  -0.509218  0  2.307915  0
O  O137  1  0.69193890  0.47455248  0.41893568  1  0  -0.597419  0  2.05512  0  0  -0.528382  0  2.302729  0  0  -0.556551  0  2.293685  0  0  -0.326242  -0.509238  0  2.307962  0
