# generated using pymatgen
data_Hg2H27C24N7Cl4O3
_symmetry_space_group_name_H-M   'P 1'
_cell_length_a   8.23702311
_cell_length_b   13.53763348
_cell_length_c   14.00700000
_cell_angle_alpha   105.03703078
_cell_angle_beta   95.52430720
_cell_angle_gamma   96.90685518
_symmetry_Int_Tables_number   1
_chemical_formula_structural   Hg2H27C24N7Cl4O3
_chemical_formula_sum   'Hg4 H54 C48 N14 Cl8 O6'
_cell_volume   1484.19439484
_cell_formula_units_Z   2
loop_
 _symmetry_equiv_pos_site_id
 _symmetry_equiv_pos_as_xyz
  1  'x, y, z'
loop_
 _atom_site_type_symbol
 _atom_site_label
 _atom_site_symmetry_multiplicity
 _atom_site_fract_x
 _atom_site_fract_y
 _atom_site_fract_z
 _atom_site_occupancy
 _atom_site_hle17_bader_spin_density
 _atom_site_hle17_ddec_charge
 _atom_site_hle17_ddec_spin_density
 _atom_site_hle17_ddec_sum_bond_order
 _atom_site_hle17_magmom
 _atom_site_hse06_10hf_bader_spin_density
 _atom_site_hse06_10hf_ddec_charge
 _atom_site_hse06_10hf_ddec_spin_density
 _atom_site_hse06_10hf_ddec_sum_bond_order
 _atom_site_hse06_10hf_magmom
 _atom_site_hse06_bader_spin_density
 _atom_site_hse06_ddec_charge
 _atom_site_hse06_ddec_spin_density
 _atom_site_hse06_ddec_sum_bond_order
 _atom_site_hse06_magmom
 _atom_site_pbe_bader_charge
 _atom_site_pbe_bader_spin_density
 _atom_site_pbe_cm5_charge
 _atom_site_pbe_ddec_charge
 _atom_site_pbe_ddec_spin_density
 _atom_site_pbe_ddec_sum_bond_order
 _atom_site_pbe_magmom
Hg  Hg0  1  0.99024671  0.11855147  0.61668239  1  0  0.770202  0  2.025189  0  0  0.610842  0  2.491626  0  0  0.663893  0  2.459061  0  0.889318  0  0.557768  0.574349  0  2.513252  0
Hg  Hg1  1  0.00975482  0.88144878  0.38331919  1  0  0.770242  0  2.025125  0  0  0.610924  0  2.491557  0  0  0.663978  0  2.458988  0  0.889158  0  0.557776  0.574429  0  2.513187  0
Hg  Hg2  1  0.53147768  0.80732394  0.21106472  1  0  0.780811  0  2.076078  0  0  0.62541  0  2.593404  0  0  0.673977  0  2.555619  0  0.822527  0  0.500917  0.592056  0  2.618784  0
Hg  Hg3  1  0.46852404  0.19267709  0.78893421  1  0  0.780828  0  2.076082  0  0  0.625432  0  2.593406  0  0  0.674  0  2.555621  0  0.822505  0  0.500919  0.592078  0  2.618788  0
H  H4  1  0.53729115  0.28639880  0.10885879  1  0  0.275097  0  0.944056  0  0  0.259247  0  1.009516  0  0  0.266114  0  1.005028  0  0.480323  0  0.287319  0.254398  0  1.012733  0
H  H5  1  0.46270484  0.71360377  0.89114020  1  0  0.275012  0  0.94411  0  0  0.25921  0  1.009536  0  0  0.266077  0  1.005046  0  0.480339  0  0.287309  0.254361  0  1.012753  0
H  H6  1  0.43835957  0.53455404  0.08104082  1  0  0.049169  0  0.948168  0  0  0.063554  0  1.020006  0  0  0.063544  0  1.020478  0  0.032112  0  0.090023  0.063446  0  1.019811  0
H  H7  1  0.56163812  0.46544544  0.91895749  1  0  0.049153  0  0.948085  0  0  0.063553  0  1.019943  0  0  0.063541  0  1.020417  0  0.032249  0  0.090027  0.063449  0  1.019745  0
H  H8  1  0.40490913  0.39953322  0.02527288  1  0  0.061234  0  0.959536  0  0  0.07775  0  1.025534  0  0  0.077956  0  1.025655  0  0.055669  0  0.098994  0.077475  0  1.02565  0
H  H9  1  0.59509203  0.60046549  0.97472686  1  0  0.061176  0  0.959541  0  0  0.077703  0  1.025562  0  0  0.077906  0  1.025683  0  0.055682  0  0.098989  0.077428  0  1.025677  0
H  H10  1  0.65738597  0.46813578  0.15597994  1  0  0.063527  0  0.92328  0  0  0.079562  0  0.99034  0  0  0.079684  0  0.989725  0  0.053674  0  0.098894  0.079355  0  0.990914  0
H  H11  1  0.34261435  0.53186447  0.84401657  1  0  0.063539  0  0.923246  0  0  0.079565  0  0.990313  0  0  0.079687  0  0.989696  0  0.053704  0  0.098881  0.079362  0  0.990888  0
H  H12  1  0.52313325  0.49058006  0.24877230  1  0  0.075126  0  0.929649  0  0  0.091543  0  0.990906  0  0  0.093126  0  0.988834  0  0.100199  0  0.107736  0.090291  0  0.992498  0
H  H13  1  0.47687128  0.50942251  0.75122717  1  0  0.075133  0  0.929675  0  0  0.091563  0  0.990916  0  0  0.093149  0  0.988841  0  0.100195  0  0.107751  0.090311  0  0.992508  0
H  H14  1  0.00903462  0.25950544  0.12060695  1  0  0.293227  0  0.933755  0  0  0.27478  0  0.999378  0  0  0.282247  0  0.994214  0  0.501047  0  0.304618  0.269513  0  1.003088  0
H  H15  1  0.99097103  0.74050178  0.87939661  1  0  0.293271  0  0.933788  0  0  0.274816  0  0.999433  0  0  0.282282  0  0.994264  0  0.501046  0  0.304622  0.269548  0  1.003145  0
H  H16  1  0.12162169  0.44333620  0.98002770  1  0  0.048782  0  0.925775  0  0  0.066737  0  0.989881  0  0  0.067309  0  0.989846  0  0.015036  0  0.091578  0.066189  0  0.990113  0
H  H17  1  0.87837966  0.55666328  0.01997010  1  0  0.048845  0  0.925569  0  0  0.066756  0  0.989764  0  0  0.067328  0  0.989723  0  0.015054  0  0.091562  0.066199  0  0.990006  0
H  H18  1  0.98900133  0.41547796  0.06531107  1  0  0.065942  0  0.946777  0  0  0.079069  0  1.016472  0  0  0.080383  0  1.015069  0  0.068297  0  0.101187  0.078019  0  1.017629  0
H  H19  1  0.01099739  0.58452074  0.93468639  1  0  0.065905  0  0.946803  0  0  0.079052  0  1.016478  0  0  0.080364  0  1.015075  0  0.067813  0  0.101179  0.078004  0  1.017629  0
H  H20  1  0.01400116  0.26385393  0.92897500  1  0  0.056597  0  0.941562  0  0  0.07434  0  1.008425  0  0  0.072908  0  1.009601  0  0.067977  0  0.094675  0.07527  0  1.007708  0
H  H21  1  0.98600207  0.73614322  0.07102161  1  0  0.0566  0  0.941538  0  0  0.074352  0  1.008386  0  0  0.07292  0  1.009563  0  0.067994  0  0.094673  0.075281  0  1.00767  0
H  H22  1  0.22590052  0.27280626  0.96791417  1  0  0.061669  0  0.963819  0  0  0.074179  0  1.036677  0  0  0.074864  0  1.03525  0  0.077256  0  0.097217  0.073572  0  1.03782  0
H  H23  1  0.77410046  0.72719167  0.03208751  1  0  0.061673  0  0.963753  0  0  0.074201  0  1.036589  0  0  0.074886  0  1.035162  0  0.077263  0  0.097215  0.073594  0  1.037734  0
H  H24  1  0.15448781  0.53204398  0.38700531  1  0  0.286139  0  0.879329  0  0  0.279232  0  0.926297  0  0  0.284316  0  0.924623  0  0.465924  0  0.322683  0.275677  0  0.927551  0
H  H25  1  0.84551372  0.46795627  0.61299555  1  0  0.286145  0  0.879234  0  0  0.279238  0  0.926218  0  0  0.28432  0  0.924543  0  0.465954  0  0.322636  0.275686  0  0.927473  0
H  H26  1  0.19703536  0.60579974  0.13819737  1  0  0.050072  0  0.941429  0  0  0.063887  0  1.012797  0  0  0.064028  0  1.013296  0  0.046207  0  0.083832  0.06371  0  1.012572  0
H  H27  1  0.80295829  0.39419818  0.86180104  1  0  0.050114  0  0.941397  0  0  0.063919  0  1.012758  0  0  0.064043  0  1.01327  0  0.046304  0  0.083831  0.063743  0  1.012532  0
H  H28  1  0.32576562  0.58615646  0.23730967  1  0  0.060941  0  0.949385  0  0  0.077844  0  1.013657  0  0  0.077749  0  1.013979  0  0.041083  0  0.094427  0.077842  0  1.013492  0
H  H29  1  0.67423432  0.41384225  0.76268714  1  0  0.060938  0  0.9494  0  0  0.077865  0  1.013625  0  0  0.077767  0  1.013946  0  0.041036  0  0.094442  0.077864  0  1.013459  0
H  H30  1  0.06083570  0.63304207  0.28233106  1  0  0.068318  0  0.954645  0  0  0.081542  0  1.025197  0  0  0.081036  0  1.025851  0  0.117835  0  0.092425  0.081837  0  1.024828  0
H  H31  1  0.93916349  0.36695354  0.71766922  1  0  0.068377  0  0.954704  0  0  0.081582  0  1.025255  0  0  0.081077  0  1.025909  0  0.117951  0  0.092471  0.081876  0  1.024884  0
H  H32  1  0.95112893  0.51835163  0.19724770  1  0  0.070415  0  0.944243  0  0  0.084671  0  1.010569  0  0  0.086048  0  1.00868  0  0.06048  0  0.106951  0.083553  0  1.012129  0
H  H33  1  0.04887130  0.48164320  0.80275316  1  0  0.070474  0  0.944201  0  0  0.084695  0  1.010567  0  0  0.086073  0  1.008677  0  0.060464  0  0.106936  0.083575  0  1.012129  0
H  H34  1  0.61559056  0.97104948  0.09381713  1  0  0.103847  0  0.975832  0  0  0.110741  0  1.042878  0  0  0.114243  0  1.039037  0  0.180906  0  0.115727  0.108115  0  1.045782  0
H  H35  1  0.38441031  0.02895310  0.90618071  1  0  0.103819  0  0.97581  0  0  0.11071  0  1.042884  0  0  0.114223  0  1.039029  0  0.181011  0  0.115722  0.108083  0  1.045788  0
H  H36  1  0.59444159  0.15202870  0.09558165  1  0  0.109445  0  0.97608  0  0  0.117517  0  1.040392  0  0  0.121395  0  1.038024  0  0.114549  0  0.102779  0.114649  0  1.042346  0
H  H37  1  0.40555928  0.84797387  0.90441691  1  0  0.109472  0  0.976057  0  0  0.117552  0  1.040355  0  0  0.121429  0  1.037987  0  0.114448  0  0.102802  0.114687  0  1.042305  0
H  H38  1  0.43235572  0.19534731  0.38681301  1  0  0.114392  0  0.944627  0  0  0.12489  0  1.002855  0  0  0.128292  0  1.001642  0  0.109273  0  0.110593  0.12244  0  1.003866  0
H  H39  1  0.56764094  0.80465294  0.61318472  1  0  0.114355  0  0.944614  0  0  0.12487  0  1.002831  0  0  0.128272  0  1.001619  0  0.109267  0  0.110588  0.122421  0  1.003842  0
H  H40  1  0.45568233  0.00858248  0.37181499  1  0  0.093751  0  0.956564  0  0  0.098994  0  1.026156  0  0  0.101488  0  1.02374  0  0.148938  0  0.101134  0.097048  0  1.028122  0
H  H41  1  0.54431067  0.99141777  0.62818111  1  0  0.093787  0  0.95664  0  0  0.099024  0  1.026233  0  0  0.101528  0  1.023793  0  0.148882  0  0.101158  0.097078  0  1.028201  0
H  H42  1  0.17421333  0.85951595  0.18733831  1  0  0.075749  0  0.986536  0  0  0.079987  0  1.062793  0  0  0.08227  0  1.060101  0  0.148941  0  0.099955  0.078237  0  1.064808  0
H  H43  1  0.82578455  0.14048430  0.81266163  1  0  0.075693  0  0.98655  0  0  0.079959  0  1.062784  0  0  0.08224  0  1.060094  0  0.148823  0  0.099952  0.078209  0  1.064797  0
H  H44  1  0.22844933  0.95974958  0.06378598  1  0  0.116435  0  0.949331  0  0  0.121449  0  1.016795  0  0  0.125383  0  1.014736  0  0.114987  0  0.108641  0.118624  0  1.018354  0
H  H45  1  0.77154470  0.04024990  0.93621284  1  0  0.116371  0  0.949434  0  0  0.121386  0  1.0169  0  0  0.125326  0  1.014824  0  0.114946  0  0.108627  0.118561  0  1.018458  0
H  H46  1  0.93869528  0.18181977  0.21733318  1  0  0.108092  0  0.990169  0  0  0.114731  0  1.05579  0  0  0.118294  0  1.054973  0  0.12965  0  0.107292  0.112141  0  1.056539  0
H  H47  1  0.06130297  0.81818202  0.78266789  1  0  0.108061  0  0.99026  0  0  0.114747  0  1.055822  0  0  0.11831  0  1.055003  0  0.12971  0  0.10732  0.112157  0  1.056569  0
H  H48  1  0.89318514  0.07110721  0.33248719  1  0  0.079206  0  0.962745  0  0  0.084874  0  1.034305  0  0  0.086687  0  1.03355  0  0.113955  0  0.105023  0.083464  0  1.035004  0
H  H49  1  0.10681555  0.92889459  0.66751473  1  0  0.079212  0  0.962778  0  0  0.084915  0  1.034309  0  0  0.08673  0  1.033549  0  0.113972  0  0.105023  0.083505  0  1.035009  0
H  H50  1  0.75154573  0.21820710  0.50316946  1  0  0.093583  0  0.97567  0  0  0.102172  0  1.040141  0  0  0.10456  0  1.037819  0  0.165875  0  0.104448  0.100353  0  1.041921  0
H  H51  1  0.24845392  0.78179547  0.49683473  1  0  0.093568  0  0.975649  0  0  0.102132  0  1.040142  0  0  0.104517  0  1.037827  0  0.165883  0  0.104433  0.10032  0  1.041903  0
H  H52  1  0.74737834  0.32466479  0.38109844  1  0  0.120171  0  0.986019  0  0  0.128446  0  1.047167  0  0  0.131636  0  1.046351  0  0.148681  0  0.11062  0.126113  0  1.047918  0
H  H53  1  0.25262723  0.67533700  0.61890518  1  0  0.120127  0  0.986111  0  0  0.128443  0  1.047211  0  0  0.131636  0  1.046389  0  0.14867  0  0.110602  0.12611  0  1.047965  0
H  H54  1  0.28214012  0.36595075  0.42343801  1  0  0.138876  0  0.963647  0  0  0.147077  0  1.023018  0  0  0.151598  0  1.020096  0  0.188362  0  0.114392  0.143758  0  1.025336  0
H  H55  1  0.71786639  0.63404486  0.57656483  1  0  0.138871  0  0.963662  0  0  0.147059  0  1.023053  0  0  0.151583  0  1.020124  0  0.188328  0  0.114317  0.14371  0  1.025408  0
H  H56  1  0.26245211  0.26246736  0.54878597  1  0  0.091567  0  0.93594  0  0  0.099793  0  0.999671  0  0  0.102388  0  0.99672  0  0.128714  0  0.115317  0.097815  0  1.001893  0
H  H57  1  0.73754934  0.73752747  0.45121710  1  0  0.091634  0  0.935826  0  0  0.099822  0  0.999584  0  0  0.102414  0  0.996632  0  0.129094  0  0.115313  0.097845  0  1.001805  0
C  C58  1  0.40343231  0.45872616  0.09556411  1  0  -0.03364  0  3.678985  0  0  -0.087548  0  3.934603  0  0  -0.085131  0  3.947968  0  0.294019  0  -0.07348  -0.088966  0  3.925176  0
C  C59  1  0.59656678  0.54127409  0.90443518  1  0  -0.033455  0  3.678746  0  0  -0.087393  0  3.934439  0  0  -0.085006  0  3.947825  0  0.293909  0  -0.073452  -0.088794  0  3.925019  0
C  C60  1  0.53380385  0.44401710  0.17353711  1  0  0.044218  0  3.657298  0  0  -0.023245  0  3.929685  0  0  -0.017498  0  3.939795  0  0.304125  0  -0.061688  -0.027007  0  3.922681  0
C  C61  1  0.46619581  0.55598547  0.82646137  1  0  0.043953  0  3.657493  0  0  -0.023489  0  3.929938  0  0  -0.017741  0  3.940045  0  0.304145  0  -0.061806  -0.027257  0  3.92294  0
C  C62  1  0.10980907  0.40473439  0.04051774  1  0  -0.025743  0  3.686496  0  0  -0.080519  0  3.948483  0  0  -0.077719  0  3.959929  0  0.300178  0  -0.070304  -0.08228  0  3.940524  0
C  C63  1  0.89018909  0.59526199  0.95947768  1  0  -0.025753  0  3.686252  0  0  -0.080516  0  3.948273  0  0  -0.077721  0  3.959687  0  0.300631  0  -0.070289  -0.082252  0  3.940319  0
C  C64  1  0.10889218  0.28974374  0.99484466  1  0  0.042438  0  3.672385  0  0  -0.02299  0  3.937417  0  0  -0.016618  0  3.948564  0  0.298006  0  -0.066477  -0.027171  0  3.929663  0
C  C65  1  0.89110757  0.71025419  0.00515480  1  0  0.042348  0  3.672194  0  0  -0.023077  0  3.937214  0  0  -0.016711  0  3.948364  0  0.297794  0  -0.066528  -0.027258  0  3.929454  0
C  C66  1  0.21291223  0.55171126  0.18481959  1  0  -0.035742  0  3.705139  0  0  -0.089797  0  3.96518  0  0  -0.087572  0  3.979064  0  0.299875  0  -0.07685  -0.091094  0  3.955426  0
C  C67  1  0.78708424  0.44828822  0.81517936  1  0  -0.035886  0  3.705253  0  0  -0.089878  0  3.965209  0  0  -0.087653  0  3.979069  0  0.299853  0  -0.076888  -0.091157  0  3.955462  0
C  C68  1  0.06857702  0.55217164  0.24496842  1  0  0.037492  0  3.657092  0  0  -0.025719  0  3.924637  0  0  -0.020014  0  3.934671  0  0.286345  0  -0.065339  -0.02941  0  3.917603  0
C  C69  1  0.93142340  0.44782397  0.75503121  1  0  0.037283  0  3.657256  0  0  -0.025889  0  3.924773  0  0  -0.02019  0  3.934799  0  0.286263  0  -0.06544  -0.029578  0  3.917749  0
C  C70  1  0.57311567  0.02291395  0.15675008  1  0  0.109497  0  3.682104  0  0  0.078816  0  3.930647  0  0  0.086064  0  3.947898  0  0.477069  0  0.043463  0.074135  0  3.918896  0
C  C71  1  0.42688380  0.97708785  0.84324820  1  0  0.109698  0  3.681966  0  0  0.078961  0  3.930585  0  0  0.086202  0  3.947833  0  0.477332  0  0.043566  0.074283  0  3.918837  0
C  C72  1  0.56115574  0.12505874  0.15908778  1  0  -0.117624  0  3.683619  0  0  -0.138273  0  3.931077  0  0  -0.143352  0  3.950027  0  -0.066272  0  -0.076585  -0.134974  0  3.918447  0
C  C73  1  0.43884513  0.87494383  0.84091149  1  0  -0.117792  0  3.683629  0  0  -0.138365  0  3.931166  0  0  -0.143441  0  3.950115  0  -0.066425  0  -0.076685  -0.135059  0  3.918514  0
C  C74  1  0.50991161  0.18948613  0.24255892  1  0  0.004041  0  3.721682  0  0  0.020456  0  3.958765  0  0  0.020011  0  3.978779  0  -0.027704  0  0.008178  0.020768  0  3.945228  0
C  C75  1  0.49008786  0.81051567  0.75744007  1  0  0.004081  0  3.72165  0  0  0.020309  0  3.958988  0  0  0.019864  0  3.979005  0  -0.027686  0  0.008158  0.020624  0  3.945454  0
C  C76  1  0.47152872  0.14731345  0.32044162  1  0  -0.12447  0  3.696725  0  0  -0.144722  0  3.942493  0  0  -0.151207  0  3.964089  0  -0.057299  0  -0.078094  -0.140481  0  3.928018  0
C  C77  1  0.52847300  0.85268758  0.67955731  1  0  -0.124376  0  3.696536  0  0  -0.14458  0  3.942355  0  0  -0.151067  0  3.963955  0  -0.057316  0  -0.078036  -0.140338  0  3.927876  0
C  C78  1  0.48546329  0.04431288  0.31304218  1  0  0.12215  0  3.696246  0  0  0.090449  0  3.948266  0  0  0.097847  0  3.967083  0  0.494384  0  0.043189  0.085554  0  3.935567  0
C  C79  1  0.51453581  0.95568737  0.68695426  1  0  0.122073  0  3.696197  0  0  0.090384  0  3.948195  0  0  0.097783  0  3.967019  0  0.494331  0  0.04314  0.085487  0  3.935499  0
C  C80  1  0.50294630  0.30309254  0.25537042  1  0  0.521253  0  3.864351  0  0  0.471747  0  4.159987  0  0  0.500787  0  4.158178  0  1.422965  0  0.234532  0.452284  0  4.160477  0
C  C81  1  0.49705682  0.69690926  0.74463021  1  0  0.521296  0  3.864585  0  0  0.471837  0  4.16027  0  0  0.500878  0  4.15846  0  1.422579  0  0.234576  0.452373  0  4.16076  0
C  C82  1  0.12379117  0.93084832  0.19034210  1  0  0.128354  0  3.671489  0  0  0.093065  0  3.923447  0  0  0.101101  0  3.941976  0  0.460242  0  0.046381  0.087767  0  3.911037  0
C  C83  1  0.87620689  0.06915270  0.80965733  1  0  0.128431  0  3.671579  0  0  0.093099  0  3.923533  0  0  0.101136  0  3.94206  0  0.460417  0  0.046397  0.087799  0  3.911125  0
C  C84  1  0.15471595  0.98744068  0.12277935  1  0  -0.103467  0  3.685861  0  0  -0.125889  0  3.933159  0  0  -0.131436  0  3.953002  0  0.00046  0  -0.072069  -0.122365  0  3.920145  0
C  C85  1  0.84528004  0.01256189  0.87722106  1  0  -0.103493  0  3.685881  0  0  -0.125888  0  3.933214  0  0  -0.131415  0  3.953081  0  0.000317  0  -0.072092  -0.122372  0  3.920202  0
C  C86  1  0.09253559  0.08058027  0.13157886  1  0  0.01592  0  3.700508  0  0  0.03607  0  3.930052  0  0  0.036359  0  3.948422  0  0.017225  0  0.014206  0.035709  0  3.917894  0
C  C87  1  0.90746107  0.91941998  0.86841958  1  0  0.016038  0  3.700265  0  0  0.036089  0  3.929942  0  0  0.036315  0  3.948393  0  0.017424  0  0.014224  0.035743  0  3.917766  0
C  C88  1  0.99489755  0.11150489  0.20731483  1  0  -0.12879  0  3.687435  0  0  -0.149914  0  3.933092  0  0  -0.15608  0  3.953348  0  -0.072876  0  -0.07967  -0.145901  0  3.919697  0
C  C89  1  0.00510070  0.88849690  0.79268624  1  0  -0.128811  0  3.687507  0  0  -0.149943  0  3.933203  0  0  -0.15609  0  3.953477  0  -0.072896  0  -0.079705  -0.145934  0  3.919805  0
C  C90  1  0.96817226  0.05085265  0.27222681  1  0  0.12839  0  3.673139  0  0  0.094813  0  3.923625  0  0  0.102184  0  3.943562  0  0.490813  0  0.045643  0.089983  0  3.91016  0
C  C91  1  0.03182806  0.94914760  0.72777398  1  0  0.12834  0  3.673225  0  0  0.094725  0  3.923708  0  0  0.102097  0  3.943642  0  0.490781  0  0.045619  0.089896  0  3.910245  0
C  C92  1  0.13494242  0.13993106  0.05755457  1  0  0.515759  0  3.865817  0  0  0.46703  0  4.154947  0  0  0.495277  0  4.155244  0  1.424383  0  0.232266  0.448162  0  4.153978  0
C  C93  1  0.86504259  0.86007151  0.94244523  1  0  0.51589  0  3.865589  0  0  0.467176  0  4.154769  0  0  0.495444  0  4.155058  0  1.424723  0  0.232277  0.448301  0  4.153804  0
C  C94  1  0.86491526  0.25376186  0.48364314  1  0  0.11121  0  3.698314  0  0  0.078022  0  3.946203  0  0  0.085965  0  3.963861  0  0.407295  0  0.039398  0.072709  0  3.934538  0
C  C95  1  0.13508909  0.74623994  0.51636184  1  0  0.111244  0  3.698063  0  0  0.078136  0  3.94594  0  0  0.086078  0  3.963597  0  0.407358  0  0.039436  0.072825  0  3.934279  0
C  C96  1  0.86421395  0.31208820  0.41583065  1  0  -0.140657  0  3.709891  0  0  -0.160086  0  3.955707  0  0  -0.166085  0  3.974647  0  -0.000655  0  -0.081755  -0.156324  0  3.943321  0
C  C97  1  0.13579283  0.68791360  0.58417589  1  0  -0.140626  0  3.709753  0  0  -0.16007  0  3.95559  0  0  -0.166068  0  3.974528  0  -0.001268  0  -0.081724  -0.156311  0  3.943211  0
C  C98  1  0.01465332  0.35280235  0.39194680  1  0  0.011622  0  3.741566  0  0  0.02564  0  3.984129  0  0  0.026668  0  4.0024  0  -0.081609  0  0.011458  0.024951  0  3.971876  0
C  C99  1  0.98535468  0.64719944  0.60806053  1  0  0.011721  0  3.741516  0  0  0.025628  0  3.984236  0  0  0.026653  0  4.00251  0  -0.079646  0  0.011435  0.024935  0  3.971969  0
C  C100  1  0.16183024  0.33783176  0.44121398  1  0  -0.142973  0  3.666191  0  0  -0.161472  0  3.908797  0  0  -0.167773  0  3.927377  0  -0.042351  0  -0.077649  -0.157522  0  3.896585  0
C  C101  1  0.83817683  0.66216617  0.55879090  1  0  -0.143096  0  3.666501  0  0  -0.161558  0  3.909101  0  0  -0.16786  0  3.927682  0  -0.043809  0  -0.077654  -0.157585  0  3.896909  0
C  C102  1  0.15251343  0.27880363  0.50935638  1  0  0.138171  0  3.665176  0  0  0.103994  0  3.912899  0  0  0.112807  0  3.930301  0  0.472864  0  0.054464  0.098191  0  3.901272  0
C  C103  1  0.84748840  0.72119275  0.49064781  1  0  0.13817  0  3.6653  0  0  0.104087  0  3.912995  0  0  0.112907  0  3.930388  0  0.472598  0  0.054568  0.098283  0  3.901364  0
C  C104  1  0.00428713  0.40022882  0.30628203  1  0  0.538688  0  3.840003  0  0  0.487923  0  4.133927  0  0  0.517096  0  4.131279  0  1.417172  0  0.247971  0.468262  0  4.135088  0
C  C105  1  0.99571854  0.59976833  0.69372115  1  0  0.538778  0  3.839847  0  0  0.48806  0  4.133783  0  0  0.51723  0  4.131133  0  1.417223  0  0.248056  0.468427  0  4.134906  0
N  N106  1  0.23791232  0.45008952  0.12558874  1  0  -0.223554  0  3.209136  0  0  -0.149165  0  3.470031  0  0  -0.163546  0  3.490229  0  -1.036421  0  -0.349658  -0.138899  0  3.455628  0
N  N107  1  0.76208725  0.54990764  0.87440838  1  0  -0.223409  0  3.209046  0  0  -0.149083  0  3.47001  0  0  -0.163404  0  3.490129  0  -1.036456  0  -0.349613  -0.13888  0  3.455672  0
N  N108  1  0.51947013  0.33644752  0.17421198  1  0  -0.389151  0  3.347674  0  0  -0.331961  0  3.598939  0  0  -0.353972  0  3.610284  0  -1.225572  0  -0.413064  -0.316968  0  3.590775  0
N  N109  1  0.48053055  0.66355428  0.82578708  1  0  -0.388937  0  3.347937  0  0  -0.331829  0  3.59919  0  0  -0.353839  0  3.61054  0  -1.225628  0  -0.412996  -0.316838  0  3.591027  0
N  N110  1  0.07495393  0.22930041  0.06454812  1  0  -0.407488  0  3.317879  0  0  -0.348681  0  3.571209  0  0  -0.371269  0  3.58172  0  -1.245762  0  -0.414344  -0.33318  0  3.563465  0
N  N111  1  0.92504582  0.77069752  0.93544992  1  0  -0.407685  0  3.317563  0  0  -0.348857  0  3.570836  0  0  -0.371459  0  3.581364  0  -1.245289  0  -0.414384  -0.333351  0  3.563091  0
N  N112  1  0.08369940  0.49640952  0.32066137  1  0  -0.384222  0  3.308824  0  0  -0.332265  0  3.563206  0  0  -0.352983  0  3.57275  0  -1.228056  0  -0.404549  -0.318168  0  3.556259  0
N  N113  1  0.91630664  0.50358918  0.67934150  1  0  -0.384138  0  3.308764  0  0  -0.3322  0  3.563142  0  0  -0.352909  0  3.57268  0  -1.228238  0  -0.404437  -0.318125  0  3.556194  0
N  N114  1  0.53653216  0.98395337  0.23254786  1  0  -0.288513  0  3.318939  0  0  -0.201484  0  3.579352  0  0  -0.223893  0  3.603081  0  -1.20901  0  -0.307629  -0.186243  0  3.562798  0
N  N115  1  0.46346712  0.01604765  0.76744879  1  0  -0.288573  0  3.318825  0  0  -0.201522  0  3.579259  0  0  -0.223934  0  3.602991  0  -1.209006  0  -0.307656  -0.186282  0  3.562704  0
N  N116  1  0.03331780  0.96299083  0.26426447  1  0  -0.261286  0  3.322587  0  0  -0.165333  0  3.573825  0  0  -0.189017  0  3.598329  0  -1.199964  0  -0.301418  -0.149511  0  3.556949  0
N  N117  1  0.96668129  0.03700942  0.73573626  1  0  -0.261246  0  3.322576  0  0  -0.165268  0  3.573816  0  0  -0.18895  0  3.598319  0  -1.199956  0  -0.3014  -0.149448  0  3.556943  0
N  N118  1  0.00705336  0.23685843  0.52852278  1  0  -0.27108  0  3.333845  0  0  -0.176578  0  3.582829  0  0  -0.199923  0  3.607528  0  -1.186981  0  -0.30526  -0.161092  0  3.566027  0
N  N119  1  0.99294761  0.76313950  0.47148175  1  0  -0.271191  0  3.334029  0  0  -0.176815  0  3.583116  0  0  -0.200159  0  3.607813  0  -1.186686  0  -0.305364  -0.16133  0  3.566319  0
Cl  Cl120  1  0.76913572  0.97387987  0.46922489  1  0  -0.536107  0  0.937881  0  0  -0.490578  0  1.221689  0  0  -0.511891  0  1.203769  0  -0.584367  0  -0.309914  -0.475167  0  1.233528  0
Cl  Cl121  1  0.23086563  0.02611961  0.53077648  1  0  -0.536105  0  0.937918  0  0  -0.490573  0  1.221728  0  0  -0.511886  0  1.203807  0  -0.584337  0  -0.309908  -0.475163  0  1.233567  0
Cl  Cl122  1  0.32263569  0.79856736  0.33674195  1  0  -0.550155  0  0.992192  0  0  -0.496393  0  1.281685  0  0  -0.515147  0  1.260107  0  -0.595068  0  -0.299066  -0.48284  0  1.29621  0
Cl  Cl123  1  0.67736425  0.20143134  0.66325701  1  0  -0.550142  0  0.992201  0  0  -0.496397  0  1.281719  0  0  -0.515153  0  1.260137  0  -0.59503  0  -0.299061  -0.48284  0  1.296244  0
Cl  Cl124  1  0.75743735  0.71244082  0.23858556  1  0  -0.475707  0  1.019093  0  0  -0.415947  0  1.31942  0  0  -0.435058  0  1.299314  0  -0.512206  0  -0.255714  -0.402652  0  1.33295  0
Cl  Cl125  1  0.24256474  0.28756175  0.76141663  1  0  -0.475709  0  1.019106  0  0  -0.415947  0  1.319428  0  0  -0.435056  0  1.29932  0  -0.512221  0  -0.255705  -0.40265  0  1.332957  0
Cl  Cl126  1  0.35392327  0.75105965  0.04136828  1  0  -0.526426  0  0.878524  0  0  -0.466379  0  1.139344  0  0  -0.482063  0  1.119852  0  -0.601677  0  -0.285258  -0.455388  0  1.152737  0
Cl  Cl127  1  0.64607742  0.24894215  0.95863150  1  0  -0.52647  0  0.878516  0  0  -0.466414  0  1.139327  0  0  -0.482098  0  1.119827  0  -0.60166  0  -0.285278  -0.455422  0  1.15272  0
O  O128  1  0.48881347  0.36032943  0.33917233  1  0  -0.573893  0  1.892268  0  0  -0.536413  0  2.107462  0  0  -0.555753  0  2.0986  0  -1.16998  0  -0.32311  -0.522868  0  2.11313  0
O  O129  1  0.51118825  0.63967159  0.66082660  1  0  -0.573923  0  1.892293  0  0  -0.536425  0  2.107479  0  0  -0.555767  0  2.098616  0  -1.169585  0  -0.323114  -0.522873  0  2.113142  0
O  O130  1  0.22231719  0.10437398  0.99261772  1  0  -0.563568  0  1.94788  0  0  -0.523957  0  2.181209  0  0  -0.545716  0  2.177237  0  -1.161095  0  -0.309022  -0.508766  0  2.18347  0
O  O131  1  0.77766193  0.89561931  0.00736799  1  0  -0.563518  0  1.948154  0  0  -0.523922  0  2.181516  0  0  -0.545671  0  2.177527  0  -1.161756  0  -0.308971  -0.508738  0  2.183786  0
O  O132  1  0.91604748  0.34923303  0.22697036  1  0  -0.547336  0  1.934805  0  0  -0.497562  0  2.152687  0  0  -0.518863  0  2.1467  0  -1.150335  0  -0.290334  -0.482538  0  2.156289  0
O  O133  1  0.08395312  0.65076335  0.77303733  1  0  -0.547397  0  1.934773  0  0  -0.497648  0  2.152679  0  0  -0.518952  0  2.146691  0  -1.15048  0  -0.290355  -0.48263  0  2.156268  0
