# generated using pymatgen
data_BaP2H15C6N(ClO4)2
_symmetry_space_group_name_H-M   'P 1'
_cell_length_a   6.14636167
_cell_length_b   8.58090746
_cell_length_c   28.86640000
_cell_angle_alpha   98.39458051
_cell_angle_beta   90.00000000
_cell_angle_gamma   90.00000000
_symmetry_Int_Tables_number   1
_chemical_formula_structural   BaP2H15C6N(ClO4)2
_chemical_formula_sum   'Ba4 P8 H60 C24 N4 Cl8 O32'
_cell_volume   1506.14187379
_cell_formula_units_Z   4
loop_
 _symmetry_equiv_pos_site_id
 _symmetry_equiv_pos_as_xyz
  1  'x, y, z'
loop_
 _atom_site_type_symbol
 _atom_site_label
 _atom_site_symmetry_multiplicity
 _atom_site_fract_x
 _atom_site_fract_y
 _atom_site_fract_z
 _atom_site_occupancy
 _atom_site_hle17_bader_spin_density
 _atom_site_hle17_ddec_charge
 _atom_site_hle17_ddec_spin_density
 _atom_site_hle17_ddec_sum_bond_order
 _atom_site_hle17_magmom
 _atom_site_hse06_10hf_bader_spin_density
 _atom_site_hse06_10hf_ddec_charge
 _atom_site_hse06_10hf_ddec_spin_density
 _atom_site_hse06_10hf_ddec_sum_bond_order
 _atom_site_hse06_10hf_magmom
 _atom_site_hse06_bader_spin_density
 _atom_site_hse06_ddec_charge
 _atom_site_hse06_ddec_spin_density
 _atom_site_hse06_ddec_sum_bond_order
 _atom_site_hse06_magmom
 _atom_site_pbe_bader_charge
 _atom_site_pbe_bader_spin_density
 _atom_site_pbe_cm5_charge
 _atom_site_pbe_ddec_charge
 _atom_site_pbe_ddec_spin_density
 _atom_site_pbe_ddec_sum_bond_order
 _atom_site_pbe_magmom
Ba  Ba0  1  0.82233039  0.83352251  0.95283035  1  0  1.681588  0  1.175245  0  0  1.543155  0  1.573304  0  0  1.579276  0  1.531577  0  1.691713  0  0.971114  1.51647  0  1.603145  0
Ba  Ba1  1  0.32233053  0.66647992  0.54716986  1  0  1.681582  0  1.17528  0  0  1.543178  0  1.573278  0  0  1.579299  0  1.531552  0  1.691718  0  0.971123  1.516493  0  1.603117  0
Ba  Ba2  1  0.17766771  0.16647833  0.04716976  1  0  1.681577  0  1.17527  0  0  1.54314  0  1.573319  0  0  1.579261  0  1.531592  0  1.691729  0  0.971103  1.516454  0  1.603161  0
Ba  Ba3  1  0.67767083  0.33352327  0.45283035  1  0  1.681586  0  1.175271  0  0  1.54315  0  1.573309  0  0  1.579276  0  1.531585  0  1.691731  0  0.971115  1.516465  0  1.60315  0
P  P4  1  0.34106031  0.10340120  0.92594445  1  0  1.381729  0  4.904229  0  0  1.217928  0  5.409711  0  0  1.269174  0  5.371439  0  3.318993  0  0.355033  1.182495  0  5.435032  0
P  P5  1  0.84105204  0.39660275  0.57405437  1  0  1.38179  0  4.904079  0  0  1.218034  0  5.409558  0  0  1.269265  0  5.371249  0  3.319082  0  0.355107  1.182598  0  5.434893  0
P  P6  1  0.65893617  0.89659728  0.07405520  1  0  1.381679  0  4.904327  0  0  1.217875  0  5.409839  0  0  1.26913  0  5.371529  0  3.318911  0  0.355051  1.182442  0  5.435161  0
P  P7  1  0.15894281  0.60340162  0.42594485  1  0  1.381695  0  4.904226  0  0  1.217941  0  5.409687  0  0  1.269148  0  5.37144  0  3.318991  0  0.355093  1.182509  0  5.435005  0
P  P8  1  0.30646098  0.75936160  0.87232419  1  0  1.288713  0  4.966137  0  0  1.123051  0  5.463818  0  0  1.169879  0  5.436465  0  3.295995  0  0.361111  1.090683  0  5.481589  0
P  P9  1  0.80646735  0.74064084  0.62767567  1  0  1.288778  0  4.966189  0  0  1.123126  0  5.463877  0  0  1.169954  0  5.436521  0  3.295987  0  0.361094  1.090757  0  5.481652  0
P  P10  1  0.69353550  0.24063689  0.12767616  1  0  1.28863  0  4.966265  0  0  1.122957  0  5.463959  0  0  1.169783  0  5.436608  0  3.295996  0  0.361066  1.09059  0  5.481726  0
P  P11  1  0.19354051  0.25936118  0.37232448  1  0  1.288794  0  4.966052  0  0  1.123138  0  5.463735  0  0  1.169965  0  5.436379  0  3.296021  0  0.361136  1.090773  0  5.481497  0
H  H12  1  0.74378474  0.45058337  0.98429751  1  0  0.428947  0  0.874633  0  0  0.399504  0  0.935623  0  0  0.41024  0  0.919996  0  0.633182  0  0.293448  0.391898  0  0.946692  0
H  H13  1  0.24378650  0.04941941  0.51570264  1  0  0.428941  0  0.874635  0  0  0.399493  0  0.935635  0  0  0.410228  0  0.920008  0  0.633168  0  0.293445  0.391888  0  0.946701  0
H  H14  1  0.25621011  0.54942100  0.01570448  1  0  0.428907  0  0.874656  0  0  0.39943  0  0.935682  0  0  0.410167  0  0.920053  0  0.633112  0  0.293419  0.391827  0  0.946744  0
H  H15  1  0.75621323  0.95058261  0.48429717  1  0  0.42896  0  0.874608  0  0  0.399515  0  0.935602  0  0  0.41025  0  0.919975  0  0.633181  0  0.29346  0.39191  0  0.946668  0
H  H16  1  0.58461740  0.49395257  0.94568652  1  0  0.431735  0  0.835624  0  0  0.407075  0  0.899647  0  0  0.416328  0  0.885878  0  0.609189  0  0.313662  0.40047  0  0.90949  0
H  H17  1  0.08461429  0.00604667  0.55431245  1  0  0.431724  0  0.835647  0  0  0.407064  0  0.899668  0  0  0.416315  0  0.885902  0  0.609129  0  0.313635  0.400459  0  0.909512  0
H  H18  1  0.41538232  0.50605180  0.05431409  1  0  0.431709  0  0.835567  0  0  0.407055  0  0.899644  0  0  0.416306  0  0.885877  0  0.609123  0  0.313656  0.400453  0  0.909483  0
H  H19  1  0.91538382  0.99395417  0.44568697  1  0  0.431708  0  0.835669  0  0  0.407084  0  0.899615  0  0  0.416333  0  0.885853  0  0.609181  0  0.313686  0.400484  0  0.909448  0
H  H20  1  0.29208987  0.78202512  0.01246120  1  0  0.433738  0  0.867652  0  0  0.405852  0  0.925932  0  0  0.416312  0  0.910673  0  0.644525  0  0.308592  0.39842  0  0.936789  0
H  H21  1  0.79209136  0.71797732  0.48753935  1  0  0.433747  0  0.867638  0  0  0.40586  0  0.925918  0  0  0.416321  0  0.910657  0  0.644547  0  0.308599  0.398429  0  0.936774  0
H  H22  1  0.70790497  0.21797690  0.98753895  1  0  0.433724  0  0.86767  0  0  0.405839  0  0.925947  0  0  0.4163  0  0.910686  0  0.644535  0  0.308585  0.398408  0  0.936804  0
H  H23  1  0.20790023  0.28202587  0.51246120  1  0  0.433733  0  0.867655  0  0  0.405849  0  0.925934  0  0  0.416307  0  0.910674  0  0.644555  0  0.308566  0.398418  0  0.936794  0
H  H24  1  0.30044766  0.70297197  0.95995304  1  0  0.415618  0  0.897941  0  0  0.385647  0  0.961528  0  0  0.395921  0  0.946594  0  0.656561  0  0.302201  0.378393  0  0.972053  0
H  H25  1  0.80044915  0.79702929  0.54004712  1  0  0.415619  0  0.897938  0  0  0.385648  0  0.961524  0  0  0.395922  0  0.946591  0  0.656557  0  0.302196  0.378395  0  0.972047  0
H  H26  1  0.69954881  0.29703005  0.04004677  1  0  0.415637  0  0.897911  0  0  0.385669  0  0.961487  0  0  0.395943  0  0.946554  0  0.656559  0  0.302207  0.378416  0  0.972011  0
H  H27  1  0.19954895  0.20297037  0.45995328  1  0  0.415631  0  0.897929  0  0  0.385646  0  0.96154  0  0  0.395921  0  0.946607  0  0.656561  0  0.302178  0.378394  0  0.972062  0
H  H28  1  0.31831189  0.67807143  0.75288172  1  0  0.054082  0  0.934031  0  0  0.067418  0  1.008001  0  0  0.068235  0  1.006988  0  0.04101  0  0.091733  0.066753  0  1.008857  0
H  H29  1  0.81831989  0.82192865  0.74711838  1  0  0.054044  0  0.934064  0  0  0.067396  0  1.008024  0  0  0.068213  0  1.00701  0  0.041077  0  0.091725  0.066733  0  1.008879  0
H  H30  1  0.68168784  0.32192941  0.24711838  1  0  0.054076  0  0.934022  0  0  0.067418  0  1.007992  0  0  0.068234  0  1.006978  0  0.041009  0  0.091738  0.066754  0  1.008847  0
H  H31  1  0.18168797  0.17806748  0.25288221  1  0  0.054088  0  0.934065  0  0  0.06743  0  1.008034  0  0  0.068247  0  1.007022  0  0.041033  0  0.091737  0.066766  0  1.008889  0
H  H32  1  0.08647230  0.67945323  0.79031940  1  0  0.078218  0  0.940589  0  0  0.095037  0  1.005776  0  0  0.095787  0  1.005369  0  0.076042  0  0.108971  0.094415  0  1.006171  0
H  H33  1  0.58648355  0.82054568  0.70967996  1  0  0.078225  0  0.940609  0  0  0.095051  0  1.005791  0  0  0.095802  0  1.005382  0  0.076119  0  0.108971  0.094425  0  1.006193  0
H  H34  1  0.91352581  0.32054526  0.20967991  1  0  0.078183  0  0.940639  0  0  0.095018  0  1.005822  0  0  0.095769  0  1.005413  0  0.076049  0  0.108953  0.094393  0  1.006221  0
H  H35  1  0.41352431  0.17945281  0.29032039  1  0  0.078221  0  0.940617  0  0  0.095051  0  1.005811  0  0  0.095802  0  1.005402  0  0.076068  0  0.10897  0.094425  0  1.006212  0
H  H36  1  0.13496114  0.39548601  0.79470021  1  0  0.050003  0  0.929096  0  0  0.063284  0  0.997783  0  0  0.063928  0  0.996624  0  0.057318  0  0.094287  0.06273  0  0.998761  0
H  H37  1  0.63496914  0.10451206  0.70529905  1  0  0.049978  0  0.929108  0  0  0.063237  0  0.997846  0  0  0.063881  0  0.996685  0  0.057153  0  0.094275  0.062689  0  0.998826  0
H  H38  1  0.86503370  0.60451365  0.20529881  1  0  0.049991  0  0.929129  0  0  0.063293  0  0.997797  0  0  0.063938  0  0.996635  0  0.057331  0  0.094296  0.062739  0  0.998775  0
H  H39  1  0.36503709  0.89548643  0.29470234  1  0  0.049924  0  0.929112  0  0  0.063227  0  0.997776  0  0  0.06387  0  0.996618  0  0.057275  0  0.09427  0.062674  0  0.998758  0
H  H40  1  0.12729970  0.42342225  0.73453705  1  0  0.058302  0  0.966502  0  0  0.066944  0  1.041135  0  0  0.067021  0  1.041221  0  0.060912  0  0.09283  0.066895  0  1.041036  0
H  H41  1  0.62730770  0.07657817  0.76546196  1  0  0.05816  0  0.966419  0  0  0.066852  0  1.041044  0  0  0.066928  0  1.041128  0  0.060964  0  0.09275  0.066805  0  1.040951  0
H  H42  1  0.87270165  0.57657859  0.26546167  1  0  0.058232  0  0.966388  0  0  0.0669  0  1.041008  0  0  0.066979  0  1.041092  0  0.060968  0  0.092795  0.066853  0  1.040909  0
H  H43  1  0.37269854  0.92341796  0.23453898  1  0  0.058144  0  0.966411  0  0  0.066816  0  1.041039  0  0  0.066893  0  1.041123  0  0.061008  0  0.092756  0.066769  0  1.04094  0
H  H44  1  0.71805569  0.34060422  0.78983671  1  0  0.073807  0  0.940211  0  0  0.086913  0  1.003291  0  0  0.087545  0  1.002858  0  0.077912  0  0.105297  0.08635  0  1.003753  0
H  H45  1  0.21806722  0.15939266  0.71016423  1  0  0.073819  0  0.94035  0  0  0.086924  0  1.003416  0  0  0.087558  0  1.002985  0  0.077818  0  0.105292  0.086359  0  1.003874  0
H  H46  1  0.28194078  0.65939191  0.21016458  1  0  0.073825  0  0.940289  0  0  0.086925  0  1.003361  0  0  0.087558  0  1.002934  0  0.077888  0  0.105294  0.086358  0  1.003817  0
H  H47  1  0.78194227  0.84060464  0.28983746  1  0  0.073845  0  0.940238  0  0  0.086931  0  1.003304  0  0  0.087566  0  1.002872  0  0.077979  0  0.105282  0.086364  0  1.003764  0
H  H48  1  0.48526757  0.34362579  0.82758562  1  0  0.047892  0  0.944799  0  0  0.055714  0  1.022663  0  0  0.056559  0  1.021512  0  0.045339  0  0.088425  0.05503  0  1.02355  0
H  H49  1  0.98528533  0.15637345  0.67241369  1  0  0.047861  0  0.944834  0  0  0.055697  0  1.022676  0  0  0.056539  0  1.021531  0  0.045009  0  0.088417  0.055  0  1.023572  0
H  H50  1  0.51472402  0.65637270  0.17241473  1  0  0.047832  0  0.94495  0  0  0.055718  0  1.022725  0  0  0.056565  0  1.021573  0  0.04521  0  0.088428  0.055018  0  1.02362  0
H  H51  1  0.01472416  0.84362621  0.32758775  1  0  0.047945  0  0.944849  0  0  0.055727  0  1.022732  0  0  0.056573  0  1.02159  0  0.045229  0  0.088433  0.055054  0  1.023603  0
H  H52  1  0.68949896  0.59102321  0.84889795  1  0  0.085683  0  0.931058  0  0  0.106707  0  0.985777  0  0  0.10758  0  0.98555  0  0.117922  0  0.120633  0.105972  0  0.986089  0
H  H53  1  0.18950723  0.90897452  0.65110206  1  0  0.085686  0  0.931139  0  0  0.106723  0  0.985811  0  0  0.107595  0  0.985586  0  0.117852  0  0.120671  0.105992  0  0.986124  0
H  H54  1  0.31049588  0.40897410  0.15110235  1  0  0.085651  0  0.931064  0  0  0.106693  0  0.985744  0  0  0.107568  0  0.985517  0  0.117907  0  0.120655  0.105963  0  0.986057  0
H  H55  1  0.81049575  0.09102515  0.34889869  1  0  0.085722  0  0.931095  0  0  0.106766  0  0.985793  0  0  0.107637  0  0.985569  0  0.117861  0  0.120684  0.106038  0  0.986108  0
H  H56  1  0.69143181  0.62643268  0.78967402  1  0  0.054715  0  0.934772  0  0  0.068213  0  1.007638  0  0  0.068938  0  1.006839  0  0.023025  0  0.093766  0.067598  0  1.008338  0
H  H57  1  0.19144334  0.87356387  0.71032525  1  0  0.054705  0  0.934768  0  0  0.068165  0  1.007659  0  0  0.068891  0  1.006862  0  0.023152  0  0.093766  0.067547  0  1.008359  0
H  H58  1  0.30856466  0.37356227  0.21032618  1  0  0.054689  0  0.934733  0  0  0.068148  0  1.007635  0  0  0.068875  0  1.006838  0  0.023074  0  0.093744  0.067532  0  1.008336  0
H  H59  1  0.80856290  0.12643108  0.28967460  1  0  0.054689  0  0.934743  0  0  0.068201  0  1.007611  0  0  0.068926  0  1.00681  0  0.023228  0  0.093752  0.067585  0  1.008312  0
H  H60  1  0.99869001  0.26981121  0.89660569  1  0  0.087916  0  0.951156  0  0  0.100395  0  1.021664  0  0  0.101976  0  1.020006  0  0.076882  0  0.101813  0.099124  0  1.023038  0
H  H61  1  0.49868526  0.23019039  0.60339407  1  0  0.087853  0  0.951163  0  0  0.100335  0  1.021664  0  0  0.101917  0  1.020006  0  0.076852  0  0.101784  0.099065  0  1.023037  0
H  H62  1  0.00131297  0.73018728  0.10339293  1  0  0.087933  0  0.951174  0  0  0.100407  0  1.021684  0  0  0.101988  0  1.020026  0  0.076898  0  0.101807  0.099136  0  1.023057  0
H  H63  1  0.50131284  0.76981045  0.39660465  1  0  0.087869  0  0.951157  0  0  0.100353  0  1.021675  0  0  0.101934  0  1.02002  0  0.076861  0  0.101783  0.099083  0  1.023046  0
H  H64  1  0.15250486  0.42957965  0.87907165  1  0  0.094073  0  0.952369  0  0  0.107456  0  1.023854  0  0  0.109339  0  1.021742  0  0.05395  0  0.102262  0.105925  0  1.025555  0
H  H65  1  0.65250309  0.07042313  0.62092781  1  0  0.094081  0  0.952332  0  0  0.107441  0  1.023838  0  0  0.109321  0  1.021733  0  0.053998  0  0.102274  0.10591  0  1.02554  0
H  H66  1  0.84750138  0.57041766  0.12092657  1  0  0.094125  0  0.952385  0  0  0.107511  0  1.023843  0  0  0.109393  0  1.021734  0  0.054011  0  0.102299  0.105981  0  1.025544  0
H  H67  1  0.34749826  0.92957889  0.37907131  1  0  0.09411  0  0.95239  0  0  0.107522  0  1.02383  0  0  0.109404  0  1.021723  0  0.053939  0  0.102282  0.10599  0  1.025531  0
H  H68  1  0.08363810  0.42999431  0.93940198  1  0  0.093177  0  0.953775  0  0  0.113987  0  1.010974  0  0  0.115012  0  1.010649  0  0.066299  0  0.111081  0.11312  0  1.011383  0
H  H69  1  0.58363308  0.07000729  0.56059743  1  0  0.093124  0  0.953753  0  0  0.11393  0  1.010956  0  0  0.114955  0  1.010633  0  0.066313  0  0.111048  0.113065  0  1.011363  0
H  H70  1  0.91636326  0.57000653  0.06059639  1  0  0.093203  0  0.953739  0  0  0.114008  0  1.010943  0  0  0.115033  0  1.010618  0  0.066291  0  0.111045  0.11314  0  1.011356  0
H  H71  1  0.41636502  0.92999237  0.43940124  1  0  0.093133  0  0.953811  0  0  0.113985  0  1.010957  0  0  0.11501  0  1.010637  0  0.066323  0  0.111071  0.113118  0  1.011367  0
C  C72  1  0.37264159  0.97162167  0.86848938  1  0  -0.318823  0  3.527969  0  0  -0.274787  0  3.804548  0  0  -0.280923  0  3.807512  0  -0.605862  0  0.033946  -0.271034  0  3.803076  0
C  C73  1  0.87263983  0.52837959  0.63150870  1  0  -0.318848  0  3.527878  0  0  -0.274824  0  3.80447  0  0  -0.280957  0  3.807436  0  -0.605876  0  0.033981  -0.271071  0  3.802995  0
C  C74  1  0.62736139  0.02837564  0.13151057  1  0  -0.318818  0  3.527958  0  0  -0.27479  0  3.804559  0  0  -0.280926  0  3.807526  0  -0.605893  0  0.033894  -0.271038  0  3.803084  0
C  C75  1  0.12736641  0.47162125  0.36849002  1  0  -0.318792  0  3.527896  0  0  -0.274762  0  3.804469  0  0  -0.280897  0  3.807434  0  -0.605928  0  0.033939  -0.271009  0  3.802995  0
C  C76  1  0.24549157  0.62470220  0.78183383  1  0  0.004099  0  3.685858  0  0  -0.063823  0  3.952025  0  0  -0.059667  0  3.963249  0  0.279622  0  -0.068472  -0.066513  0  3.944234  0
C  C77  1  0.74549957  0.87529789  0.71816627  1  0  0.00409  0  3.685874  0  0  -0.063832  0  3.952055  0  0  -0.059677  0  3.963277  0  0.279311  0  -0.06845  -0.066517  0  3.944266  0
C  C78  1  0.75450815  0.37529864  0.21816593  1  0  0.004177  0  3.685853  0  0  -0.063773  0  3.952039  0  0  -0.059616  0  3.96326  0  0.279633  0  -0.068428  -0.06646  0  3.944247  0
C  C79  1  0.25450666  0.12470060  0.28183373  1  0  0.004084  0  3.685836  0  0  -0.063871  0  3.952041  0  0  -0.059716  0  3.963264  0  0.279318  0  -0.068436  -0.06656  0  3.944249  0
C  C80  1  0.22063622  0.44828981  0.76710059  1  0  0.054145  0  3.650294  0  0  -0.002441  0  3.922637  0  0  0.004454  0  3.928166  0  0.417927  0  -0.080558  -0.007057  0  3.918623  0
C  C81  1  0.72064259  0.05171061  0.73289842  1  0  0.054396  0  3.650034  0  0  -0.002242  0  3.922391  0  0  0.004647  0  3.927931  0  0.41815  0  -0.080468  -0.00687  0  3.918387  0
C  C82  1  0.77936351  0.55170986  0.23289842  1  0  0.054202  0  3.650182  0  0  -0.0024  0  3.922509  0  0  0.004494  0  3.928042  0  0.417885  0  -0.080559  -0.007015  0  3.91849  0
C  C83  1  0.27936202  0.94828787  0.26710262  1  0  0.054473  0  3.650005  0  0  -0.002099  0  3.922302  0  0  0.004797  0  3.927825  0  0.417984  0  -0.080436  -0.006716  0  3.918283  0
C  C84  1  0.56234732  0.39925207  0.79946934  1  0  0.05013  0  3.631349  0  0  -0.003193  0  3.899214  0  0  0.002956  0  3.905458  0  0.404427  0  -0.077589  -0.007337  0  3.894898  0
C  C85  1  0.06236047  0.10074717  0.70053031  1  0  0.050096  0  3.631595  0  0  -0.003233  0  3.899403  0  0  0.002906  0  3.905659  0  0.404796  0  -0.07761  -0.00736  0  3.895073  0
C  C86  1  0.43764753  0.60074641  0.20053135  1  0  0.050075  0  3.631682  0  0  -0.003261  0  3.899501  0  0  0.002881  0  3.90576  0  0.404603  0  -0.077587  -0.007374  0  3.895158  0
C  C87  1  0.93764902  0.89925014  0.29947103  1  0  0.049959  0  3.631534  0  0  -0.003239  0  3.899273  0  0  0.00289  0  3.905536  0  0.404389  0  -0.077555  -0.007368  0  3.89492  0
C  C88  1  0.59699546  0.57426971  0.81609346  1  0  0.010992  0  3.66904  0  0  -0.055389  0  3.931998  0  0  -0.050963  0  3.942715  0  0.281927  0  -0.062754  -0.058293  0  3.924572  0
C  C89  1  0.09700536  0.92572684  0.68390580  1  0  0.011045  0  3.66914  0  0  -0.055287  0  3.932067  0  0  -0.05086  0  3.942792  0  0.281871  0  -0.062733  -0.058189  0  3.92463  0
C  C90  1  0.40300264  0.42572759  0.18390684  1  0  0.011148  0  3.669009  0  0  -0.055211  0  3.931974  0  0  -0.050786  0  3.942699  0  0.281835  0  -0.062706  -0.058121  0  3.924537  0
C  C91  1  0.90300251  0.07427165  0.31609490  1  0  0.01105  0  3.669032  0  0  -0.055403  0  3.932068  0  0  -0.050966  0  3.942778  0  0.281745  0  -0.062752  -0.058325  0  3.924653  0
C  C92  1  0.12797002  0.35612436  0.90662067  1  0  -0.036039  0  3.581905  0  0  -0.134509  0  3.846403  0  0  -0.127137  0  3.847037  0  0.36991  0  -0.131944  -0.139303  0  3.84611  0
C  C93  1  0.62796663  0.14387842  0.59337880  1  0  -0.035925  0  3.581795  0  0  -0.134328  0  3.84629  0  0  -0.12698  0  3.846921  0  0.369854  0  -0.131859  -0.139122  0  3.845992  0
C  C94  1  0.87203297  0.64387531  0.09337800  1  0  -0.036133  0  3.581908  0  0  -0.134586  0  3.846401  0  0  -0.127223  0  3.847044  0  0.369874  0  -0.131922  -0.139382  0  3.846105  0
C  C95  1  0.37203473  0.85612360  0.40661998  1  0  -0.036033  0  3.581855  0  0  -0.134527  0  3.846373  0  0  -0.127174  0  3.846978  0  0.369861  0  -0.131922  -0.139327  0  3.846094  0
N  N96  1  0.38601210  0.65320270  0.82308952  1  0  -0.447407  0  3.375833  0  0  -0.345644  0  3.637626  0  0  -0.366896  0  3.651646  0  -1.485742  0  -0.331847  -0.330804  0  3.62744  0
N  N97  1  0.88602173  0.84679620  0.67691019  1  0  -0.447421  0  3.376073  0  0  -0.34571  0  3.63792  0  0  -0.366962  0  3.651942  0  -1.485681  0  -0.331865  -0.330874  0  3.627731  0
N  N98  1  0.61398437  0.34679696  0.17691019  1  0  -0.447417  0  3.375848  0  0  -0.345684  0  3.637699  0  0  -0.366932  0  3.651718  0  -1.485774  0  -0.331871  -0.330847  0  3.627516  0
N  N99  1  0.11398288  0.15320228  0.32309016  1  0  -0.447403  0  3.375771  0  0  -0.345685  0  3.637683  0  0  -0.366937  0  3.651699  0  -1.485524  0  -0.331877  -0.330845  0  3.627501  0
Cl  Cl100  1  0.65393158  0.98068048  0.85152392  1  0  -0.060105  0  1.437946  0  0  -0.04179  0  1.690567  0  0  -0.043675  0  1.682492  0  -0.206144  0  0.045893  -0.041357  0  1.697087  0
Cl  Cl101  1  0.15393334  0.51931724  0.64847262  1  0  -0.060124  0  1.437978  0  0  -0.041794  0  1.690575  0  0  -0.043683  0  1.682496  0  -0.206087  0  0.045876  -0.041358  0  1.697097  0
Cl  Cl102  1  0.34607303  0.01931918  0.14847683  1  0  -0.060135  0  1.437959  0  0  -0.041815  0  1.69058  0  0  -0.043702  0  1.682504  0  -0.20613  0  0.04589  -0.041381  0  1.697101  0
Cl  Cl103  1  0.84607615  0.48068006  0.35152421  1  0  -0.060123  0  1.437984  0  0  -0.041806  0  1.690598  0  0  -0.043691  0  1.682524  0  -0.206086  0  0.045883  -0.041374  0  1.697119  0
Cl  Cl104  1  0.20479107  0.03642608  0.82436126  1  0  -0.016283  0  1.402194  0  0  -0.005121  0  1.651634  0  0  -0.005276  0  1.642968  0  -0.17301  0  0.03068  -0.004881  0  1.658211  0
Cl  Cl105  1  0.70478931  0.46357434  0.67563741  1  0  -0.016305  0  1.402158  0  0  -0.005135  0  1.651587  0  0  -0.005286  0  1.642911  0  -0.173016  0  0.030662  -0.004899  0  1.658174  0
Cl  Cl106  1  0.79521191  0.96356769  0.17563716  1  0  -0.016285  0  1.402198  0  0  -0.005121  0  1.651646  0  0  -0.005277  0  1.64298  0  -0.173009  0  0.03067  -0.004882  0  1.658222  0
Cl  Cl107  1  0.29522018  0.53642650  0.32436269  1  0  -0.016357  0  1.402158  0  0  -0.005181  0  1.651582  0  0  -0.005342  0  1.642926  0  -0.172964  0  0.030636  -0.004942  0  1.658161  0
O  O108  1  0.70736970  0.53512245  0.96513246  1  0  -0.887462  0  1.779876  0  0  -0.832883  0  1.960002  0  0  -0.851687  0  1.92936  0  -1.262815  0  -0.639853  -0.819514  0  1.981565  0
O  O109  1  0.20736983  0.96487763  0.53486730  1  0  -0.887445  0  1.779907  0  0  -0.832856  0  1.960023  0  0  -0.851663  0  1.929385  0  -1.262746  0  -0.639821  -0.819487  0  1.981583  0
O  O110  1  0.29262678  0.46488428  0.03487136  1  0  -0.887395  0  1.779839  0  0  -0.832764  0  1.960086  0  0  -0.851567  0  1.929445  0  -1.262689  0  -0.639823  -0.819397  0  1.981647  0
O  O111  1  0.79262827  0.03512203  0.46513206  1  0  -0.887419  0  1.779887  0  0  -0.832856  0  1.96003  0  0  -0.85166  0  1.929389  0  -1.262789  0  -0.639881  -0.819488  0  1.981591  0
O  O112  1  0.20874626  0.70874299  0.98881426  1  0  -0.870639  0  1.831713  0  0  -0.810877  0  1.99964  0  0  -0.832593  0  1.970739  0  -1.315463  0  -0.591577  -0.79542  0  2.019832  0
O  O113  1  0.70874612  0.79125709  0.51118585  1  0  -0.870649  0  1.831696  0  0  -0.8109  0  1.999625  0  0  -0.832616  0  1.970722  0  -1.315479  0  -0.591583  -0.795442  0  2.019818  0
O  O114  1  0.79125022  0.29125903  0.01118555  1  0  -0.870638  0  1.831724  0  0  -0.810895  0  1.999662  0  0  -0.83261  0  1.97076  0  -1.315466  0  -0.591574  -0.795436  0  2.019857  0
O  O115  1  0.29125035  0.20874375  0.48881530  1  0  -0.870648  0  1.831712  0  0  -0.810908  0  1.999657  0  0  -0.832617  0  1.970759  0  -1.315489  0  -0.591531  -0.795453  0  2.019844  0
O  O116  1  0.42857712  0.37381554  0.75823473  1  0  -0.313399  0  2.213138  0  0  -0.246736  0  2.465824  0  0  -0.262995  0  2.467214  0  -1.034542  0  -0.239401  -0.235052  0  2.464479  0
O  O117  1  0.92858675  0.12618370  0.74176458  1  0  -0.313452  0  2.213181  0  0  -0.246752  0  2.465829  0  0  -0.263  0  2.467215  0  -1.034507  0  -0.239412  -0.235065  0  2.464482  0
O  O118  1  0.57142098  0.62618294  0.24176493  1  0  -0.313375  0  2.213174  0  0  -0.246749  0  2.465893  0  0  -0.263007  0  2.467287  0  -1.034538  0  -0.239405  -0.23507  0  2.464537  0
O  O119  1  0.07142111  0.87381243  0.25823636  1  0  -0.313437  0  2.21321  0  0  -0.246839  0  2.465874  0  0  -0.263089  0  2.467265  0  -1.034481  0  -0.239467  -0.235161  0  2.464528  0
O  O120  1  0.54626138  0.08951966  0.95401585  1  0  -0.890847  0  2.022027  0  0  -0.810662  0  2.277342  0  0  -0.837197  0  2.259028  0  -1.481269  0  -0.393213  -0.791746  0  2.289589  0
O  O121  1  0.04624362  0.41048547  0.54598059  1  0  -0.890819  0  2.022021  0  0  -0.810649  0  2.277315  0  0  -0.837179  0  2.259013  0  -1.481302  0  -0.39318  -0.791734  0  2.289558  0
O  O122  1  0.45373347  0.91048000  0.04598489  1  0  -0.890806  0  2.02216  0  0  -0.810619  0  2.277479  0  0  -0.837156  0  2.259168  0  -1.481209  0  -0.393178  -0.791703  0  2.289724  0
O  O123  1  0.95373984  0.58952126  0.45401561  1  0  -0.890789  0  2.022062  0  0  -0.810603  0  2.277359  0  0  -0.837139  0  2.259058  0  -1.481239  0  -0.393191  -0.791688  0  2.289604  0
O  O124  1  0.13007695  0.06420329  0.94876635  1  0  -0.91191  0  1.965527  0  0  -0.828219  0  2.229883  0  0  -0.855858  0  2.213254  0  -1.48895  0  -0.433372  -0.808415  0  2.240845  0
O  O125  1  0.63006380  0.43580066  0.55123455  1  0  -0.911974  0  1.965584  0  0  -0.828236  0  2.229839  0  0  -0.855916  0  2.213301  0  -1.489092  0  -0.433408  -0.808431  0  2.240798  0
O  O126  1  0.86991789  0.93579755  0.05123237  1  0  -0.911881  0  1.965497  0  0  -0.828187  0  2.229846  0  0  -0.85583  0  2.213226  0  -1.488946  0  -0.433387  -0.808383  0  2.240806  0
O  O127  1  0.36992454  0.56420371  0.44876675  1  0  -0.911907  0  1.965561  0  0  -0.828218  0  2.229893  0  0  -0.855862  0  2.213284  0  -1.488989  0  -0.433397  -0.808413  0  2.240852  0
O  O128  1  0.33463049  0.27904318  0.91297888  1  0  -0.471039  0  2.267949  0  0  -0.381642  0  2.525414  0  0  -0.401694  0  2.51602  0  -1.308167  0  -0.220966  -0.367748  0  2.531555  0
O  O129  1  0.83462384  0.22095959  0.58701954  1  0  -0.471051  0  2.267873  0  0  -0.381741  0  2.525379  0  0  -0.401738  0  2.515959  0  -1.30808  0  -0.221071  -0.367848  0  2.531521  0
O  O130  1  0.66537087  0.72095766  0.08702088  1  0  -0.471037  0  2.267981  0  0  -0.381658  0  2.52546  0  0  -0.401706  0  2.516066  0  -1.308175  0  -0.220993  -0.367765  0  2.531601  0
O  O131  1  0.16537426  0.77904242  0.41297819  1  0  -0.470981  0  2.267836  0  0  -0.381685  0  2.525387  0  0  -0.401663  0  2.515948  0  -1.308124  0  -0.221003  -0.367793  0  2.53153  0
O  O132  1  0.45035261  0.71956880  0.91194710  1  0  -0.876195  0  2.036556  0  0  -0.788659  0  2.289847  0  0  -0.815383  0  2.273662  0  -1.480793  0  -0.416895  -0.769525  0  2.300391  0
O  O133  1  0.95035410  0.78043364  0.58805311  1  0  -0.876232  0  2.036648  0  0  -0.788728  0  2.289999  0  0  -0.815427  0  2.273759  0  -1.480856  0  -0.4169  -0.769595  0  2.300544  0
O  O134  1  0.54964387  0.28042733  0.08805315  1  0  -0.876206  0  2.036683  0  0  -0.788643  0  2.289959  0  0  -0.815367  0  2.273774  0  -1.480781  0  -0.416883  -0.769511  0  2.300503  0
O  O135  1  0.04964726  0.21957073  0.41194749  1  0  -0.876303  0  2.036589  0  0  -0.788732  0  2.289851  0  0  -0.815457  0  2.27367  0  -1.4808  0  -0.416926  -0.7696  0  2.300399  0
O  O136  1  0.06338547  0.74936746  0.87759018  1  0  -0.859124  0  1.973056  0  0  -0.787889  0  2.242494  0  0  -0.814502  0  2.22822  0  -1.457845  0  -0.438314  -0.76873  0  2.251775  0
O  O137  1  0.56338858  0.75063734  0.62241013  1  0  -0.85914  0  1.972977  0  0  -0.787915  0  2.24242  0  0  -0.81453  0  2.228144  0  -1.457791  0  -0.438335  -0.768755  0  2.251702  0
O  O138  1  0.93661263  0.25063456  0.12241067  1  0  -0.859096  0  1.972977  0  0  -0.787865  0  2.242422  0  0  -0.814478  0  2.228148  0  -1.457808  0  -0.438303  -0.768706  0  2.251703  0
O  O139  1  0.43661602  0.24936350  0.37759066  1  0  -0.859146  0  1.973018  0  0  -0.787904  0  2.242427  0  0  -0.814516  0  2.228151  0  -1.45787  0  -0.438335  -0.768744  0  2.25171  0
