# generated using pymatgen
data_Na2H14C12S2N2Cl4O7
_symmetry_space_group_name_H-M   'P 1'
_cell_length_a   6.37793878
_cell_length_b   6.37685459
_cell_length_c   27.75797528
_cell_angle_alpha   93.85473370
_cell_angle_beta   93.10499028
_cell_angle_gamma   118.13095386
_symmetry_Int_Tables_number   1
_chemical_formula_structural   Na2H14C12S2N2Cl4O7
_chemical_formula_sum   'Na4 H28 C24 S4 N4 Cl8 O14'
_cell_volume   988.59626247
_cell_formula_units_Z   2
loop_
 _symmetry_equiv_pos_site_id
 _symmetry_equiv_pos_as_xyz
  1  'x, y, z'
loop_
 _atom_site_type_symbol
 _atom_site_label
 _atom_site_symmetry_multiplicity
 _atom_site_fract_x
 _atom_site_fract_y
 _atom_site_fract_z
 _atom_site_occupancy
 _atom_site_hle17_bader_spin_density
 _atom_site_hle17_ddec_charge
 _atom_site_hle17_ddec_spin_density
 _atom_site_hle17_ddec_sum_bond_order
 _atom_site_hle17_magmom
 _atom_site_hse06_10hf_bader_spin_density
 _atom_site_hse06_10hf_ddec_charge
 _atom_site_hse06_10hf_ddec_spin_density
 _atom_site_hse06_10hf_ddec_sum_bond_order
 _atom_site_hse06_10hf_magmom
 _atom_site_hse06_bader_spin_density
 _atom_site_hse06_ddec_charge
 _atom_site_hse06_ddec_spin_density
 _atom_site_hse06_ddec_sum_bond_order
 _atom_site_hse06_magmom
 _atom_site_pbe_bader_spin_density
 _atom_site_pbe_cm5_charge
 _atom_site_pbe_ddec_charge
 _atom_site_pbe_ddec_spin_density
 _atom_site_pbe_ddec_sum_bond_order
 _atom_site_pbe_magmom
Na  Na0  1  0.65567439  0.60557183  0.23632785  1  0  0.919661  0  0.352329  0  0  0.889  0  0.488382  0  0  0.897412  0  0.468373  0  0  0.657054  0.882457  0  0.503143  0
Na  Na1  1  0.36923567  0.91933849  0.26374778  1  0  0.919967  0  0.351983  0  0  0.889108  0  0.488268  0  0  0.897543  0  0.468245  0  0  0.656998  0.882539  0  0.50305  0
Na  Na2  1  0.34432621  0.39442795  0.76367273  1  0  0.919671  0  0.352315  0  0  0.889  0  0.488397  0  0  0.897412  0  0.468384  0  0  0.657042  0.882446  0  0.503157  0
Na  Na3  1  0.63076809  0.08066129  0.73625249  1  0  0.919951  0  0.351997  0  0  0.889104  0  0.488288  0  0  0.897539  0  0.468258  0  0  0.656987  0.88253  0  0.503065  0
H  H4  1  0.44768301  0.63570743  0.00870728  1  0  0.099196  0  0.971739  0  0  0.10714  0  1.039336  0  0  0.110324  0  1.037782  0  0  0.096238  0.104961  0  1.040298  0
H  H5  1  0.62806050  0.93942202  0.49138139  1  0  0.099936  0  0.970959  0  0  0.107456  0  1.038911  0  0  0.110672  0  1.037375  0  0  0.096273  0.105245  0  1.039889  0
H  H6  1  0.55231279  0.36428876  0.99129210  1  0  0.099199  0  0.97175  0  0  0.107135  0  1.039356  0  0  0.110322  0  1.037804  0  0  0.096224  0.104955  0  1.04032  0
H  H7  1  0.37194481  0.06059378  0.50861515  1  0  0.099919  0  0.970977  0  0  0.107442  0  1.038926  0  0  0.110656  0  1.037394  0  0  0.096283  0.105229  0  1.039906  0
H  H8  1  0.24302254  0.85513248  0.97937900  1  0  0.085636  0  0.963849  0  0  0.090171  0  1.036824  0  0  0.093065  0  1.035276  0  0  0.093585  0.088077  0  1.037925  0
H  H9  1  0.87684273  0.76397657  0.52063707  1  0  0.085495  0  0.963282  0  0  0.08942  0  1.036994  0  0  0.092322  0  1.03543  0  0  0.093415  0.087356  0  1.038046  0
H  H10  1  0.75696524  0.14486016  0.02062129  1  0  0.085623  0  0.963906  0  0  0.090157  0  1.036875  0  0  0.093045  0  1.035332  0  0  0.093583  0.088054  0  1.038  0
H  H11  1  0.12316430  0.23604645  0.47936284  1  0  0.085519  0  0.963317  0  0  0.089342  0  1.037163  0  0  0.092254  0  1.035582  0  0  0.093378  0.08728  0  1.038214  0
H  H12  1  0.96883052  0.92619044  0.03245257  1  0  0.087341  0  0.969946  0  0  0.097854  0  1.034453  0  0  0.100359  0  1.033477  0  0  0.096733  0.096173  0  1.035065  0
H  H13  1  0.89459826  0.43656829  0.46756343  1  0  0.086977  0  0.97054  0  0  0.097503  0  1.035169  0  0  0.100003  0  1.034198  0  0  0.096788  0.095831  0  1.035772  0
H  H14  1  0.03115216  0.07379146  0.96754678  1  0  0.087385  0  0.969892  0  0  0.097883  0  1.034412  0  0  0.100389  0  1.03344  0  0  0.096741  0.096188  0  1.03504  0
H  H15  1  0.10540349  0.56344407  0.53244022  1  0  0.087011  0  0.970463  0  0  0.097526  0  1.035107  0  0  0.100028  0  1.034135  0  0  0.096786  0.095852  0  1.035713  0
H  H16  1  0.91089240  0.77744800  0.11301868  1  0  0.104429  0  0.993788  0  0  0.106509  0  1.067824  0  0  0.110421  0  1.064634  0  0  0.096753  0.103718  0  1.070085  0
H  H17  1  0.66509208  0.29801232  0.38702491  1  0  0.104197  0  0.994169  0  0  0.106213  0  1.068185  0  0  0.110027  0  1.065114  0  0  0.096507  0.103447  0  1.070412  0
H  H18  1  0.08909452  0.22254285  0.88698158  1  0  0.104375  0  0.993936  0  0  0.106515  0  1.067909  0  0  0.110389  0  1.064756  0  0  0.096737  0.103725  0  1.07017  0
H  H19  1  0.33491131  0.70198035  0.61297778  1  0  0.104239  0  0.994127  0  0  0.106266  0  1.068143  0  0  0.110081  0  1.065073  0  0  0.09652  0.103512  0  1.070358  0
H  H20  1  0.99598285  0.56166279  0.31388032  1  0  0.413091  0  0.892605  0  0  0.3791  0  0.963461  0  0  0.388542  0  0.949545  0  0  0.285601  0.37238  0  0.973393  0
H  H21  1  0.24798481  0.18216140  0.18619226  1  0  0.412905  0  0.892711  0  0  0.378892  0  0.963655  0  0  0.388322  0  0.949763  0  0  0.28545  0.372183  0  0.973563  0
H  H22  1  0.00402334  0.43833877  0.68611964  1  0  0.413119  0  0.892568  0  0  0.379138  0  0.963408  0  0  0.388579  0  0.94949  0  0  0.285604  0.372417  0  0.973341  0
H  H23  1  0.75201424  0.81783838  0.81380794  1  0  0.4129  0  0.892725  0  0  0.378884  0  0.963675  0  0  0.388313  0  0.949784  0  0  0.285442  0.372173  0  0.973586  0
H  H24  1  0.97320853  0.79470244  0.32267946  1  0  0.390015  0  0.908623  0  0  0.357667  0  0.985944  0  0  0.36638  0  0.972994  0  0  0.279505  0.351484  0  0.99515  0
H  H25  1  0.47222903  0.15066602  0.17739285  1  0  0.390162  0  0.908304  0  0  0.357965  0  0.985616  0  0  0.366679  0  0.972659  0  0  0.279534  0.351783  0  0.994823  0
H  H26  1  0.02679366  0.20529734  0.67732078  1  0  0.390034  0  0.908611  0  0  0.357684  0  0.985925  0  0  0.366394  0  0.972977  0  0  0.279493  0.351499  0  0.995131  0
H  H27  1  0.52777088  0.84933555  0.82260739  1  0  0.390123  0  0.908371  0  0  0.357921  0  0.985687  0  0  0.366634  0  0.972731  0  0  0.279511  0.351737  0  0.994895  0
H  H28  1  0.89831354  0.14417071  0.27829843  1  0  0.397067  0  0.911585  0  0  0.365379  0  0.979048  0  0  0.37465  0  0.965487  0  0  0.283677  0.358868  0  0.988567  0
H  H29  1  0.86600440  0.12003467  0.22169679  1  0  0.396773  0  0.913341  0  0  0.364829  0  0.980251  0  0  0.374114  0  0.966688  0  0  0.283237  0.358311  0  0.989765  0
H  H30  1  0.10168868  0.85582905  0.72170110  1  0  0.397108  0  0.911533  0  0  0.36543  0  0.978971  0  0  0.374698  0  0.965413  0  0  0.283698  0.35892  0  0.988488  0
H  H31  1  0.13399627  0.87996509  0.77830235  1  0  0.396794  0  0.913331  0  0  0.364839  0  0.980238  0  0  0.374125  0  0.966674  0  0  0.283226  0.358321  0  0.989752  0
C  C32  1  0.13931764  0.61829408  0.10634331  1  0  -0.182226  0  3.72323  0  0  -0.164277  0  3.974561  0  0  -0.171727  0  3.995935  0  0  -0.032562  -0.15951  0  3.960305  0
C  C33  1  0.51264858  0.53319599  0.39375191  1  0  -0.182141  0  3.723712  0  0  -0.163744  0  3.974089  0  0  -0.171163  0  3.995325  0  0  -0.032679  -0.15904  0  3.960009  0
C  C34  1  0.86067086  0.38169676  0.89365661  1  0  -0.18206  0  3.723206  0  0  -0.164083  0  3.974526  0  0  -0.171543  0  3.995902  0  0  -0.032464  -0.159319  0  3.960277  0
C  C35  1  0.48735264  0.46679841  0.60624789  1  0  -0.182163  0  3.723905  0  0  -0.163781  0  3.974252  0  0  -0.171192  0  3.995476  0  0  -0.03272  -0.159078  0  3.960172  0
C  C36  1  0.28963099  0.57610359  0.07648771  1  0  0.130288  0  3.792666  0  0  0.13451  0  4.059146  0  0  0.139939  0  4.079538  0  0  0.014032  0.130752  0  4.045388  0
C  C37  1  0.50036569  0.71340284  0.42360663  1  0  0.130548  0  3.792262  0  0  0.134524  0  4.05906  0  0  0.139963  0  4.079485  0  0  0.013663  0.130757  0  4.045283  0
C  C38  1  0.71036665  0.42389976  0.92351215  1  0  0.130215  0  3.792755  0  0  0.134423  0  4.059259  0  0  0.139855  0  4.079658  0  0  0.014009  0.130664  0  4.045502  0
C  C39  1  0.49963586  0.28659869  0.57639183  1  0  0.130554  0  3.79236  0  0  0.134585  0  4.05907  0  0  0.140024  0  4.079489  0  0  0.013723  0.130818  0  4.045291  0
C  C40  1  0.32860169  0.66614494  0.03137314  1  0  -0.139049  0  3.756209  0  0  -0.158468  0  4.004975  0  0  -0.163502  0  4.026238  0  0  -0.101396  -0.15513  0  3.990436  0
C  C41  1  0.63568986  0.79758657  0.46871020  1  0  -0.140433  0  3.755356  0  0  -0.159406  0  4.003998  0  0  -0.164476  0  4.025157  0  0  -0.101269  -0.156045  0  3.989551  0
C  C42  1  0.67139761  0.33386201  0.96862788  1  0  -0.139057  0  3.75614  0  0  -0.158482  0  4.004916  0  0  -0.163518  0  4.026179  0  0  -0.1014  -0.155141  0  3.990377  0
C  C43  1  0.36430956  0.20242032  0.53128758  1  0  -0.140519  0  3.755589  0  0  -0.159492  0  4.004183  0  0  -0.164564  0  4.025344  0  0  -0.101324  -0.156131  0  3.989737  0
C  C44  1  0.21388751  0.79166571  0.01520551  1  0  -0.029935  0  3.74524  0  0  -0.043813  0  3.995638  0  0  -0.04297  0  4.015785  0  0  -0.085993  -0.044183  0  3.982061  0
C  C45  1  0.77731706  0.69889067  0.48483510  1  0  -0.029668  0  3.742644  0  0  -0.043036  0  3.993208  0  0  -0.042212  0  4.013316  0  0  -0.085975  -0.043407  0  3.979635  0
C  C46  1  0.78610824  0.20833051  0.98479531  1  0  -0.029882  0  3.745133  0  0  -0.043765  0  3.995533  0  0  -0.042915  0  4.015686  0  0  -0.085975  -0.044137  0  3.981947  0
C  C47  1  0.22268569  0.30112341  0.51516498  1  0  -0.029586  0  3.742855  0  0  -0.042899  0  3.993405  0  0  -0.042077  0  4.013522  0  0  -0.08595  -0.043272  0  3.97983  0
C  C48  1  0.06195219  0.83045302  0.04440731  1  0  -0.076173  0  3.768035  0  0  -0.094439  0  4.02671  0  0  -0.097679  0  4.04725  0  0  -0.099665  -0.092519  0  4.012939  0
C  C49  1  0.78670416  0.51756710  0.45564472  1  0  -0.075335  0  3.766269  0  0  -0.093681  0  4.024864  0  0  -0.096926  0  4.04539  0  0  -0.09963  -0.091765  0  4.011117  0
C  C50  1  0.93803391  0.16953603  0.95559219  1  0  -0.076284  0  3.768049  0  0  -0.094546  0  4.026764  0  0  -0.097787  0  4.047289  0  0  -0.099702  -0.092615  0  4.013  0
C  C51  1  0.21329650  0.48243631  0.54435808  1  0  -0.075426  0  3.766343  0  0  -0.093744  0  4.024904  0  0  -0.096992  0  4.045432  0  0  -0.099592  -0.091828  0  4.011163  0
C  C52  1  0.02696837  0.74593637  0.08975833  1  0  -0.052208  0  3.759729  0  0  -0.080045  0  4.019141  0  0  -0.078586  0  4.038117  0  0  -0.090879  -0.080796  0  4.006396  0
C  C53  1  0.65683941  0.43729889  0.41029625  1  0  -0.052088  0  3.760327  0  0  -0.079838  0  4.020035  0  0  -0.078292  0  4.039044  0  0  -0.090281  -0.080624  0  4.007307  0
C  C54  1  0.97301687  0.25405089  0.91024114  1  0  -0.052192  0  3.759989  0  0  -0.080053  0  4.019327  0  0  -0.078556  0  4.038331  0  0  -0.090902  -0.080798  0  4.006569  0
C  C55  1  0.34315688  0.56269199  0.58970559  1  0  -0.052094  0  3.760357  0  0  -0.079901  0  4.020137  0  0  -0.078356  0  4.039145  0  0  -0.090319  -0.080697  0  4.007401  0
S  S56  1  0.08631571  0.52395219  0.16592504  1  0  1.197053  0  5.525343  0  0  1.113423  0  6.033913  0  0  1.156798  0  6.017887  0  0  0.524825  1.083484  0  6.044112  0
S  S57  1  0.35858883  0.42070938  0.33418200  1  0  1.196943  0  5.523378  0  0  1.113334  0  6.03203  0  0  1.156712  0  6.015995  0  0  0.525236  1.083407  0  6.042249  0
S  S58  1  0.91368165  0.47604401  0.83407472  1  0  1.196997  0  5.525364  0  0  1.113349  0  6.033946  0  0  1.156727  0  6.017919  0  0  0.52479  1.083407  0  6.044141  0
S  S59  1  0.64142322  0.57928145  0.66581827  1  0  1.197173  0  5.52323  0  0  1.113602  0  6.031873  0  0  1.15698  0  6.015822  0  0  0.525376  1.083675  0  6.042099  0
N  N60  1  0.99692975  0.24223689  0.16393864  1  0  -0.59346  0  2.733936  0  0  -0.540488  0  3.022998  0  0  -0.557049  0  3.018817  0  0  -0.358154  -0.528792  0  3.025663  0
N  N61  1  0.07890168  0.33335084  0.33614994  1  0  -0.594096  0  2.7336  0  0  -0.541377  0  3.023334  0  0  -0.558023  0  3.019282  0  0  -0.358283  -0.529555  0  3.025712  0
N  N62  1  0.00306932  0.75776289  0.83606120  1  0  -0.593548  0  2.733966  0  0  -0.540544  0  3.023004  0  0  -0.557101  0  3.018819  0  0  -0.358173  -0.528859  0  3.025702  0
N  N63  1  0.92110830  0.66664532  0.66384857  1  0  -0.594164  0  2.733556  0  0  -0.541513  0  3.023353  0  0  -0.558157  0  3.019306  0  0  -0.358329  -0.529692  0  3.025733  0
Cl  Cl64  1  0.73031356  0.08228443  0.12578754  1  0  -0.010331  0  1.47085  0  0  0.021578  0  1.730735  0  0  0.019073  0  1.724188  0  0  0.085544  0.023158  0  1.735386  0
Cl  Cl65  1  0.95703012  0.10466024  0.37425718  1  0  -0.010272  0  1.471525  0  0  0.021983  0  1.730993  0  0  0.019474  0  1.724434  0  0  0.08582  0.023552  0  1.735645  0
Cl  Cl66  1  0.26968409  0.91771892  0.87421196  1  0  -0.010288  0  1.470889  0  0  0.021604  0  1.73077  0  0  0.0191  0  1.724217  0  0  0.085552  0.023183  0  1.735421  0
Cl  Cl67  1  0.04297693  0.89534310  0.62574283  1  0  -0.010244  0  1.471509  0  0  0.022019  0  1.731012  0  0  0.019511  0  1.724453  0  0  0.085833  0.02359  0  1.73566  0
Cl  Cl68  1  0.43039082  0.41491408  0.09347435  1  0  -0.064272  0  1.48619  0  0  -0.048417  0  1.745513  0  0  -0.052514  0  1.742051  0  0  0.038568  -0.045431  0  1.74801  0
Cl  Cl69  1  0.32226251  0.83720942  0.40661256  1  0  -0.064022  0  1.486488  0  0  -0.048087  0  1.745868  0  0  -0.052175  0  1.742402  0  0  0.038786  -0.045113  0  1.748352  0
Cl  Cl70  1  0.56960677  0.58508929  0.90652660  1  0  -0.064226  0  1.486166  0  0  -0.048378  0  1.745508  0  0  -0.052477  0  1.742041  0  0  0.03859  -0.04539  0  1.748005  0
Cl  Cl71  1  0.67773585  0.16278849  0.59338328  1  0  -0.063974  0  1.486442  0  0  -0.048044  0  1.74578  0  0  -0.05213  0  1.742314  0  0  0.038797  -0.045073  0  1.748267  0
O  O72  1  0.91446725  0.59832051  0.18135521  1  0  -0.671692  0  2.009474  0  0  -0.626047  0  2.26805  0  0  -0.644944  0  2.25363  0  0  -0.381818  -0.61263  0  2.277705  0
O  O73  1  0.41731428  0.23327577  0.31872786  1  0  -0.671641  0  2.007995  0  0  -0.626194  0  2.266889  0  0  -0.6451  0  2.252457  0  0  -0.382522  -0.612783  0  2.27655  0
O  O74  1  0.08553264  0.40168107  0.81864539  1  0  -0.67163  0  2.009499  0  0  -0.62599  0  2.268088  0  0  -0.644884  0  2.253659  0  0  -0.381793  -0.612566  0  2.277738  0
O  O75  1  0.58270528  0.76672759  0.68127342  1  0  -0.671819  0  2.007969  0  0  -0.626381  0  2.266864  0  0  -0.645284  0  2.252425  0  0  -0.382605  -0.612968  0  2.276527  0
O  O76  1  0.31552314  0.63171699  0.19575112  1  0  -0.687123  0  2.008876  0  0  -0.648808  0  2.279439  0  0  -0.669212  0  2.265884  0  0  -0.397768  -0.634129  0  2.288204  0
O  O77  1  0.43667592  0.62028994  0.30439011  1  0  -0.687506  0  2.008184  0  0  -0.649539  0  2.279388  0  0  -0.669868  0  2.265656  0  0  -0.39824  -0.634859  0  2.288141  0
O  O78  1  0.68447194  0.36828100  0.80424864  1  0  -0.687118  0  2.008902  0  0  -0.648839  0  2.279538  0  0  -0.669243  0  2.265982  0  0  -0.397759  -0.634154  0  2.288297  0
O  O79  1  0.56333570  0.37970982  0.69560991  1  0  -0.68752  0  2.008308  0  0  -0.649547  0  2.279483  0  0  -0.669885  0  2.265776  0  0  -0.398257  -0.634867  0  2.288233  0
O  O80  1  0.97829238  0.68524614  0.29689334  1  0  -0.880052  0  1.824367  0  0  -0.843465  0  2.003821  0  0  -0.857154  0  1.973292  0  0  -0.669257  -0.83375  0  2.025361  0
O  O81  1  0.38851077  0.18142803  0.20317891  1  0  -0.88019  0  1.824868  0  0  -0.843768  0  2.003951  0  0  -0.857461  0  1.973429  0  0  -0.669103  -0.834044  0  2.02551  0
O  O82  1  0.02171310  0.31475720  0.70310665  1  0  -0.880094  0  1.824326  0  0  -0.843489  0  2.003729  0  0  -0.85718  0  1.973219  0  0  -0.669241  -0.833769  0  2.025266  0
O  O83  1  0.61148657  0.81856819  0.79682158  1  0  -0.880151  0  1.824933  0  0  -0.843725  0  2.004024  0  0  -0.857414  0  1.9735  0  0  -0.669067  -0.833993  0  2.02558  0
O  O84  1  0.78881007  0.03880482  0.24999501  1  0  -0.873794  0  1.787126  0  0  -0.82662  0  1.956095  0  0  -0.841766  0  1.926275  0  0  -0.668351  -0.815808  0  1.976809  0
O  O85  1  0.21119301  0.96119673  0.75000419  1  0  -0.873842  0  1.787062  0  0  -0.826652  0  1.95604  0  0  -0.841797  0  1.926222  0  0  -0.668349  -0.815837  0  1.976751  0
