# generated using pymatgen
data_CuH3C4BrN2
_symmetry_space_group_name_H-M   'P 1'
_cell_length_a   5.15952878
_cell_length_b   6.84604892
_cell_length_c   15.30834274
_cell_angle_alpha   90.00022003
_cell_angle_beta   90.00093926
_cell_angle_gamma   100.97795850
_symmetry_Int_Tables_number   1
_chemical_formula_structural   CuH3C4BrN2
_chemical_formula_sum   'Cu4 H12 C16 Br4 N8'
_cell_volume   530.83216774
_cell_formula_units_Z   4
loop_
 _symmetry_equiv_pos_site_id
 _symmetry_equiv_pos_as_xyz
  1  'x, y, z'
loop_
 _atom_site_type_symbol
 _atom_site_label
 _atom_site_symmetry_multiplicity
 _atom_site_fract_x
 _atom_site_fract_y
 _atom_site_fract_z
 _atom_site_occupancy
 _atom_site_hle17_bader_spin_density
 _atom_site_hle17_ddec_charge
 _atom_site_hle17_ddec_spin_density
 _atom_site_hle17_ddec_sum_bond_order
 _atom_site_hle17_magmom
 _atom_site_hse06_10hf_bader_spin_density
 _atom_site_hse06_10hf_ddec_charge
 _atom_site_hse06_10hf_ddec_spin_density
 _atom_site_hse06_10hf_ddec_sum_bond_order
 _atom_site_hse06_10hf_magmom
 _atom_site_hse06_bader_spin_density
 _atom_site_hse06_ddec_charge
 _atom_site_hse06_ddec_spin_density
 _atom_site_hse06_ddec_sum_bond_order
 _atom_site_hse06_magmom
 _atom_site_pbe_bader_spin_density
 _atom_site_pbe_cm5_charge
 _atom_site_pbe_ddec_charge
 _atom_site_pbe_ddec_spin_density
 _atom_site_pbe_ddec_sum_bond_order
 _atom_site_pbe_magmom
Cu  Cu0  1  0.94394766  0.79008381  0.24681699  1  0  0.424402  0  2.023343  0  0  0.309492  0  2.527942  0  0  0.297678  0  2.489073  0  0  0.45116  0.320284  0  2.551236  0
Cu  Cu1  1  0.05607174  0.70992388  0.74682440  1  0  0.424282  0  2.023546  0  0  0.309371  0  2.528171  0  0  0.297575  0  2.489311  0  0  0.451132  0.320168  0  2.551462  0
Cu  Cu2  1  0.05607107  0.20991212  0.75318494  1  0  0.424402  0  2.023354  0  0  0.309445  0  2.527963  0  0  0.29759  0  2.489076  0  0  0.451112  0.320246  0  2.551269  0
Cu  Cu3  1  0.94392381  0.29008383  0.25317883  1  0  0.424257  0  2.023289  0  0  0.3093  0  2.527962  0  0  0.297527  0  2.489101  0  0  0.451055  0.320087  0  2.551264  0
H  H4  1  0.35297819  0.27478278  0.38195632  1  0  0.091542  0  0.966415  0  0  0.098196  0  1.038361  0  0  0.10291  0  1.033442  0  0  0.10983  0.094532  0  1.042389  0
H  H5  1  0.64703922  0.22521975  0.88195917  1  0  0.091616  0  0.966409  0  0  0.098259  0  1.038369  0  0  0.102973  0  1.033446  0  0  0.109857  0.094596  0  1.0424  0
H  H6  1  0.64706299  0.72523918  0.61803450  1  0  0.091504  0  0.966384  0  0  0.098163  0  1.038353  0  0  0.102878  0  1.033434  0  0  0.109849  0.0945  0  1.04238  0
H  H7  1  0.35300927  0.77478369  0.11804668  1  0  0.091421  0  0.966215  0  0  0.098088  0  1.03823  0  0  0.102804  0  1.033312  0  0  0.1098  0.094423  0  1.042256  0
H  H8  1  0.35731869  0.80277829  0.54058492  1  0  0.105422  0  1.013056  0  0  0.115737  0  1.076611  0  0  0.119476  0  1.074172  0  0  0.090245  0.112998  0  1.0784  0
H  H9  1  0.64264728  0.69720890  0.04058072  1  0  0.105363  0  1.013194  0  0  0.115662  0  1.076752  0  0  0.119405  0  1.074304  0  0  0.090216  0.112924  0  1.078541  0
H  H10  1  0.64267371  0.19721448  0.45942288  1  0  0.105456  0  1.012992  0  0  0.115699  0  1.076617  0  0  0.119476  0  1.074139  0  0  0.090232  0.11296  0  1.078406  0
H  H11  1  0.35730342  0.30277546  0.95941467  1  0  0.105537  0  1.012872  0  0  0.115776  0  1.076501  0  0  0.119552  0  1.074023  0  0  0.090224  0.113036  0  1.078292  0
H  H12  1  0.06914204  0.90161074  0.42465569  1  0  0.084469  0  0.950512  0  0  0.092414  0  1.016141  0  0  0.096075  0  1.012888  0  0  0.108084  0.089596  0  1.018843  0
H  H13  1  0.93083079  0.59837207  0.92465778  1  0  0.08439  0  0.950594  0  0  0.092339  0  1.016236  0  0  0.096001  0  1.012984  0  0  0.108092  0.089521  0  1.018937  0
H  H14  1  0.93086838  0.09840073  0.57535016  1  0  0.08447  0  0.950515  0  0  0.092425  0  1.016132  0  0  0.096086  0  1.012881  0  0  0.108097  0.089608  0  1.018832  0
H  H15  1  0.06910802  0.40158873  0.07533892  1  0  0.084397  0  0.950503  0  0  0.092328  0  1.016141  0  0  0.09599  0  1.01289  0  0  0.108058  0.089512  0  1.018841  0
C  C16  1  0.30134868  0.41825643  0.39721909  1  0  0.066169  0  3.598501  0  0  0.024902  0  3.858138  0  0  0.029743  0  3.866571  0  0  0.051563  0.021157  0  3.853633  0
C  C17  1  0.69865716  0.08175614  0.89722290  1  0  0.066348  0  3.598325  0  0  0.025005  0  3.857941  0  0  0.029858  0  3.866358  0  0  0.051539  0.021254  0  3.853443  0
C  C18  1  0.69868475  0.58175988  0.60277304  1  0  0.066383  0  3.598554  0  0  0.025069  0  3.858217  0  0  0.029906  0  3.866654  0  0  0.051531  0.021324  0  3.853708  0
C  C19  1  0.30135359  0.91827344  0.10276727  1  0  0.066387  0  3.59882  0  0  0.025  0  3.858532  0  0  0.02984  0  3.866965  0  0  0.051567  0.021262  0  3.854017  0
C  C20  1  0.40361411  0.53167526  0.47063431  1  0  0.052429  0  3.733734  0  0  0.065551  0  3.969372  0  0  0.067067  0  3.987121  0  0  0.007767  0.064152  0  3.958014  0
C  C21  1  0.59638220  0.96833166  0.97063228  1  0  0.052264  0  3.73387  0  0  0.065495  0  3.969388  0  0  0.067  0  3.987144  0  0  0.007805  0.064101  0  3.958025  0
C  C22  1  0.59640714  0.46832809  0.52936501  1  0  0.052304  0  3.734042  0  0  0.065519  0  3.969557  0  0  0.067034  0  3.987318  0  0  0.007809  0.064125  0  3.958195  0
C  C23  1  0.40358371  0.03167457  0.02937030  1  0  0.052412  0  3.734528  0  0  0.065598  0  3.970046  0  0  0.067108  0  3.987806  0  0  0.00773  0.064202  0  3.958684  0
C  C24  1  0.30675931  0.70688469  0.48383857  1  0  -0.100779  0  3.670945  0  0  -0.128088  0  3.917175  0  0  -0.126064  0  3.930757  0  0  -0.077992  -0.129743  0  3.908663  0
C  C25  1  0.69322221  0.79311728  0.98384369  1  0  -0.100679  0  3.670649  0  0  -0.127951  0  3.916804  0  0  -0.125924  0  3.930387  0  0  -0.077969  -0.129606  0  3.908281  0
C  C26  1  0.69325301  0.29312668  0.51616793  1  0  -0.100796  0  3.671293  0  0  -0.128017  0  3.917473  0  0  -0.126025  0  3.931028  0  0  -0.077977  -0.129672  0  3.908958  0
C  C27  1  0.30674376  0.20686628  0.01616608  1  0  -0.100943  0  3.671442  0  0  -0.128181  0  3.917587  0  0  -0.126179  0  3.931136  0  0  -0.078031  -0.129839  0  3.909079  0
C  C28  1  0.14350665  0.76304831  0.42059735  1  0  0.102036  0  3.71017  0  0  0.074511  0  3.962302  0  0  0.077819  0  3.974156  0  0  0.038434  0.071947  0  3.955256  0
C  C29  1  0.85649737  0.73695242  0.92059309  1  0  0.102037  0  3.710222  0  0  0.074471  0  3.962434  0  0  0.077773  0  3.97429  0  0  0.038406  0.071911  0  3.955383  0
C  C30  1  0.85649743  0.23695593  0.57940392  1  0  0.102021  0  3.710378  0  0  0.074452  0  3.962516  0  0  0.077748  0  3.97437  0  0  0.038392  0.071889  0  3.955472  0
C  C31  1  0.14348477  0.26302728  0.07939185  1  0  0.102079  0  3.710803  0  0  0.074577  0  3.962852  0  0  0.077869  0  3.974716  0  0  0.038464  0.072015  0  3.95581  0
Br  Br32  1  0.66011290  0.00592076  0.32190706  1  0  -0.536947  0  1.346206  0  0  -0.478695  0  1.752289  0  0  -0.49797  0  1.722879  0  0  -0.265369  -0.46422  0  1.770861  0
Br  Br33  1  0.33987460  0.49408031  0.82191705  1  0  -0.536981  0  1.346291  0  0  -0.478734  0  1.752391  0  0  -0.498002  0  1.722975  0  0  -0.265369  -0.464263  0  1.770966  0
Br  Br34  1  0.33988001  0.99407349  0.67809944  1  0  -0.536911  0  1.346292  0  0  -0.478682  0  1.752413  0  0  -0.497923  0  1.722953  0  0  -0.265333  -0.464214  0  1.770995  0
Br  Br35  1  0.66010074  0.50591938  0.17809532  1  0  -0.536952  0  1.346294  0  0  -0.478709  0  1.752386  0  0  -0.497971  0  1.722955  0  0  -0.265366  -0.464239  0  1.770963  0
N  N36  1  0.06836233  0.65682204  0.34823524  1  0  -0.152101  0  3.288009  0  0  -0.095949  0  3.587496  0  0  -0.091449  0  3.584823  0  0  -0.261936  -0.10004  0  3.590068  0
N  N37  1  0.93164588  0.84316459  0.84824065  1  0  -0.151788  0  3.288347  0  0  -0.095662  0  3.587832  0  0  -0.09116  0  3.585161  0  0  -0.261859  -0.099751  0  3.590402  0
N  N38  1  0.93164528  0.34319260  0.65176146  1  0  -0.15198  0  3.287936  0  0  -0.095767  0  3.587397  0  0  -0.091227  0  3.584674  0  0  -0.261844  -0.09986  0  3.589978  0
N  N39  1  0.06835394  0.15681570  0.15174495  1  0  -0.15183  0  3.287919  0  0  -0.095665  0  3.587324  0  0  -0.091155  0  3.584653  0  0  -0.261737  -0.099753  0  3.589896  0
N  N40  1  0.13492631  0.47575886  0.33944873  1  0  -0.136573  0  3.30339  0  0  -0.077993  0  3.609501  0  0  -0.075239  0  3.607041  0  0  -0.25178  -0.080587  0  3.611742  0
N  N41  1  0.86509572  0.02423330  0.83945364  1  0  -0.136965  0  3.303309  0  0  -0.078315  0  3.609452  0  0  -0.075546  0  3.606945  0  0  -0.251827  -0.08091  0  3.611702  0
N  N42  1  0.86507989  0.52425736  0.66055123  1  0  -0.136771  0  3.303477  0  0  -0.078231  0  3.609646  0  0  -0.075481  0  3.607163  0  0  -0.25182  -0.080827  0  3.611887  0
N  N43  1  0.13493044  0.97575015  0.16054633  1  0  -0.136805  0  3.303199  0  0  -0.078207  0  3.609358  0  0  -0.075443  0  3.606863  0  0  -0.251844  -0.080806  0  3.611601  0
