# generated using pymatgen
data_H13PbC10N2ClO4
_symmetry_space_group_name_H-M   'P 1'
_cell_length_a   7.31783797
_cell_length_b   7.43324305
_cell_length_c   13.15492702
_cell_angle_alpha   89.35035037
_cell_angle_beta   76.50417413
_cell_angle_gamma   67.09441869
_symmetry_Int_Tables_number   1
_chemical_formula_structural   H13PbC10N2ClO4
_chemical_formula_sum   'H26 Pb2 C20 N4 Cl2 O8'
_cell_volume   638.41151727
_cell_formula_units_Z   2
loop_
 _symmetry_equiv_pos_site_id
 _symmetry_equiv_pos_as_xyz
  1  'x, y, z'
loop_
 _atom_site_type_symbol
 _atom_site_label
 _atom_site_symmetry_multiplicity
 _atom_site_fract_x
 _atom_site_fract_y
 _atom_site_fract_z
 _atom_site_occupancy
 _atom_site_hle17_bader_spin_density
 _atom_site_hle17_ddec_charge
 _atom_site_hle17_ddec_spin_density
 _atom_site_hle17_ddec_sum_bond_order
 _atom_site_hle17_magmom
 _atom_site_hse06_10hf_bader_spin_density
 _atom_site_hse06_10hf_ddec_charge
 _atom_site_hse06_10hf_ddec_spin_density
 _atom_site_hse06_10hf_ddec_sum_bond_order
 _atom_site_hse06_10hf_magmom
 _atom_site_hse06_bader_spin_density
 _atom_site_hse06_ddec_charge
 _atom_site_hse06_ddec_spin_density
 _atom_site_hse06_ddec_sum_bond_order
 _atom_site_hse06_magmom
 _atom_site_pbe_bader_spin_density
 _atom_site_pbe_cm5_charge
 _atom_site_pbe_ddec_charge
 _atom_site_pbe_ddec_spin_density
 _atom_site_pbe_ddec_sum_bond_order
 _atom_site_pbe_magmom
H  H0  1  0.63966654  0.82695343  0.66913303  1  0  0.316537  0  0.897357  0  0  0.305021  0  0.954486  0  0  0.311011  0  0.950904  0  0  0.298844  0.300736  0  0.957055  0
H  H1  1  0.36032992  0.17304822  0.33086432  1  0  0.316415  0  0.897444  0  0  0.304967  0  0.954485  0  0  0.310957  0  0.950903  0  0  0.298813  0.300681  0  0.957055  0
H  H2  1  0.85159201  0.84681022  0.68541818  1  0  0.313551  0  0.914815  0  0  0.298047  0  0.979326  0  0  0.304926  0  0.974115  0  0  0.297316  0.293125  0  0.983035  0
H  H3  1  0.14840693  0.15318556  0.31457963  1  0  0.313576  0  0.914749  0  0  0.298094  0  0.979233  0  0  0.304971  0  0.974024  0  0  0.297326  0.293173  0  0.982941  0
H  H4  1  0.97787475  0.97872059  0.75781523  1  0  0.314012  0  0.958569  0  0  0.295023  0  1.027702  0  0  0.302903  0  1.021176  0  0  0.286281  0.289458  0  1.032243  0
H  H5  1  0.02211442  0.02127507  0.24218690  1  0  0.314173  0  0.958256  0  0  0.295075  0  1.027534  0  0  0.302955  0  1.02101  0  0  0.28629  0.289514  0  1.032071  0
H  H6  1  0.93366208  0.14828219  0.85749112  1  0  0.29298  0  0.93041  0  0  0.287039  0  0.984848  0  0  0.291478  0  0.982343  0  0  0.292085  0.283887  0  0.986655  0
H  H7  1  0.06634533  0.85167381  0.14251792  1  0  0.29296  0  0.930544  0  0  0.287053  0  0.984895  0  0  0.291489  0  0.982401  0  0  0.292134  0.283901  0  0.986699  0
H  H8  1  0.62352094  0.29523983  0.98726427  1  0  0.110239  0  0.962484  0  0  0.120715  0  1.025796  0  0  0.12386  0  1.024289  0  0  0.097626  0.118484  0  1.026955  0
H  H9  1  0.37648021  0.70474415  0.01273786  1  0  0.110334  0  0.962342  0  0  0.120787  0  1.025685  0  0  0.123936  0  1.024176  0  0  0.09764  0.118556  0  1.026843  0
H  H10  1  0.09811287  0.20016751  0.95187147  1  0  0.087381  0  0.983533  0  0  0.095838  0  1.052277  0  0  0.099839  0  1.048918  0  0  0.088919  0.092978  0  1.054739  0
H  H11  1  0.90187701  0.79985623  0.04811827  1  0  0.08733  0  0.983619  0  0  0.095735  0  1.052416  0  0  0.099736  0  1.049061  0  0  0.088854  0.092874  0  1.054878  0
H  H12  1  0.30898057  0.99701203  0.78142965  1  0  0.106473  0  0.958904  0  0  0.120855  0  1.013694  0  0  0.123564  0  1.012583  0  0  0.102098  0.118854  0  1.014652  0
H  H13  1  0.69101855  0.00298669  0.21856888  1  0  0.106535  0  0.958861  0  0  0.120913  0  1.013657  0  0  0.12362  0  1.012551  0  0  0.102111  0.118911  0  1.014615  0
H  H14  1  0.53769865  0.40350996  0.18097201  1  0  0.134666  0  0.96196  0  0  0.149615  0  1.029935  0  0  0.151821  0  1.029396  0  0  0.089579  0.147996  0  1.030399  0
H  H15  1  0.46230530  0.59650056  0.81902736  1  0  0.134645  0  0.96187  0  0  0.149568  0  1.029894  0  0  0.151773  0  1.029361  0  0  0.0896  0.14795  0  1.030356  0
H  H16  1  0.81210884  0.32271859  0.15587678  1  0  0.12737  0  0.955497  0  0  0.141643  0  1.023662  0  0  0.14446  0  1.021841  0  0  0.086107  0.139576  0  1.025006  0
H  H17  1  0.18788611  0.67729329  0.84412680  1  0  0.127307  0  0.955487  0  0  0.141596  0  1.023644  0  0  0.144423  0  1.021815  0  0  0.086126  0.139525  0  1.024995  0
H  H18  1  0.64537828  0.56033468  0.21711939  1  0  0.128176  0  0.980034  0  0  0.146595  0  1.045845  0  0  0.146945  0  1.049141  0  0  0.095356  0.146273  0  1.043726  0
H  H19  1  0.35462272  0.43967286  0.78288190  1  0  0.128107  0  0.979826  0  0  0.146522  0  1.045694  0  0  0.146871  0  1.048994  0  0  0.095362  0.146202  0  1.043568  0
H  H20  1  0.92477911  0.47541039  0.40966054  1  0  0.147944  0  0.943314  0  0  0.16777  0  1.001844  0  0  0.170352  0  1.001251  0  0  0.104006  0.165927  0  1.002331  0
H  H21  1  0.07522706  0.52458831  0.59034619  1  0  0.147904  0  0.943231  0  0  0.167729  0  1.001767  0  0  0.170313  0  1.001172  0  0  0.103964  0.165887  0  1.002251  0
H  H22  1  0.13945663  0.52610839  0.34364950  1  0  0.142428  0  0.962997  0  0  0.156559  0  1.030956  0  0  0.160071  0  1.028541  0  0  0.093916  0.154035  0  1.032741  0
H  H23  1  0.86055730  0.47387861  0.65635551  1  0  0.142442  0  0.963083  0  0  0.156602  0  1.030984  0  0  0.160124  0  1.028554  0  0  0.0939  0.154057  0  1.032789  0
H  H24  1  0.92377670  0.57680466  0.28730661  1  0  0.135154  0  0.95585  0  0  0.154621  0  1.017293  0  0  0.156294  0  1.017504  0  0  0.091804  0.153419  0  1.017207  0
H  H25  1  0.07623662  0.42318381  0.71269848  1  0  0.135122  0  0.955889  0  0  0.154585  0  1.017335  0  0  0.156258  0  1.017543  0  0  0.091777  0.153381  0  1.01725  0
Pb  Pb26  1  0.67003325  0.17700999  0.53524696  1  0  1.329748  0  1.348312  0  0  1.141378  0  1.730632  0  0  1.20415  0  1.689271  0  0  0.637837  1.095549  0  1.759855  0
Pb  Pb27  1  0.32995029  0.82299892  0.46475052  1  0  1.329734  0  1.348412  0  0  1.141364  0  1.730759  0  0  1.204132  0  1.689395  0  0  0.637832  1.095533  0  1.759982  0
C  C28  1  0.58386826  0.02749409  0.79015611  1  0  0.157932  0  3.831009  0  0  0.15105  0  4.083986  0  0  0.154859  0  4.10648  0  0  0.068658  0.148272  0  4.068839  0
C  C29  1  0.41612148  0.97251342  0.20983829  1  0  0.157875  0  3.831178  0  0  0.15117  0  4.083901  0  0  0.154981  0  4.106393  0  0  0.068688  0.148393  0  4.068759  0
C  C30  1  0.67481275  0.11524578  0.84733994  1  0  0.230268  0  3.851807  0  0  0.226493  0  4.100209  0  0  0.234101  0  4.120863  0  0  0.088707  0.22125  0  4.086126  0
C  C31  1  0.32518747  0.88474703  0.15266151  1  0  0.230434  0  3.851928  0  0  0.226621  0  4.100224  0  0  0.234231  0  4.120875  0  0  0.088777  0.221377  0  4.086144  0
C  C32  1  0.55507171  0.22843703  0.94227201  1  0  -0.25585  0  3.760797  0  0  -0.279062  0  4.008929  0  0  -0.284807  0  4.02966  0  0  -0.117162  -0.275134  0  3.994977  0
C  C33  1  0.44492085  0.77155723  0.05772436  1  0  -0.255963  0  3.760378  0  0  -0.279173  0  4.008592  0  0  -0.284922  0  4.02933  0  0  -0.117264  -0.275247  0  3.994641  0
C  C34  1  0.35052096  0.25748227  0.97798264  1  0  0.141866  0  3.850753  0  0  0.151451  0  4.117195  0  0  0.155165  0  4.140203  0  0  -0.002231  0.148867  0  4.101609  0
C  C35  1  0.64947616  0.74253112  0.02201837  1  0  0.141867  0  3.850562  0  0  0.151418  0  4.117031  0  0  0.155122  0  4.140058  0  0  -0.002125  0.14884  0  4.101439  0
C  C36  1  0.25861791  0.17476010  0.92190142  1  0  -0.178907  0  3.858764  0  0  -0.208846  0  4.127691  0  0  -0.212153  0  4.147283  0  0  -0.127717  -0.206526  0  4.114436  0
C  C37  1  0.74137295  0.82525476  0.07809508  1  0  -0.178736  0  3.858889  0  0  -0.208612  0  4.127817  0  0  -0.211917  0  4.147414  0  0  -0.127706  -0.206291  0  4.114558  0
C  C38  1  0.37748532  0.06066609  0.82806673  1  0  -0.152713  0  3.775401  0  0  -0.170683  0  4.033789  0  0  -0.171507  0  4.052369  0  0  -0.109012  -0.170075  0  4.021391  0
C  C39  1  0.62251178  0.93933407  0.17193282  1  0  -0.152884  0  3.77533  0  0  -0.170917  0  4.033663  0  0  -0.171743  0  4.052247  0  0  -0.109036  -0.170308  0  4.021268  0
C  C40  1  0.65424920  0.33251323  0.31861788  1  0  0.725033  0  3.875247  0  0  0.68388  0  4.168321  0  0  0.717271  0  4.16222  0  0  0.203822  0.661222  0  4.171421  0
C  C41  1  0.34575258  0.66749579  0.68138254  1  0  0.724984  0  3.875462  0  0  0.68384  0  4.168536  0  0  0.717233  0  4.16243  0  0  0.203773  0.661175  0  4.171643  0
C  C42  1  0.66448575  0.40615110  0.21091493  1  0  -0.465389  0  3.673437  0  0  -0.541034  0  3.908989  0  0  -0.548159  0  3.912895  0  0  -0.25501  -0.535937  0  3.906224  0
C  C43  1  0.33550664  0.59386675  0.78907755  1  0  -0.465219  0  3.673284  0  0  -0.540837  0  3.908799  0  0  -0.547977  0  3.912706  0  0  -0.255043  -0.53574  0  3.906034  0
C  C44  1  0.86851991  0.77765501  0.41723383  1  0  0.767656  0  3.819052  0  0  0.721809  0  4.108526  0  0  0.757885  0  4.100842  0  0  0.221964  0.69722  0  4.112666  0
C  C45  1  0.13149586  0.22234089  0.58276557  1  0  0.767578  0  3.819338  0  0  0.721717  0  4.108817  0  0  0.757787  0  4.101127  0  0  0.22186  0.697129  0  4.112956  0
C  C46  1  0.97262022  0.57706019  0.35988810  1  0  -0.468296  0  3.650664  0  0  -0.545181  0  3.884442  0  0  -0.552627  0  3.88583  0  0  -0.251535  -0.539905  0  3.883384  0
C  C47  1  0.02738518  0.42293702  0.64011950  1  0  -0.468226  0  3.650637  0  0  -0.545145  0  3.884428  0  0  -0.552594  0  3.885806  0  0  -0.251434  -0.539847  0  3.883392  0
N  N48  1  0.69785905  0.91992544  0.69241856  1  0  -0.671181  0  3.124807  0  0  -0.621598  0  3.356047  0  0  -0.642505  0  3.358022  0  0  -0.583869  -0.606798  0  3.354542  0
N  N49  1  0.30213772  0.08006885  0.30757954  1  0  -0.671063  0  3.124844  0  0  -0.621631  0  3.35597  0  0  -0.642535  0  3.357942  0  0  -0.583848  -0.606827  0  3.354466  0
N  N50  1  0.87372388  0.09754200  0.80804490  1  0  -0.655391  0  3.120132  0  0  -0.621368  0  3.345505  0  0  -0.640557  0  3.347521  0  0  -0.603551  -0.607766  0  3.343781  0
N  N51  1  0.12628098  0.90244646  0.19195368  1  0  -0.65558  0  3.120063  0  0  -0.621482  0  3.345573  0  0  -0.640671  0  3.347589  0  0  -0.603617  -0.607877  0  3.343844  0
Cl  Cl52  1  0.20643299  0.40202768  0.09488615  1  0  -0.104807  0  1.388197  0  0  -0.076621  0  1.630795  0  0  -0.080256  0  1.626788  0  0  0.012608  -0.07394  0  1.633645  0
Cl  Cl53  1  0.79356049  0.59797103  0.90510780  1  0  -0.104866  0  1.388045  0  0  -0.076664  0  1.630638  0  0  -0.080295  0  1.626636  0  0  0.012553  -0.073981  0  1.633482  0
O  O54  1  0.82109614  0.22040249  0.34151939  1  0  -0.671969  0  1.982605  0  0  -0.597003  0  2.20696  0  0  -0.626514  0  2.199832  0  0  -0.303694  -0.576486  0  2.211328  0
O  O55  1  0.17890860  0.77960950  0.65848063  1  0  -0.671971  0  1.982504  0  0  -0.597047  0  2.206871  0  0  -0.626559  0  2.199745  0  0  -0.303705  -0.576504  0  2.211217  0
O  O56  1  0.48036184  0.38608701  0.38465718  1  0  -0.709615  0  1.915384  0  0  -0.6426  0  2.139997  0  0  -0.672512  0  2.133988  0  0  -0.318536  -0.621503  0  2.143495  0
O  O57  1  0.51963139  0.61391898  0.61534513  1  0  -0.709554  0  1.915557  0  0  -0.642533  0  2.14014  0  0  -0.672432  0  2.134101  0  0  -0.318494  -0.621439  0  2.143638  0
O  O58  1  0.68256336  0.88399701  0.41835026  1  0  -0.690915  0  1.972644  0  0  -0.612987  0  2.211502  0  0  -0.646717  0  2.205659  0  0  -0.296014  -0.588973  0  2.214613  0
O  O59  1  0.31745786  0.11599599  0.58164845  1  0  -0.690842  0  1.97284  0  0  -0.612862  0  2.211622  0  0  -0.646635  0  2.205873  0  0  -0.295907  -0.588852  0  2.214741  0
O  O60  1  0.96511862  0.84063770  0.46748350  1  0  -0.684421  0  2.015549  0  0  -0.598451  0  2.253653  0  0  -0.632654  0  2.246855  0  0  -0.289205  -0.57413  0  2.257444  0
O  O61  1  0.03489793  0.15935968  0.53251504  1  0  -0.684379  0  2.015623  0  0  -0.598425  0  2.253734  0  0  -0.632619  0  2.246937  0  0  -0.289195  -0.574102  0  2.257521  0
