# generated using pymatgen
data_KH8Au(C3N)4
_symmetry_space_group_name_H-M   'P 1'
_cell_length_a   3.75192437
_cell_length_b   9.15396910
_cell_length_c   18.84436694
_cell_angle_alpha   90.00081413
_cell_angle_beta   90.00030959
_cell_angle_gamma   100.84047603
_symmetry_Int_Tables_number   1
_chemical_formula_structural   KH8Au(C3N)4
_chemical_formula_sum   'K2 H16 Au2 C24 N8'
_cell_volume   635.66008089
_cell_formula_units_Z   2
loop_
 _symmetry_equiv_pos_site_id
 _symmetry_equiv_pos_as_xyz
  1  'x, y, z'
loop_
 _atom_site_type_symbol
 _atom_site_label
 _atom_site_symmetry_multiplicity
 _atom_site_fract_x
 _atom_site_fract_y
 _atom_site_fract_z
 _atom_site_occupancy
 _atom_site_hle17_bader_spin_density
 _atom_site_hle17_ddec_charge
 _atom_site_hle17_ddec_spin_density
 _atom_site_hle17_ddec_sum_bond_order
 _atom_site_hle17_magmom
 _atom_site_hse06_10hf_bader_spin_density
 _atom_site_hse06_10hf_ddec_charge
 _atom_site_hse06_10hf_ddec_spin_density
 _atom_site_hse06_10hf_ddec_sum_bond_order
 _atom_site_hse06_10hf_magmom
 _atom_site_hse06_bader_spin_density
 _atom_site_hse06_ddec_charge
 _atom_site_hse06_ddec_spin_density
 _atom_site_hse06_ddec_sum_bond_order
 _atom_site_hse06_magmom
 _atom_site_pbe_bader_spin_density
 _atom_site_pbe_cm5_charge
 _atom_site_pbe_ddec_charge
 _atom_site_pbe_ddec_spin_density
 _atom_site_pbe_ddec_sum_bond_order
 _atom_site_pbe_magmom
K  K0  1  0.75676674  0.24125998  0.49225710  1  0  0.884059  0  0.528332  0  0  0.804876  0  0.749141  0  0  0.821527  0  0.72836  0  0  0.83516  0.792661  0  0.763867  0
K  K1  1  0.24326309  0.75874003  0.99225468  1  0  0.884045  0  0.528276  0  0  0.804842  0  0.749118  0  0  0.821491  0  0.728334  0  0  0.835091  0.792627  0  0.763841  0
H  H2  1  0.37004485  0.85782301  0.45161236  1  0  0.111702  0  0.972026  0  0  0.1211  0  1.032848  0  0  0.123929  0  1.032696  0  0  0.108668  0.119072  0  1.033086  0
H  H3  1  0.62995349  0.14217463  0.95160723  1  0  0.111698  0  0.971951  0  0  0.121029  0  1.032869  0  0  0.123859  0  1.032709  0  0  0.108632  0.119003  0  1.033099  0
H  H4  1  0.56822174  0.92173497  0.57604935  1  0  0.090927  0  0.96462  0  0  0.101742  0  1.024018  0  0  0.103421  0  1.024012  0  0  0.106827  0.10051  0  1.024086  0
H  H5  1  0.43178610  0.07826367  0.07604339  1  0  0.091035  0  0.964541  0  0  0.101833  0  1.023945  0  0  0.103513  0  1.023937  0  0  0.106878  0.1006  0  1.024015  0
H  H6  1  0.63770981  0.71622199  0.65985038  1  0  0.088546  0  0.969345  0  0  0.096115  0  1.039373  0  0  0.09916  0  1.03814  0  0  0.096337  0.093928  0  1.040346  0
H  H7  1  0.36228288  0.28377387  0.15984735  1  0  0.088547  0  0.969356  0  0  0.096115  0  1.039373  0  0  0.099161  0  1.038142  0  0  0.096344  0.093927  0  1.040344  0
H  H8  1  0.48098890  0.45240920  0.61584208  1  0  0.066163  0  0.949313  0  0  0.076745  0  1.012195  0  0  0.078894  0  1.01075  0  0  0.113229  0.075152  0  1.013291  0
H  H9  1  0.51900461  0.54759078  0.11584155  1  0  0.066117  0  0.9493  0  0  0.076694  0  1.012194  0  0  0.07885  0  1.010742  0  0  0.113211  0.075102  0  1.013292  0
H  H10  1  0.54113068  0.77928328  0.34679625  1  0  0.096439  0  0.978593  0  0  0.102898  0  1.049616  0  0  0.105896  0  1.048617  0  0  0.094166  0.100792  0  1.050376  0
H  H11  1  0.45884843  0.22071319  0.84679199  1  0  0.096421  0  0.978517  0  0  0.102873  0  1.04957  0  0  0.105871  0  1.048572  0  0  0.094141  0.100767  0  1.050321  0
H  H12  1  0.36279059  0.70114069  0.22332716  1  0  0.084533  0  0.971845  0  0  0.093544  0  1.038253  0  0  0.095577  0  1.0371  0  0  0.095849  0.092056  0  1.039103  0
H  H13  1  0.63718288  0.29885619  0.72332310  1  0  0.084516  0  0.971717  0  0  0.093521  0  1.038146  0  0  0.095554  0  1.036994  0  0  0.095814  0.092035  0  1.038994  0
H  H14  1  0.94566162  0.45426982  0.20399089  1  0  0.089938  0  0.979369  0  0  0.101073  0  1.040917  0  0  0.103279  0  1.041793  0  0  0.100028  0.099469  0  1.040487  0
H  H15  1  0.05430998  0.54572977  0.70398893  1  0  0.089927  0  0.979328  0  0  0.101004  0  1.040955  0  0  0.10321  0  1.041833  0  0  0.100011  0.099403  0  1.040519  0
H  H16  1  0.73163093  0.29778943  0.31020606  1  0  0.060768  0  0.955142  0  0  0.066525  0  1.026095  0  0  0.068669  0  1.02467  0  0  0.106137  0.064969  0  1.02714  0
H  H17  1  0.26833547  0.70221033  0.81020647  1  0  0.060821  0  0.955155  0  0  0.066598  0  1.026113  0  0  0.068739  0  1.024692  0  0  0.106143  0.065044  0  1.027162  0
Au  Au18  1  0.99575991  0.01530374  0.74825711  1  0  0.077153  0  2.394954  0  0  0.030912  0  2.868231  0  0  0.03981  0  2.837635  0  0  0.286024  0.024845  0  2.891227  0
Au  Au19  1  0.00430132  0.98470265  0.24826111  1  0  0.077145  0  2.394722  0  0  0.030893  0  2.867985  0  0  0.039795  0  2.837395  0  0  0.28594  0.024818  0  2.89101  0
C  C20  1  0.13324797  0.09812742  0.65341000  1  0  0.055317  0  3.684836  0  0  0.060262  0  4.034483  0  0  0.065218  0  4.04444  0  0  -0.007884  0.056998  0  4.027894  0
C  C21  1  0.86683163  0.90189474  0.15340643  1  0  0.055058  0  3.684809  0  0  0.059975  0  4.034502  0  0  0.064933  0  4.044458  0  0  -0.008112  0.056713  0  4.027911  0
C  C22  1  0.86858413  0.94567668  0.84573868  1  0  0.049758  0  3.680066  0  0  0.053857  0  4.030501  0  0  0.058349  0  4.040575  0  0  -0.01041  0.050863  0  4.023897  0
C  C23  1  0.13147208  0.05433069  0.34574814  1  0  0.049715  0  3.680176  0  0  0.053825  0  4.030582  0  0  0.058313  0  4.04066  0  0  -0.010369  0.050831  0  4.023981  0
C  C24  1  0.33491621  0.62070538  0.46794586  1  0  0.186846  0  3.745657  0  0  0.187529  0  3.988977  0  0  0.193597  0  4.007807  0  0  0.122626  0.183439  0  3.976186  0
C  C25  1  0.66507110  0.37929059  0.96794291  1  0  0.186686  0  3.745525  0  0  0.187339  0  3.988857  0  0  0.193404  0  4.007691  0  0  0.122599  0.183253  0  3.976052  0
C  C26  1  0.40642095  0.77060238  0.48878765  1  0  -0.140323  0  3.672453  0  0  -0.155215  0  3.909709  0  0  -0.161757  0  3.930547  0  0  -0.075688  -0.15094  0  3.895669  0
C  C27  1  0.59357255  0.22939426  0.98878466  1  0  -0.140168  0  3.672426  0  0  -0.154968  0  3.909624  0  0  -0.161501  0  3.930459  0  0  -0.075592  -0.150687  0  3.89557  0
C  C28  1  0.51468228  0.80650517  0.55830569  1  0  0.003173  0  3.723811  0  0  -0.011991  0  3.964214  0  0  -0.009611  0  3.984857  0  0  -0.063611  -0.013233  0  3.950006  0
C  C29  1  0.48531366  0.19349180  0.05830111  1  0  0.003099  0  3.723856  0  0  -0.012061  0  3.964219  0  0  -0.009683  0  3.984862  0  0  -0.063586  -0.013309  0  3.95001  0
C  C30  1  0.54894920  0.69231346  0.60526365  1  0  -0.131398  0  3.762977  0  0  -0.141898  0  4.01038  0  0  -0.149185  0  4.033788  0  0  -0.089035  -0.137123  0  3.994547  0
C  C31  1  0.45105080  0.30768393  0.10526087  1  0  -0.13148  0  3.762975  0  0  -0.141968  0  4.010369  0  0  -0.14926  0  4.033784  0  0  -0.089128  -0.137196  0  3.994555  0
C  C32  1  0.46489045  0.54612081  0.58064991  1  0  0.104557  0  3.776636  0  0  0.081333  0  4.032952  0  0  0.086669  0  4.051471  0  0  0.035861  0.07799  0  4.020174  0
C  C33  1  0.53511120  0.45387578  0.08064876  1  0  0.104597  0  3.77655  0  0  0.081369  0  4.032872  0  0  0.086702  0  4.051391  0  0  0.035891  0.078028  0  4.020097  0
C  C34  1  0.22890565  0.57870773  0.39352235  1  0  0.183945  0  3.748365  0  0  0.184597  0  3.99101  0  0  0.190929  0  4.009543  0  0  0.122393  0.180378  0  3.978369  0
C  C35  1  0.77107699  0.42128804  0.89351928  1  0  0.183754  0  3.748652  0  0  0.184444  0  3.991248  0  0  0.190777  0  4.009783  0  0  0.122355  0.180243  0  3.978588  0
C  C36  1  0.35806928  0.67388506  0.33705283  1  0  -0.149014  0  3.714057  0  0  -0.165523  0  3.958023  0  0  -0.17297  0  3.981082  0  0  -0.087522  -0.16058  0  3.942285  0
C  C37  1  0.64191742  0.32611107  0.83704843  1  0  -0.148748  0  3.714067  0  0  -0.165271  0  3.958034  0  0  -0.17272  0  3.981097  0  0  -0.087358  -0.160334  0  3.942289  0
C  C38  1  0.26015137  0.62963091  0.26792109  1  0  -0.020449  0  3.768998  0  0  -0.035905  0  4.014525  0  0  -0.033865  0  4.035441  0  0  -0.079673  -0.036895  0  4.000062  0
C  C39  1  0.73983192  0.37036741  0.76791869  1  0  -0.020515  0  3.769142  0  0  -0.035979  0  4.014684  0  0  -0.033938  0  4.035601  0  0  -0.079695  -0.036976  0  4.000221  0
C  C40  1  0.03177608  0.49281521  0.25706844  1  0  -0.132589  0  3.752823  0  0  -0.140233  0  3.991169  0  0  -0.147551  0  4.01501  0  0  -0.09199  -0.135407  0  3.975032  0
C  C41  1  0.96819930  0.50718389  0.75706564  1  0  -0.132527  0  3.752954  0  0  -0.140083  0  3.991289  0  0  -0.147401  0  4.015132  0  0  -0.091915  -0.135257  0  3.97515  0
C  C42  1  0.91371054  0.40528584  0.31621151  1  0  0.129662  0  3.75419  0  0  0.107424  0  4.007673  0  0  0.112584  0  4.026772  0  0  0.043939  0.104187  0  3.994432  0
C  C43  1  0.08625611  0.59471411  0.81621151  1  0  0.129528  0  3.754278  0  0  0.107235  0  4.007769  0  0  0.112394  0  4.026867  0  0  0.043831  0.103988  0  3.994562  0
N  N44  1  0.22142408  0.15467591  0.59868778  1  0  -0.516322  0  2.843055  0  0  -0.467684  0  3.093484  0  0  -0.482465  0  3.109123  0  0  -0.49507  -0.457448  0  3.082597  0
N  N45  1  0.77862989  0.84533449  0.09868321  1  0  -0.516094  0  2.84304  0  0  -0.46743  0  3.09343  0  0  -0.482215  0  3.109068  0  0  -0.49482  -0.45719  0  3.082544  0
N  N46  1  0.79753016  0.91078197  0.90469937  1  0  -0.501754  0  2.83457  0  0  -0.451735  0  3.079823  0  0  -0.466198  0  3.096188  0  0  -0.493925  -0.4417  0  3.068463  0
N  N47  1  0.20251306  0.08922293  0.40470757  1  0  -0.501662  0  2.834837  0  0  -0.451661  0  3.080093  0  0  -0.466126  0  3.096462  0  0  -0.493961  -0.441624  0  3.068734  0
N  N48  1  0.35928201  0.50935833  0.51386531  1  0  -0.401094  0  3.127102  0  0  -0.365421  0  3.40088  0  0  -0.377347  0  3.416191  0  0  -0.385863  -0.357138  0  3.390267  0
N  N49  1  0.64070198  0.49063833  0.01386400  1  0  -0.40101  0  3.126873  0  0  -0.365335  0  3.400654  0  0  -0.37726  0  3.415968  0  0  -0.385887  -0.357059  0  3.390046  0
N  N50  1  0.01026876  0.44554441  0.38284113  1  0  -0.370561  0  3.105455  0  0  -0.334917  0  3.374952  0  0  -0.346549  0  3.390415  0  0  -0.386511  -0.32683  0  3.364247  0
N  N51  1  0.98970384  0.55445326  0.88283974  1  0  -0.370488  0  3.105499  0  0  -0.334843  0  3.374983  0  0  -0.346474  0  3.390446  0  0  -0.386516  -0.326764  0  3.364285  0
