# generated using pymatgen
data_YbPH6C2O7
_symmetry_space_group_name_H-M   'P 1'
_cell_length_a   6.78741471
_cell_length_b   6.97562991
_cell_length_c   15.25848108
_cell_angle_alpha   90.00004642
_cell_angle_beta   90.00130083
_cell_angle_gamma   90.00026128
_symmetry_Int_Tables_number   1
_chemical_formula_structural   YbPH6C2O7
_chemical_formula_sum   'Yb4 P4 H24 C8 O28'
_cell_volume   722.43556778
_cell_formula_units_Z   4
loop_
 _symmetry_equiv_pos_site_id
 _symmetry_equiv_pos_as_xyz
  1  'x, y, z'
loop_
 _atom_site_type_symbol
 _atom_site_label
 _atom_site_symmetry_multiplicity
 _atom_site_fract_x
 _atom_site_fract_y
 _atom_site_fract_z
 _atom_site_occupancy
 _atom_site_hle17_bader_spin_density
 _atom_site_hle17_ddec_charge
 _atom_site_hle17_ddec_spin_density
 _atom_site_hle17_ddec_sum_bond_order
 _atom_site_hle17_magmom
 _atom_site_hse06_10hf_bader_spin_density
 _atom_site_hse06_10hf_ddec_charge
 _atom_site_hse06_10hf_ddec_spin_density
 _atom_site_hse06_10hf_ddec_sum_bond_order
 _atom_site_hse06_10hf_magmom
 _atom_site_hse06_bader_spin_density
 _atom_site_hse06_ddec_charge
 _atom_site_hse06_ddec_spin_density
 _atom_site_hse06_ddec_sum_bond_order
 _atom_site_hse06_magmom
 _atom_site_pbe_bader_spin_density
 _atom_site_pbe_cm5_charge
 _atom_site_pbe_ddec_charge
 _atom_site_pbe_ddec_spin_density
 _atom_site_pbe_ddec_sum_bond_order
 _atom_site_pbe_magmom
Yb  Yb0  1  0.74999631  0.50462644  0.85496512  1  0  2.274178  0  1.838474  0  0  2.204539  0  2.182474  0  0  2.252715  0  2.130943  0  0  1.631736  2.172718  0  2.211181  0
Yb  Yb1  1  0.25000414  0.00462726  0.64503205  1  0  2.274162  0  1.838436  0  0  2.204565  0  2.182366  0  0  2.252754  0  2.130817  0  0  1.631744  2.172742  0  2.211073  0
Yb  Yb2  1  0.25000872  0.49537388  0.14503414  1  0  2.274171  0  1.838402  0  0  2.204576  0  2.182328  0  0  2.252725  0  2.130834  0  0  1.631729  2.172756  0  2.211036  0
Yb  Yb3  1  0.74999500  0.99537592  0.35496721  1  0  2.274166  0  1.838465  0  0  2.204575  0  2.182399  0  0  2.252752  0  2.130855  0  0  1.631707  2.172752  0  2.211111  0
P  P4  1  0.25000612  0.68743316  0.83423842  1  0  1.671365  0  4.773065  0  0  1.525761  0  5.266904  0  0  1.575854  0  5.226069  0  0  0.375836  1.490256  0  5.295476  0
P  P5  1  0.75000401  0.18743914  0.66577127  1  0  1.671616  0  4.772766  0  0  1.526025  0  5.266719  0  0  1.576121  0  5.225883  0  0  0.375939  1.490537  0  5.295267  0
P  P6  1  0.75000480  0.31256286  0.16575953  1  0  1.671283  0  4.773136  0  0  1.525689  0  5.266992  0  0  1.575783  0  5.226146  0  0  0.375783  1.490185  0  5.295562  0
P  P7  1  0.24999218  0.81256261  0.33422799  1  0  1.671595  0  4.772806  0  0  1.525927  0  5.266927  0  0  1.576018  0  5.2261  0  0  0.375936  1.490457  0  5.29544  0
H  H8  1  0.86390314  0.81817245  0.72774143  1  0  0.454773  0  0.817486  0  0  0.426016  0  0.881949  0  0  0.436153  0  0.866847  0  0  0.323865  0.418572  0  0.893053  0
H  H9  1  0.13609287  0.31817013  0.77226569  1  0  0.454777  0  0.817315  0  0  0.426015  0  0.881929  0  0  0.436157  0  0.866817  0  0  0.323847  0.41857  0  0.893033  0
H  H10  1  0.36391323  0.18182694  0.27225964  1  0  0.454734  0  0.817421  0  0  0.425962  0  0.882026  0  0  0.436104  0  0.866916  0  0  0.323832  0.41852  0  0.893127  0
H  H11  1  0.63608904  0.68182394  0.22773963  1  0  0.454741  0  0.817382  0  0  0.425973  0  0.882001  0  0  0.436117  0  0.866887  0  0  0.323844  0.41853  0  0.893103  0
H  H12  1  0.13610189  0.18183216  0.27225980  1  0  0.454803  0  0.81748  0  0  0.42605  0  0.881913  0  0  0.436189  0  0.866808  0  0  0.323885  0.418605  0  0.893019  0
H  H13  1  0.86390774  0.68182302  0.22773554  1  0  0.454738  0  0.817389  0  0  0.425976  0  0.881991  0  0  0.436119  0  0.866879  0  0  0.323829  0.418532  0  0.893095  0
H  H14  1  0.63609180  0.81817481  0.72774093  1  0  0.454727  0  0.81747  0  0  0.425967  0  0.88201  0  0  0.436106  0  0.866905  0  0  0.323835  0.418524  0  0.893114  0
H  H15  1  0.36391009  0.31817781  0.77226225  1  0  0.454814  0  0.817292  0  0  0.42604  0  0.881919  0  0  0.436185  0  0.866801  0  0  0.323856  0.418598  0  0.893019  0
H  H16  1  0.87242677  0.71998856  0.00570563  1  0  0.456848  0  0.838364  0  0  0.426507  0  0.899792  0  0  0.437828  0  0.883483  0  0  0.301209  0.418266  0  0.91166  0
H  H17  1  0.12755947  0.21998088  0.49429431  1  0  0.456832  0  0.838377  0  0  0.426531  0  0.899748  0  0  0.437854  0  0.883436  0  0  0.301241  0.418284  0  0.911627  0
H  H18  1  0.37245648  0.28000944  0.99429028  1  0  0.456785  0  0.838385  0  0  0.426461  0  0.899795  0  0  0.437785  0  0.883484  0  0  0.301212  0.418212  0  0.911681  0
H  H19  1  0.62754524  0.78001315  0.50570371  1  0  0.456824  0  0.838354  0  0  0.42651  0  0.899747  0  0  0.437835  0  0.883433  0  0  0.301258  0.41826  0  0.911634  0
H  H20  1  0.12757237  0.28001176  0.99429429  1  0  0.456872  0  0.83834  0  0  0.426544  0  0.899752  0  0  0.437865  0  0.883443  0  0  0.301213  0.418299  0  0.911629  0
H  H21  1  0.87242346  0.78001801  0.50570495  1  0  0.456816  0  0.83841  0  0  0.426453  0  0.899883  0  0  0.437776  0  0.883573  0  0  0.301208  0.418209  0  0.911758  0
H  H22  1  0.62754266  0.71998657  0.00571291  1  0  0.456843  0  0.838325  0  0  0.426528  0  0.899714  0  0  0.437852  0  0.883403  0  0  0.301237  0.41828  0  0.911597  0
H  H23  1  0.37244211  0.21998573  0.49429686  1  0  0.456709  0  0.838495  0  0  0.426357  0  0.899961  0  0  0.437681  0  0.883649  0  0  0.301176  0.418111  0  0.911841  0
H  H24  1  0.38198984  0.95217808  0.91529438  1  0  0.179404  0  0.918104  0  0  0.191768  0  0.967009  0  0  0.195553  0  0.965605  0  0  0.124676  0.189008  0  0.968238  0
H  H25  1  0.61805688  0.45216038  0.58470622  1  0  0.17955  0  0.918285  0  0  0.191901  0  0.967201  0  0  0.195676  0  0.965821  0  0  0.124728  0.189171  0  0.96839  0
H  H26  1  0.88197579  0.04783430  0.08470031  1  0  0.179467  0  0.918136  0  0  0.191835  0  0.967032  0  0  0.195609  0  0.965648  0  0  0.124701  0.189076  0  0.968257  0
H  H27  1  0.11800229  0.54783648  0.41529170  1  0  0.179511  0  0.917982  0  0  0.191898  0  0.966881  0  0  0.195681  0  0.96549  0  0  0.124671  0.189136  0  0.968112  0
H  H28  1  0.61803435  0.04781650  0.08470422  1  0  0.179374  0  0.918128  0  0  0.191753  0  0.967028  0  0  0.195522  0  0.965652  0  0  0.124641  0.189004  0  0.96824  0
H  H29  1  0.38194373  0.54784137  0.41529500  1  0  0.179577  0  0.91827  0  0  0.191928  0  0.967175  0  0  0.195701  0  0.965797  0  0  0.124721  0.189196  0  0.968365  0
H  H30  1  0.11804987  0.95216888  0.91529698  1  0  0.179545  0  0.918289  0  0  0.191861  0  0.967202  0  0  0.195633  0  0.965823  0  0  0.124707  0.189116  0  0.968408  0
H  H31  1  0.88199095  0.45215810  0.58470297  1  0  0.179511  0  0.918058  0  0  0.191897  0  0.966956  0  0  0.195682  0  0.965562  0  0  0.124708  0.189137  0  0.968183  0
C  C32  1  0.24998967  0.86318797  0.92405539  1  0  -0.610367  0  3.598729  0  0  -0.619582  0  3.827572  0  0  -0.634558  0  3.827848  0  0  -0.162033  -0.60949  0  3.827794  0
C  C33  1  0.75000360  0.36317659  0.57594388  1  0  -0.610358  0  3.598606  0  0  -0.619794  0  3.827614  0  0  -0.63479  0  3.827902  0  0  -0.162058  -0.609715  0  3.827837  0
C  C34  1  0.75001242  0.13681377  0.07594387  1  0  -0.610164  0  3.598455  0  0  -0.619492  0  3.827353  0  0  -0.634461  0  3.827629  0  0  -0.161979  -0.609396  0  3.827579  0
C  C35  1  0.24999702  0.63682373  0.42405407  1  0  -0.610558  0  3.598497  0  0  -0.619908  0  3.827495  0  0  -0.634902  0  3.827782  0  0  -0.16204  -0.609827  0  3.827717  0
C  C36  1  0.25003840  0.77105352  0.01275693  1  0  0.766236  0  3.833799  0  0  0.712579  0  4.143459  0  0  0.747883  0  4.133037  0  0  0.214852  0.68833  0  4.150355  0
C  C37  1  0.74996723  0.27102855  0.48724565  1  0  0.766135  0  3.833917  0  0  0.712682  0  4.143339  0  0  0.747992  0  4.13291  0  0  0.214885  0.688429  0  4.150243  0
C  C38  1  0.74997105  0.22895540  0.98724561  1  0  0.766295  0  3.833538  0  0  0.712708  0  4.143129  0  0  0.748013  0  4.132704  0  0  0.214927  0.688456  0  4.150029  0
C  C39  1  0.25001570  0.72897033  0.51275361  1  0  0.766337  0  3.833932  0  0  0.71275  0  4.143555  0  0  0.748065  0  4.133118  0  0  0.21486  0.688494  0  4.150462  0
O  O40  1  0.74999863  0.74765385  0.75088207  1  0  -0.903743  0  1.851021  0  0  -0.863185  0  2.038832  0  0  -0.880504  0  2.005151  0  0  -0.634257  -0.851107  0  2.062281  0
O  O41  1  0.25000441  0.24765057  0.74912305  1  0  -0.903851  0  1.850653  0  0  -0.863324  0  2.038584  0  0  -0.880651  0  2.0049  0  0  -0.63424  -0.851246  0  2.062042  0
O  O42  1  0.25000492  0.25234933  0.24911916  1  0  -0.903795  0  1.850993  0  0  -0.863247  0  2.038785  0  0  -0.880563  0  2.005106  0  0  -0.634272  -0.851167  0  2.062242  0
O  O43  1  0.75000209  0.75234688  0.25087817  1  0  -0.903733  0  1.850761  0  0  -0.863191  0  2.038678  0  0  -0.880514  0  2.004996  0  0  -0.634205  -0.851112  0  2.062135  0
O  O44  1  0.75000706  0.70566932  0.96932910  1  0  -0.969921  0  1.820135  0  0  -0.93313  0  2.019662  0  0  -0.953917  0  1.98558  0  0  -0.686267  -0.918436  0  2.0433  0
O  O45  1  0.24998548  0.20567137  0.53067666  1  0  -0.969749  0  1.820171  0  0  -0.932922  0  2.019562  0  0  -0.953713  0  1.985477  0  0  -0.686244  -0.918228  0  2.043201  0
O  O46  1  0.24998913  0.29432670  0.03067213  1  0  -0.969878  0  1.820166  0  0  -0.933095  0  2.019642  0  0  -0.953875  0  1.98556  0  0  -0.686239  -0.9184  0  2.043284  0
O  O47  1  0.75000334  0.79432752  0.46932260  1  0  -0.969868  0  1.820198  0  0  -0.933037  0  2.019641  0  0  -0.953822  0  1.985553  0  0  -0.68629  -0.918344  0  2.043284  0
O  O48  1  0.43599880  0.56440670  0.84194128  1  0  -0.993981  0  1.998797  0  0  -0.925097  0  2.266196  0  0  -0.952152  0  2.244689  0  0  -0.498734  -0.906051  0  2.280433  0
O  O49  1  0.56399751  0.06440753  0.65806181  1  0  -0.99414  0  1.998542  0  0  -0.925268  0  2.265948  0  0  -0.95232  0  2.244434  0  0  -0.498825  -0.906226  0  2.280188  0
O  O50  1  0.93600059  0.43558299  0.15805920  1  0  -0.993912  0  1.998796  0  0  -0.925044  0  2.26619  0  0  -0.952091  0  2.244682  0  0  -0.498683  -0.905998  0  2.280428  0
O  O51  1  0.06399990  0.93560485  0.34193426  1  0  -0.994023  0  1.998675  0  0  -0.925143  0  2.266091  0  0  -0.952193  0  2.244577  0  0  -0.49877  -0.906106  0  2.280329  0
O  O52  1  0.56400476  0.43558788  0.15805667  1  0  -0.994028  0  1.998698  0  0  -0.925131  0  2.266074  0  0  -0.952179  0  2.244566  0  0  -0.498765  -0.906087  0  2.280313  0
O  O53  1  0.43600163  0.93558992  0.34193745  1  0  -0.994114  0  1.998522  0  0  -0.925214  0  2.265937  0  0  -0.952265  0  2.244424  0  0  -0.498812  -0.906177  0  2.280175  0
O  O54  1  0.06399560  0.56442450  0.84194399  1  0  -0.994015  0  1.998664  0  0  -0.925121  0  2.26605  0  0  -0.952173  0  2.244541  0  0  -0.498748  -0.906075  0  2.280287  0
O  O55  1  0.93599481  0.06439833  0.65806500  1  0  -0.994038  0  1.998594  0  0  -0.925164  0  2.265986  0  0  -0.952215  0  2.244472  0  0  -0.49875  -0.906121  0  2.280224  0
O  O56  1  0.25000571  0.80508267  0.74975428  1  0  -1.012133  0  2.002708  0  0  -0.952677  0  2.283851  0  0  -0.978434  0  2.259033  0  0  -0.525946  -0.934369  0  2.299986  0
O  O57  1  0.75000201  0.30509167  0.75024366  1  0  -1.012286  0  2.003072  0  0  -0.952808  0  2.28424  0  0  -0.97856  0  2.259418  0  0  -0.525965  -0.934509  0  2.300379  0
O  O58  1  0.74999637  0.19491048  0.25024236  1  0  -1.012159  0  2.002729  0  0  -0.952699  0  2.283867  0  0  -0.978454  0  2.259047  0  0  -0.52592  -0.934393  0  2.300005  0
O  O59  1  0.24999418  0.69491008  0.24975691  1  0  -1.012239  0  2.003071  0  0  -0.952779  0  2.28429  0  0  -0.978524  0  2.259469  0  0  -0.525945  -0.934484  0  2.300428  0
O  O60  1  0.41143062  0.72569458  0.05095879  1  0  -0.704611  0  2.004777  0  0  -0.656087  0  2.242429  0  0  -0.681636  0  2.230488  0  0  -0.357802  -0.638492  0  2.250125  0
O  O61  1  0.58857039  0.22567885  0.44904968  1  0  -0.704556  0  2.004866  0  0  -0.656069  0  2.242425  0  0  -0.681618  0  2.230477  0  0  -0.357795  -0.638474  0  2.250124  0
O  O62  1  0.91144845  0.27432080  0.94903752  1  0  -0.705127  0  2.002962  0  0  -0.656641  0  2.240589  0  0  -0.682205  0  2.228649  0  0  -0.35818  -0.63904  0  2.248289  0
O  O63  1  0.08853409  0.77432504  0.55096172  1  0  -0.705117  0  2.003123  0  0  -0.656602  0  2.24075  0  0  -0.682169  0  2.228805  0  0  -0.358161  -0.639  0  2.248449  0
O  O64  1  0.58858031  0.27431004  0.94904375  1  0  -0.704712  0  2.004781  0  0  -0.656181  0  2.242401  0  0  -0.681733  0  2.230457  0  0  -0.357873  -0.638585  0  2.250099  0
O  O65  1  0.41141107  0.77431860  0.55095155  1  0  -0.704672  0  2.004934  0  0  -0.656161  0  2.242552  0  0  -0.681715  0  2.230603  0  0  -0.357858  -0.638564  0  2.250256  0
O  O66  1  0.08855952  0.72568095  0.05095519  1  0  -0.70512  0  2.003111  0  0  -0.656605  0  2.24078  0  0  -0.682161  0  2.228836  0  0  -0.35815  -0.639004  0  2.248468  0
O  O67  1  0.91144885  0.22567527  0.44903885  1  0  -0.705144  0  2.003179  0  0  -0.656707  0  2.240733  0  0  -0.682271  0  2.228786  0  0  -0.358229  -0.639103  0  2.248431  0
