# generated using pymatgen
data_CoH6(C3N2)2
_symmetry_space_group_name_H-M   'P 1'
_cell_length_a   14.67669267
_cell_length_b   15.38581423
_cell_length_c   18.29948439
_cell_angle_alpha   89.99980701
_cell_angle_beta   89.99982543
_cell_angle_gamma   89.99999934
_symmetry_Int_Tables_number   1
_chemical_formula_structural   CoH6(C3N2)2
_chemical_formula_sum   'Co16 H96 C96 N64'
_cell_volume   4132.25903511
_cell_formula_units_Z   16
loop_
 _symmetry_equiv_pos_site_id
 _symmetry_equiv_pos_as_xyz
  1  'x, y, z'
loop_
 _atom_site_type_symbol
 _atom_site_label
 _atom_site_symmetry_multiplicity
 _atom_site_fract_x
 _atom_site_fract_y
 _atom_site_fract_z
 _atom_site_occupancy
 _atom_site_pbe_bader_charge
 _atom_site_pbe_bader_spin_density
 _atom_site_pbe_cm5_charge
 _atom_site_pbe_ddec_charge
 _atom_site_pbe_ddec_spin_density
 _atom_site_pbe_ddec_sum_bond_order
 _atom_site_pbe_magmom
Co  Co0  1  0.52793782  0.35208343  0.31690068  1  1.129059  2.534713  0.712678  0.649751  2.760399  2.764435  2.459
Co  Co1  1  0.97206077  0.64791727  0.81690014  1  1.129012  2.534729  0.712666  0.649739  2.760409  2.764379  2.459
Co  Co2  1  0.47205968  0.85208193  0.18310010  1  1.129029  2.534732  0.712632  0.649703  2.760413  2.764431  2.459
Co  Co3  1  0.02794028  0.14791671  0.68309988  1  1.12903  2.534734  0.712608  0.64965  2.760418  2.76443  2.459
Co  Co4  1  0.47205669  0.64791819  0.68309808  1  1.129043  2.534734  0.712586  0.649658  2.760412  2.764416  2.459
Co  Co5  1  0.02794055  0.35208305  0.18309861  1  1.128976  2.534726  0.712635  0.649682  2.760398  2.764505  2.459
Co  Co6  1  0.52794369  0.14791774  0.81690085  1  1.129032  2.534725  0.712562  0.649607  2.760409  2.764519  2.459
Co  Co7  1  0.97206036  0.85208361  0.31689998  1  1.129033  2.534715  0.712647  0.649684  2.760401  2.76447  2.459
Co  Co8  1  0.21548376  0.13991055  0.39671727  1  1.121465  2.534674  0.709692  0.645989  2.759245  2.76828  2.458
Co  Co9  1  0.28451880  0.86008983  0.89671823  1  1.121512  2.534661  0.709726  0.646036  2.759232  2.768367  2.458
Co  Co10  1  0.78451647  0.63991002  0.10328410  1  1.121509  2.53467  0.709703  0.646032  2.75924  2.768294  2.458
Co  Co11  1  0.71548430  0.36009088  0.60328064  1  1.121512  2.534674  0.709682  0.646023  2.75925  2.768332  2.458
Co  Co12  1  0.78451892  0.86009107  0.60328258  1  1.121565  2.534667  0.709705  0.64603  2.759241  2.768324  2.458
Co  Co13  1  0.71548457  0.13991049  0.10328380  1  1.121526  2.534668  0.709694  0.646053  2.759238  2.768316  2.458
Co  Co14  1  0.21548213  0.36008964  0.89671684  1  1.12153  2.534669  0.70969  0.646003  2.759242  2.768323  2.458
Co  Co15  1  0.28451430  0.63991074  0.39671812  1  1.121414  2.53467  0.709697  0.646076  2.759236  2.768251  2.458
H  H16  1  0.32930924  0.29358665  0.33728409  1  0.103522  0.001268  0.12316  0.081941  9.5e-05  1.041681  0.001
H  H17  1  0.17069218  0.70640683  0.83728085  1  0.103355  0.001268  0.123115  0.081881  9.5e-05  1.041725  0.001
H  H18  1  0.67069030  0.79358718  0.16271685  1  0.103515  0.001268  0.123128  0.081909  9.5e-05  1.041764  0.001
H  H19  1  0.82930820  0.20641153  0.66271518  1  0.103474  0.001268  0.123166  0.081961  9.5e-05  1.041717  0.001
H  H20  1  0.67069003  0.70640717  0.66271794  1  0.103447  0.001268  0.123129  0.081925  9.5e-05  1.041665  0.001
H  H21  1  0.82931051  0.29358959  0.16271518  1  0.103525  0.001268  0.123159  0.08193  9.5e-05  1.041694  0.001
H  H22  1  0.32930966  0.20640664  0.83728082  1  0.103399  0.001268  0.123116  0.081905  9.5e-05  1.041685  0.001
H  H23  1  0.17068972  0.79358813  0.33728358  1  0.103518  0.001268  0.123162  0.081929  9.5e-05  1.04173  0.001
H  H24  1  0.56951655  0.15242731  0.38037155  1  0.107689  0.002003  0.110781  0.098443  0.000701  1.017129  0.001
H  H25  1  0.93048997  0.84757444  0.88037219  1  0.107831  0.002003  0.110825  0.098435  0.000701  1.017116  0.001
H  H26  1  0.43048368  0.65242672  0.11962815  1  0.107694  0.002003  0.110795  0.098428  0.000701  1.017168  0.001
H  H27  1  0.06951585  0.34757088  0.61962617  1  0.107728  0.002003  0.110794  0.098467  0.000701  1.017088  0.001
H  H28  1  0.43049022  0.84757691  0.61962666  1  0.107804  0.002003  0.110826  0.098434  0.000701  1.017155  0.001
H  H29  1  0.06951680  0.15242718  0.11962711  1  0.107696  0.002004  0.110792  0.098464  0.000701  1.017104  0.001
H  H30  1  0.56951083  0.34757490  0.88037225  1  0.1078  0.002003  0.110835  0.098472  0.000701  1.017122  0.001
H  H31  1  0.93048275  0.65242879  0.38037423  1  0.107692  0.002004  0.110782  0.098455  0.000701  1.017148  0.001
H  H32  1  0.42016130  0.05296418  0.42028612  1  0.100647  0.002318  0.110761  0.099901  0.000874  1.021233  0.001
H  H33  1  0.07984934  0.94703026  0.92028624  1  0.100748  0.002318  0.110805  0.099985  0.000875  1.021191  0.001
H  H34  1  0.57984029  0.55296570  0.07971278  1  0.100662  0.002318  0.110772  0.099925  0.000874  1.021219  0.001
H  H35  1  0.92016056  0.44703270  0.57971020  1  0.100671  0.002318  0.110772  0.099941  0.000874  1.02118  0.001
H  H36  1  0.57985024  0.94703159  0.57971264  1  0.100694  0.002319  0.110792  0.099957  0.000875  1.021194  0.001
H  H37  1  0.92016015  0.05296681  0.07971361  1  0.100691  0.002318  0.110781  0.099944  0.000874  1.021223  0.001
H  H38  1  0.42015149  0.44702942  0.92028762  1  0.100748  0.002319  0.110799  0.099977  0.000875  1.021122  0.001
H  H39  1  0.07983939  0.55296762  0.42029074  1  0.10067  0.002318  0.110775  0.099941  0.000875  1.021173  0.001
H  H40  1  0.58348682  0.29275378  0.47760632  1  0.124936  0.00112  0.12422  0.081746  0.00012  1.022686  0.001
H  H41  1  0.91651730  0.70724563  0.97761012  1  0.124861  0.00112  0.12427  0.08184  0.00012  1.022671  0.001
H  H42  1  0.41651205  0.79275293  0.02239353  1  0.12493  0.00112  0.12422  0.081709  0.00012  1.02268  0.001
H  H43  1  0.08348512  0.20724376  0.52239192  1  0.124954  0.00112  0.12422  0.081776  0.00012  1.022648  0.001
H  H44  1  0.41651382  0.70724264  0.52239026  1  0.124943  0.00112  0.124231  0.081778  0.000121  1.022676  0.001
H  H45  1  0.08348879  0.29275534  0.02239356  1  0.124984  0.00112  0.124229  0.08175  0.00012  1.022717  0.001
H  H46  1  0.58348518  0.20724674  0.97761014  1  0.124849  0.00112  0.124233  0.081782  0.00012  1.022657  0.001
H  H47  1  0.91651211  0.79275461  0.47760629  1  0.124962  0.00112  0.124227  0.081734  0.00012  1.022739  0.001
H  H48  1  0.67840013  0.50000404  0.34773777  1  0.088926  0.002458  0.111287  0.100666  0.000996  1.028982  0.001
H  H49  1  0.82159630  0.49999979  0.84774075  1  0.089066  0.002457  0.111288  0.100601  0.000997  1.029  0.001
H  H50  1  0.32159873  0.00000294  0.15226127  1  0.08898  0.002458  0.111304  0.10072  0.000996  1.02895  0.001
H  H51  1  0.17840340  0.99999609  0.65226024  1  0.088983  0.002458  0.111302  0.100712  0.000996  1.028982  0.001
H  H52  1  0.32159642  0.49999563  0.65225990  1  0.088971  0.002458  0.111285  0.100687  0.000996  1.02903  0.001
H  H53  1  0.17840298  0.50000508  0.15226019  1  0.08896  0.002458  0.111305  0.100702  0.000996  1.028994  0.001
H  H54  1  0.67840327  0.99999960  0.84774164  1  0.089078  0.002458  0.111276  0.100569  0.000997  1.029049  0.001
H  H55  1  0.82159793  0.00000450  0.34773830  1  0.089439  0.002457  0.111275  0.100673  0.000996  1.029011  0.001
H  H56  1  0.76853258  0.50233254  0.48139060  1  0.056607  0.002595  0.110061  0.09991  0.00098  1.018639  0.001
H  H57  1  0.73147083  0.49766815  0.98139818  1  0.056646  0.002595  0.110053  0.09993  0.00098  1.018614  0.001
H  H58  1  0.23146696  0.00233198  0.01860734  1  0.056586  0.002595  0.11006  0.099887  0.00098  1.018664  0.001
H  H59  1  0.26853771  0.99767122  0.51860740  1  0.056616  0.002594  0.110065  0.099879  0.00098  1.018681  0.001
H  H60  1  0.23145988  0.49767103  0.51860871  1  0.056579  0.002594  0.110047  0.099844  0.00098  1.018793  0.001
H  H61  1  0.26853594  0.50233282  0.01860713  1  0.056523  0.002594  0.110049  0.09985  0.00098  1.018744  0.001
H  H62  1  0.76852891  0.99766639  0.98139907  1  0.05663  0.002596  0.110069  0.099914  0.00098  1.018559  0.001
H  H63  1  0.73146770  0.00233365  0.48139299  1  0.056562  0.002595  0.110056  0.099867  0.00098  1.018681  0.001
H  H64  1  0.42426714  0.48810138  0.41543454  1  0.135184  0.001397  0.125719  0.084007  0.000267  1.011409  0.001
H  H65  1  0.07573876  0.51190413  0.91543372  1  0.135732  0.001397  0.125705  0.083978  0.000268  1.011481  0.001
H  H66  1  0.57573581  0.98809508  0.08456367  1  0.135627  0.001397  0.125691  0.083952  0.000267  1.011453  0.001
H  H67  1  0.92426230  0.01190590  0.58456614  1  0.135722  0.001397  0.125703  0.083969  0.000267  1.011505  0.001
H  H68  1  0.57573555  0.51190674  0.58455876  1  0.135517  0.001397  0.125658  0.083929  0.000268  1.011346  0.001
H  H69  1  0.92426393  0.48809684  0.08456450  1  0.135636  0.001397  0.125712  0.083985  0.000268  1.011419  0.001
H  H70  1  0.42426687  0.01190004  0.91543947  1  0.135067  0.001397  0.125692  0.083982  0.000267  1.011354  0.001
H  H71  1  0.07573493  0.98809572  0.41543535  1  0.135178  0.001397  0.1257  0.083967  0.000268  1.011459  0.001
H  H72  1  0.39816018  0.43514071  0.19027748  1  0.137484  0.002071  0.113749  0.106207  0.000714  1.011364  0.001
H  H73  1  0.10183362  0.56485725  0.69027426  1  0.137027  0.002072  0.11372  0.106102  0.000714  1.011452  0.001
H  H74  1  0.60183663  0.93513741  0.30972142  1  0.137585  0.002071  0.11374  0.106182  0.000714  1.011402  0.001
H  H75  1  0.89816471  0.06485812  0.80972545  1  0.137331  0.002071  0.113748  0.106163  0.000714  1.011382  0.001
H  H76  1  0.60182683  0.56485961  0.80972018  1  0.137186  0.002073  0.113729  0.10616  0.000715  1.011221  0.001
H  H77  1  0.89816634  0.43513917  0.30972286  1  0.13757  0.002071  0.11373  0.106158  0.000714  1.011406  0.001
H  H78  1  0.39817082  0.06486421  0.69028062  1  0.137324  0.002073  0.113757  0.106179  0.000715  1.011294  0.001
H  H79  1  0.10183525  0.93514285  0.19027713  1  0.137088  0.002072  0.113735  0.106162  0.000714  1.011384  0.001
H  H80  1  0.27616737  0.56569401  0.22943866  1  0.070634  0.002211  0.111481  0.09988  0.000751  1.020049  0.001
H  H81  1  0.22382901  0.43430640  0.72943496  1  0.070538  0.002211  0.11149  0.099856  0.00075  1.020104  0.001
H  H82  1  0.72383014  0.06569114  0.27056074  1  0.070718  0.002211  0.111457  0.099832  0.000751  1.020028  0.001
H  H83  1  0.77616931  0.93430650  0.77056479  1  0.070568  0.002212  0.11149  0.09989  0.000751  1.020034  0.001
H  H84  1  0.72382033  0.43430501  0.77056010  1  0.070619  0.002211  0.111472  0.099873  0.000751  1.020073  0.001
H  H85  1  0.77617026  0.56569132  0.27056325  1  0.070673  0.002211  0.111478  0.099887  0.000751  1.020041  0.001
H  H86  1  0.27617732  0.93430853  0.72943802  1  0.070585  0.002211  0.111472  0.099872  0.000751  1.02007  0.001
H  H87  1  0.22383065  0.06569382  0.22943834  1  0.0706  0.002212  0.111481  0.099898  0.000751  1.020031  0.001
H  H88  1  0.58743981  0.18825866  0.23085415  1  0.100867  0.001358  0.122381  0.079391  0.000215  1.040742  0.001
H  H89  1  0.91256115  0.81173978  0.73085384  1  0.100892  0.001358  0.122383  0.079406  0.000215  1.040723  0.001
H  H90  1  0.41255565  0.68826333  0.26914709  1  0.10107  0.001358  0.122423  0.079508  0.000215  1.040747  0.001
H  H91  1  0.08744399  0.31173757  0.76914353  1  0.100949  0.001358  0.12241  0.079399  0.000215  1.040761  0.001
H  H92  1  0.41255606  0.81173840  0.76914406  1  0.10099  0.001358  0.122407  0.079372  0.000215  1.04078  0.001
H  H93  1  0.08744426  0.18826249  0.26914491  1  0.100947  0.001358  0.1224  0.079415  0.000215  1.04079  0.001
H  H94  1  0.58744363  0.31173764  0.73085386  1  0.101051  0.001358  0.122406  0.079425  0.000215  1.040821  0.001
H  H95  1  0.91256074  0.68825950  0.23085414  1  0.100877  0.001358  0.122393  0.079426  0.000215  1.040701  0.001
H  H96  1  0.61283665  0.45254768  0.17385651  1  0.064586  0.002495  0.109636  0.098262  0.001014  1.038772  0.001
H  H97  1  0.88715567  0.54745359  0.67385428  1  0.064617  0.002495  0.10966  0.098311  0.001014  1.038809  0.001
H  H98  1  0.38715336  0.95255082  0.32614562  1  0.064574  0.002495  0.109642  0.098312  0.001014  1.038806  0.001
H  H99  1  0.11284266  0.04745115  0.82614875  1  0.064527  0.002495  0.109653  0.098273  0.001014  1.038827  0.001
H  H100  1  0.38715309  0.54745263  0.82614771  1  0.064626  0.002495  0.109661  0.098289  0.001014  1.038835  0.001
H  H101  1  0.11283815  0.45255063  0.32614393  1  0.064518  0.002495  0.109623  0.098251  0.001014  1.038763  0.001
H  H102  1  0.61284524  0.04745210  0.67385096  1  0.064589  0.002495  0.109655  0.098284  0.001014  1.038847  0.001
H  H103  1  0.88716003  0.95254787  0.17385602  1  0.064587  0.002495  0.109641  0.098261  0.001014  1.038799  0.001
H  H104  1  0.69523348  0.35086787  0.06684972  1  0.077182  0.002091  0.109888  0.097119  0.00073  1.021538  0.001
H  H105  1  0.80476538  0.64913708  0.56684849  1  0.077229  0.002091  0.109937  0.097183  0.00073  1.021565  0.001
H  H106  1  0.30476061  0.85086733  0.43315270  1  0.077471  0.00209  0.109915  0.097145  0.00073  1.021559  0.001
H  H107  1  0.19523159  0.14913551  0.93315426  1  0.077114  0.002091  0.10992  0.097131  0.00073  1.021569  0.001
H  H108  1  0.30476512  0.64913635  0.93315341  1  0.077168  0.002091  0.109922  0.097152  0.00073  1.021554  0.001
H  H109  1  0.19523390  0.35086909  0.43315081  1  0.077573  0.00209  0.109928  0.097206  0.00073  1.021546  0.001
H  H110  1  0.69523389  0.14913559  0.56684442  1  0.07713  0.00209  0.109928  0.097137  0.00073  1.021607  0.001
H  H111  1  0.80476497  0.85086676  0.06684997  1  0.077174  0.002091  0.109931  0.097197  0.00073  1.021559  0.001
C  C112  1  0.37430709  0.24145547  0.35434580  1  0.926935  0.020547  0.114415  0.132902  0.012853  3.997777  0.017
C  C113  1  0.12569699  0.75853988  0.85434415  1  0.927393  0.020547  0.114361  0.132861  0.012854  3.997889  0.017
C  C114  1  0.62569246  0.74145608  0.14565475  1  0.927202  0.020547  0.114467  0.132988  0.012854  3.997818  0.017
C  C115  1  0.87430542  0.25854271  0.64565228  1  0.926617  0.020551  0.114386  0.132894  0.012854  3.997748  0.017
C  C116  1  0.62569559  0.75854095  0.64565460  1  0.927392  0.020546  0.114405  0.132901  0.012854  3.997735  0.017
C  C117  1  0.87430773  0.24145719  0.14565297  1  0.927199  0.020546  0.114427  0.13298  0.012854  3.997752  0.017
C  C118  1  0.37430478  0.25853969  0.85434401  1  0.927953  0.020542  0.11438  0.132862  0.012854  3.997725  0.017
C  C119  1  0.12569249  0.74145761  0.35434648  1  0.927159  0.020547  0.11441  0.132938  0.012854  3.99777  0.017
C  C120  1  0.49734021  0.16741255  0.37747154  1  0.315293  0.012701  -0.021782  -0.060036  0.007386  4.043151  0.009
C  C121  1  0.00266582  0.83258597  0.87747108  1  0.315971  0.012697  -0.021839  -0.060067  0.007385  4.043302  0.009
C  C122  1  0.50266001  0.66741259  0.12252867  1  0.31553  0.0127  -0.021778  -0.059996  0.007385  4.043272  0.009
C  C123  1  0.99733863  0.33258433  0.62252569  1  0.315937  0.012699  -0.021834  -0.060109  0.007385  4.0432  0.009
C  C124  1  0.50266451  0.83258777  0.62252722  1  0.315975  0.012697  -0.021811  -0.06006  0.007385  4.043346  0.009
C  C125  1  0.99733958  0.16741435  0.12252768  1  0.315571  0.012699  -0.021796  -0.060065  0.007385  4.043183  0.009
C  C126  1  0.49733586  0.33258642  0.87747118  1  0.315943  0.012698  -0.02186  -0.06016  0.007385  4.043255  0.009
C  C127  1  0.00265996  0.66741534  0.37747417  1  0.315525  0.0127  -0.021822  -0.060109  0.007386  4.043286  0.009
C  C128  1  0.42299918  0.11769463  0.39681651  1  0.30129  0.014998  -0.021451  -0.059295  0.008665  4.039228  0.011
C  C129  1  0.07700815  0.88230120  0.89681682  1  0.300301  0.015002  -0.021583  -0.059482  0.008666  4.039198  0.011
C  C130  1  0.57700173  0.61769541  0.10318275  1  0.30106  0.014999  -0.021448  -0.059269  0.008665  4.039158  0.011
C  C131  1  0.92299835  0.38230225  0.60317981  1  0.300577  0.014999  -0.021459  -0.059304  0.008665  4.039072  0.011
C  C132  1  0.57700896  0.88230244  0.60318171  1  0.300284  0.015002  -0.021546  -0.059379  0.008666  4.039293  0.011
C  C133  1  0.92299862  0.11769652  0.10318249  1  0.301063  0.014999  -0.021461  -0.059278  0.008665  4.039151  0.011
C  C134  1  0.42299209  0.38230036  0.89681765  1  0.300318  0.015001  -0.021562  -0.059412  0.008665  4.039045  0.011
C  C135  1  0.07700161  0.61769807  0.39682005  1  0.300994  0.014999  -0.021435  -0.059244  0.008665  4.039093  0.011
C  C136  1  0.62210795  0.34925326  0.46019368  1  0.914845  0.019027  0.115383  0.130836  0.011961  4.001575  0.016
C  C137  1  0.87789555  0.65074751  0.96019774  1  0.914854  0.019028  0.115289  0.130695  0.011962  4.001575  0.016
C  C138  1  0.37789092  0.84925234  0.03980547  1  0.914839  0.019027  0.115419  0.13097  0.011961  4.001565  0.016
C  C139  1  0.12210823  0.15074622  0.53980446  1  0.914842  0.019026  0.115398  0.130819  0.011961  4.001555  0.016
C  C140  1  0.37788997  0.65074511  0.53980399  1  0.914902  0.019025  0.115378  0.130777  0.011961  4.001745  0.016
C  C141  1  0.12211054  0.34925410  0.03980540  1  0.914875  0.019027  0.115333  0.130775  0.011962  4.001601  0.016
C  C142  1  0.62210700  0.15074863  0.96019821  1  0.914857  0.019029  0.115378  0.130784  0.011962  4.001625  0.016
C  C143  1  0.87789105  0.84925410  0.46019430  1  0.914862  0.019028  0.115358  0.130829  0.011962  4.001554  0.016
C  C144  1  0.67205802  0.45733412  0.39459325  1  0.351362  0.013738  -0.019252  -0.053167  0.007918  4.036065  0.01
C  C145  1  0.82794232  0.54266822  0.89459829  1  0.351025  0.013739  -0.019278  -0.05312  0.007918  4.03629  0.01
C  C146  1  0.32794153  0.95733294  0.10540504  1  0.351371  0.013739  -0.019318  -0.053333  0.007919  4.03624  0.01
C  C147  1  0.17206009  0.04266601  0.60540422  1  0.351375  0.013738  -0.01928  -0.053321  0.007918  4.036174  0.01
C  C148  1  0.32793922  0.54266555  0.60540441  1  0.351269  0.013739  -0.019232  -0.053314  0.007919  4.036247  0.01
C  C149  1  0.17206036  0.45733470  0.10540484  1  0.351258  0.013739  -0.019258  -0.053287  0.007919  4.036222  0.01
C  C150  1  0.67205775  0.04266868  0.89459864  1  0.350802  0.01374  -0.019252  -0.053111  0.007919  4.036388  0.01
C  C151  1  0.82794054  0.95733431  0.39459399  1  0.350884  0.01374  -0.019297  -0.053318  0.007919  4.036125  0.01
C  C152  1  0.71674916  0.45831606  0.46076446  1  0.343041  0.012081  -0.023884  -0.065192  0.007104  4.044388  0.009
C  C153  1  0.78325434  0.54168666  0.96077015  1  0.3434  0.01208  -0.023811  -0.065199  0.007104  4.044595  0.009
C  C154  1  0.28324970  0.95831514  0.03923383  1  0.343026  0.012081  -0.023859  -0.065087  0.007104  4.04429  0.009
C  C155  1  0.21675353  0.04168602  0.53923345  1  0.342944  0.012082  -0.023888  -0.065102  0.007104  4.044232  0.009
C  C156  1  0.28324467  0.54168491  0.53923375  1  0.342998  0.012083  -0.023863  -0.065029  0.007104  4.044279  0.009
C  C157  1  0.21675243  0.45831626  0.03923352  1  0.343096  0.012082  -0.023886  -0.065079  0.007104  4.044301  0.009
C  C158  1  0.71674549  0.04168648  0.96077040  1  0.343643  0.01208  -0.023802  -0.065113  0.007104  4.044492  0.009
C  C159  1  0.78325051  0.95831690  0.46076640  1  0.343134  0.01208  -0.023856  -0.065074  0.007104  4.044298  0.009
C  C160  1  0.40043762  0.49124075  0.35935921  1  0.929795  0.015602  0.114559  0.129501  0.010261  4.005431  0.013
C  C161  1  0.09956439  0.50876433  0.85935780  1  0.929626  0.015598  0.114591  0.129595  0.01026  4.005377  0.013
C  C162  1  0.59956464  0.99123357  0.14063898  1  0.92958  0.015599  0.114581  0.129603  0.01026  4.005406  0.013
C  C163  1  0.90043530  0.00876653  0.64064207  1  0.929618  0.015599  0.114597  0.129652  0.01026  4.005342  0.013
C  C164  1  0.59956233  0.50876737  0.64063627  1  0.929471  0.0156  0.114555  0.129527  0.010259  4.005286  0.013
C  C165  1  0.90043693  0.49123468  0.14064042  1  0.929605  0.0156  0.114587  0.12962  0.01026  4.005304  0.013
C  C166  1  0.40044008  0.00876220  0.85936306  1  0.929893  0.0156  0.11456  0.129475  0.01026  4.005258  0.013
C  C167  1  0.09956262  0.99123639  0.35935996  1  0.930121  0.0156  0.114574  0.12958  0.01026  4.005383  0.013
C  C168  1  0.38561775  0.46553029  0.24284232  1  0.322046  0.014599  -0.017464  -0.054864  0.00843  4.023745  0.011
C  C169  1  0.11437994  0.53446941  0.74283970  1  0.322508  0.014598  -0.017484  -0.054804  0.00843  4.023849  0.011
C  C170  1  0.61438179  0.96552589  0.25715595  1  0.321967  0.014598  -0.017459  -0.054944  0.00843  4.023904  0.011
C  C171  1  0.88561839  0.03447114  0.75715955  1  0.32221  0.014599  -0.017475  -0.054809  0.008431  4.02376  0.011
C  C172  1  0.61437608  0.53446873  0.75714988  1  0.32256  0.014593  -0.017452  -0.054812  0.008428  4.023742  0.011
C  C173  1  0.88562002  0.46552700  0.25715742  1  0.321945  0.0146  -0.01746  -0.054875  0.008431  4.023815  0.011
C  C174  1  0.38562362  0.03447118  0.74284828  1  0.322356  0.014594  -0.017446  -0.054841  0.008428  4.023903  0.011
C  C175  1  0.11438021  0.96553047  0.24284249  1  0.322435  0.0146  -0.017466  -0.054794  0.008431  4.023784  0.011
C  C176  1  0.32479747  0.52978489  0.26231444  1  0.335067  0.008602  -0.022829  -0.069063  0.005137  4.056486  0.007
C  C177  1  0.17520219  0.47021603  0.76231076  1  0.335136  0.008601  -0.022802  -0.068992  0.005137  4.056628  0.007
C  C178  1  0.67520140  0.02977955  0.23768452  1  0.335126  0.008601  -0.022805  -0.068914  0.005136  4.05652  0.007
C  C179  1  0.82479818  0.97021756  0.73768780  1  0.335174  0.008601  -0.022789  -0.069007  0.005137  4.056549  0.007
C  C180  1  0.67519363  0.47021868  0.73768377  1  0.335335  0.0086  -0.022844  -0.069047  0.005137  4.056612  0.007
C  C181  1  0.82479913  0.52978169  0.23768690  1  0.335114  0.008602  -0.022836  -0.069058  0.005137  4.05648  0.007
C  C182  1  0.32480469  0.97021882  0.76231424  1  0.335301  0.008602  -0.02289  -0.069113  0.005138  4.05661  0.007
C  C183  1  0.17520042  0.02978470  0.26231424  1  0.33518  0.0086  -0.022802  -0.069101  0.005137  4.056488  0.007
C  C184  1  0.60588271  0.24639669  0.20072369  1  0.955015  0.020733  0.114889  0.133195  0.013207  3.99674  0.017
C  C185  1  0.89411768  0.75360317  0.70072250  1  0.954954  0.020733  0.114842  0.133119  0.013207  3.99662  0.017
C  C186  1  0.39411138  0.74640189  0.29927848  1  0.95466  0.020734  0.114686  0.132809  0.013207  3.997062  0.017
C  C187  1  0.10588542  0.25360019  0.79927613  1  0.954999  0.02073  0.114774  0.133088  0.013206  3.996689  0.017
C  C188  1  0.39411452  0.75360167  0.79927671  1  0.954929  0.020731  0.114799  0.13316  0.013206  3.996704  0.017
C  C189  1  0.10588568  0.24639910  0.29927571  1  0.954984  0.020732  0.114785  0.133007  0.013207  3.996864  0.017
C  C190  1  0.60588585  0.25360038  0.70072192  1  0.954912  0.020731  0.114758  0.133  0.013207  3.996927  0.017
C  C191  1  0.89411727  0.74639688  0.20072372  1  0.954953  0.020734  0.11486  0.133137  0.013207  3.99662  0.017
C  C192  1  0.61964609  0.38248185  0.16970895  1  0.411918  0.015046  -0.019578  -0.051624  0.008846  4.022702  0.011
C  C193  1  0.88035033  0.61751618  0.66970708  1  0.411649  0.015049  -0.019666  -0.051764  0.008847  4.02259  0.011
C  C194  1  0.38034459  0.88248497  0.33029284  1  0.411461  0.015047  -0.01972  -0.051894  0.008846  4.023062  0.011
C  C195  1  0.11965072  0.11751503  0.83029521  1  0.411724  0.015047  -0.019695  -0.05179  0.008846  4.022884  0.011
C  C196  1  0.38034773  0.61751522  0.83029364  1  0.411491  0.015049  -0.019692  -0.05174  0.008847  4.022682  0.011
C  C197  1  0.11964826  0.38248478  0.33029113  1  0.411874  0.015046  -0.019606  -0.051597  0.008845  4.022706  0.011
C  C198  1  0.61965127  0.11751470  0.66970538  1  0.411492  0.015048  -0.01968  -0.051778  0.008846  4.022782  0.011
C  C199  1  0.88035264  0.88248204  0.16970901  1  0.411904  0.015046  -0.019611  -0.05166  0.008845  4.022763  0.011
C  C200  1  0.66043195  0.33198479  0.11671786  1  0.284182  0.012275  -0.023131  -0.06471  0.007183  4.040569  0.009
C  C201  1  0.83956740  0.66801736  0.61671486  1  0.284039  0.012275  -0.023168  -0.064747  0.007183  4.040656  0.009
C  C202  1  0.33956146  0.83198705  0.38328461  1  0.28379  0.012277  -0.02312  -0.064627  0.007183  4.040642  0.009
C  C203  1  0.16043161  0.16801534  0.88328565  1  0.284197  0.012274  -0.023154  -0.064606  0.007182  4.040659  0.009
C  C204  1  0.33956597  0.66801618  0.88328691  1  0.284124  0.012275  -0.023148  -0.064671  0.007182  4.04059  0.009
C  C205  1  0.16043324  0.33198686  0.38328281  1  0.283708  0.012277  -0.023191  -0.064921  0.007183  4.040668  0.009
C  C206  1  0.66043372  0.16801522  0.61671196  1  0.284145  0.012275  -0.023176  -0.064648  0.007182  4.04063  0.009
C  C207  1  0.83956699  0.83198498  0.11671748  1  0.284158  0.012276  -0.023166  -0.064825  0.007184  4.040682  0.009
N  N208  1  0.46588290  0.24603697  0.35075213  1  -1.181534  0.09044  -0.385774  -0.308513  0.045195  3.674304  0.057
N  N209  1  0.03411915  0.75396100  0.85075018  1  -1.181437  0.090438  -0.385666  -0.308353  0.045195  3.674169  0.057
N  N210  1  0.53411596  0.74603626  0.14924894  1  -1.181539  0.090437  -0.385773  -0.308531  0.045194  3.674412  0.057
N  N211  1  0.96588259  0.25396121  0.64924735  1  -1.181514  0.090439  -0.385702  -0.308451  0.045194  3.674254  0.057
N  N212  1  0.53411773  0.75396205  0.64924826  1  -1.181448  0.090439  -0.385701  -0.308434  0.045196  3.674172  0.057
N  N213  1  0.96588422  0.24603802  0.14924694  1  -1.181592  0.090438  -0.385784  -0.308561  0.045196  3.674334  0.057
N  N214  1  0.46588264  0.25396146  0.85074982  1  -1.181499  0.090443  -0.385667  -0.308355  0.045196  3.674085  0.057
N  N215  1  0.03411601  0.74603846  0.35075305  1  -1.181539  0.090439  -0.385757  -0.3085  0.045196  3.674318  0.057
N  N216  1  0.34503409  0.16506492  0.38194508  1  -1.23535  0.089605  -0.388142  -0.308692  0.044908  3.681828  0.053
N  N217  1  0.15497056  0.83492772  0.88194424  1  -1.235655  0.089609  -0.388075  -0.30863  0.044907  3.681714  0.053
N  N218  1  0.65496613  0.66506628  0.11805513  1  -1.235654  0.089607  -0.388199  -0.30883  0.044909  3.68188  0.053
N  N219  1  0.84503321  0.33493196  0.61805143  1  -1.235044  0.089605  -0.388166  -0.308772  0.044907  3.681846  0.053
N  N220  1  0.65496995  0.83492825  0.61805477  1  -1.235666  0.089609  -0.388117  -0.308685  0.044907  3.681822  0.053
N  N221  1  0.84503416  0.16506805  0.11805452  1  -1.235682  0.089607  -0.388141  -0.30878  0.044907  3.681858  0.053
N  N222  1  0.34503042  0.33492688  0.88194472  1  -1.236207  0.089615  -0.388093  -0.308639  0.044908  3.681727  0.053
N  N223  1  0.15496538  0.66506901  0.38194788  1  -1.235528  0.089609  -0.388134  -0.308781  0.044909  3.68185  0.053
N  N224  1  0.61218894  0.38796762  0.39446938  1  -1.219656  0.089856  -0.385871  -0.308328  0.044982  3.686055  0.053
N  N225  1  0.88781140  0.61203471  0.89447134  1  -1.219616  0.089854  -0.385887  -0.308341  0.044981  3.686101  0.053
N  N226  1  0.38780924  0.88796644  0.10553020  1  -1.219565  0.089851  -0.385856  -0.308313  0.044981  3.686193  0.053
N  N227  1  0.11219034  0.11203121  0.60552933  1  -1.21951  0.089848  -0.385892  -0.308278  0.044979  3.686121  0.053
N  N228  1  0.38780829  0.61203074  0.60552829  1  -1.219488  0.089851  -0.385908  -0.308201  0.044978  3.686105  0.053
N  N229  1  0.11219129  0.38796886  0.10552961  1  -1.219525  0.08985  -0.38587  -0.308225  0.044979  3.686051  0.053
N  N230  1  0.61219072  0.11203648  0.89447184  1  -1.219505  0.089853  -0.385877  -0.308254  0.044979  3.686134  0.053
N  N231  1  0.88780894  0.88796781  0.39446943  1  -1.219599  0.089851  -0.38583  -0.30819  0.044979  3.685955  0.053
N  N232  1  0.68473574  0.38952924  0.50215921  1  -1.224833  0.090627  -0.388265  -0.309301  0.045489  3.699736  0.055
N  N233  1  0.81526746  0.61047207  0.00216432  1  -1.225019  0.090625  -0.388251  -0.309238  0.045486  3.699664  0.055
N  N234  1  0.31526327  0.88952844  0.99783958  1  -1.224957  0.090627  -0.388274  -0.309378  0.045488  3.699723  0.055
N  N235  1  0.18473686  0.11047154  0.49783823  1  -1.22498  0.090627  -0.388224  -0.309267  0.045487  3.699581  0.055
N  N236  1  0.31526150  0.61047043  0.49783846  1  -1.224977  0.090627  -0.388221  -0.309319  0.045489  3.699682  0.055
N  N237  1  0.18473795  0.38952955  0.99783881  1  -1.224962  0.090624  -0.388192  -0.309245  0.045486  3.699642  0.055
N  N238  1  0.68473328  0.11047188  0.00216464  1  -1.225161  0.090627  -0.388292  -0.309344  0.045488  3.699759  0.055
N  N239  1  0.81526378  0.88953007  0.50216052  1  -1.225037  0.090626  -0.388251  -0.309323  0.045488  3.699627  0.055
N  N240  1  0.43355214  0.44157238  0.30475825  1  -1.240856  0.090994  -0.38519  -0.306781  0.045478  3.676735  0.056
N  N241  1  0.06644941  0.55842967  0.80475623  1  -1.241082  0.090994  -0.385142  -0.306723  0.045478  3.676663  0.056
N  N242  1  0.56645013  0.94156693  0.19524009  1  -1.241054  0.090995  -0.38519  -0.306741  0.045479  3.676893  0.056
N  N243  1  0.93355097  0.05843100  0.69524296  1  -1.241132  0.090995  -0.385171  -0.306801  0.045478  3.676748  0.056
N  N244  1  0.56644646  0.55843184  0.69523668  1  -1.241321  0.090995  -0.385212  -0.306806  0.045479  3.676854  0.056
N  N245  1  0.93355191  0.44156869  0.19524089  1  -1.241029  0.090995  -0.385168  -0.306758  0.045479  3.676824  0.056
N  N246  1  0.43355528  0.05843078  0.80476195  1  -1.241253  0.090995  -0.385234  -0.306787  0.04548  3.676793  0.056
N  N247  1  0.06644763  0.94157062  0.30475908  1  -1.24102  0.090995  -0.385167  -0.306774  0.045478  3.676854  0.056
N  N248  1  0.33446504  0.54575465  0.33629572  1  -1.252942  0.092923  -0.387549  -0.31342  0.04665  3.693968  0.058
N  N249  1  0.16553775  0.45424858  0.83629321  1  -1.253097  0.092926  -0.387586  -0.313516  0.04665  3.694055  0.058
N  N250  1  0.66553655  0.04574960  0.16370319  1  -1.25317  0.092929  -0.387523  -0.31347  0.046651  3.693985  0.058
N  N251  1  0.83446194  0.95424976  0.66370594  1  -1.2531  0.092926  -0.387614  -0.313569  0.046651  3.693963  0.058
N  N252  1  0.66553287  0.45424957  0.66370030  1  -1.252942  0.092925  -0.387396  -0.313293  0.046648  3.693755  0.058
N  N253  1  0.83446357  0.54575044  0.16370446  1  -1.253089  0.092929  -0.387535  -0.313447  0.046651  3.6939  0.058
N  N254  1  0.33446818  0.95424812  0.83629776  1  -1.252854  0.092926  -0.387432  -0.313261  0.046649  3.693751  0.058
N  N255  1  0.16553597  0.04575186  0.33629609  1  -1.25319  0.092928  -0.387559  -0.313424  0.04665  3.693838  0.058
N  N256  1  0.58523497  0.32762862  0.22282149  1  -1.207751  0.091057  -0.38841  -0.306708  0.045409  3.688301  0.054
N  N257  1  0.91476125  0.67236985  0.72281993  1  -1.207304  0.091048  -0.38836  -0.306688  0.045408  3.688189  0.054
N  N258  1  0.41475504  0.82763325  0.27717935  1  -1.207289  0.091047  -0.388253  -0.306478  0.045406  3.688407  0.054
N  N259  1  0.08524252  0.17236761  0.77718002  1  -1.207512  0.091048  -0.3883  -0.306566  0.045406  3.688225  0.054
N  N260  1  0.41475681  0.67236910  0.77717891  1  -1.20728  0.091046  -0.388351  -0.306736  0.045408  3.688237  0.054
N  N261  1  0.08523870  0.32763176  0.27717828  1  -1.207637  0.091048  -0.388324  -0.306612  0.045409  3.68833  0.054
N  N262  1  0.58524220  0.17236837  0.72281941  1  -1.207249  0.091042  -0.388296  -0.306558  0.045404  3.688316  0.054
N  N263  1  0.91476425  0.82762946  0.22282093  1  -1.207686  0.091057  -0.388392  -0.306646  0.045409  3.688302  0.054
N  N264  1  0.65187549  0.24558373  0.13691255  1  -1.246627  0.091779  -0.386175  -0.31001  0.045836  3.663167  0.059
N  N265  1  0.84812720  0.75441638  0.63690983  1  -1.246725  0.091781  -0.386094  -0.309861  0.045836  3.663169  0.059
N  N266  1  0.34811929  0.74558672  0.36308908  1  -1.246331  0.091773  -0.386066  -0.309846  0.045835  3.663093  0.059
N  N267  1  0.15187454  0.25441445  0.86308989  1  -1.246631  0.091779  -0.38608  -0.309964  0.045837  3.663059  0.059
N  N268  1  0.34812515  0.75441528  0.86309004  1  -1.246653  0.091782  -0.386082  -0.309905  0.045837  3.663106  0.059
N  N269  1  0.15187821  0.24558654  0.36308729  1  -1.246554  0.091776  -0.386118  -0.309813  0.045833  3.663008  0.059
N  N270  1  0.65187590  0.25441425  0.63690859  1  -1.246694  0.091778  -0.386025  -0.309877  0.045835  3.66311  0.059
N  N271  1  0.84812474  0.74558392  0.13691215  1  -1.246619  0.091779  -0.386158  -0.309957  0.045836  3.663105  0.059
