# generated using pymatgen
data_CuH15C23N3O4
_symmetry_space_group_name_H-M   'P 1'
_cell_length_a   10.28333238
_cell_length_b   14.38595499
_cell_length_c   17.20688589
_cell_angle_alpha   79.36010659
_cell_angle_beta   72.61894576
_cell_angle_gamma   69.04177387
_symmetry_Int_Tables_number   1
_chemical_formula_structural   CuH15C23N3O4
_chemical_formula_sum   'Cu4 H60 C92 N12 O16'
_cell_volume   2259.90491790
_cell_formula_units_Z   4
loop_
 _symmetry_equiv_pos_site_id
 _symmetry_equiv_pos_as_xyz
  1  'x, y, z'
loop_
 _atom_site_type_symbol
 _atom_site_label
 _atom_site_symmetry_multiplicity
 _atom_site_fract_x
 _atom_site_fract_y
 _atom_site_fract_z
 _atom_site_occupancy
 _atom_site_pbe_bader_charge
 _atom_site_pbe_bader_spin_density
 _atom_site_pbe_cm5_charge
 _atom_site_pbe_ddec_charge
 _atom_site_pbe_ddec_spin_density
 _atom_site_pbe_ddec_sum_bond_order
 _atom_site_pbe_magmom
Cu  Cu0  1  0.10180204  0.05573182  0.26559689  1  1.056615  0.572293  0.745178  0.687438  0.747075  2.269495  0.57
Cu  Cu1  1  0.42264111  0.44435551  0.23436954  1  1.055627  0.572366  0.745054  0.68799  0.74755  2.269602  0.57
Cu  Cu2  1  0.89819998  0.94426788  0.73440212  1  1.056732  0.572147  0.745143  0.68741  0.746861  2.269555  0.57
Cu  Cu3  1  0.57735748  0.55564718  0.76563077  1  1.055611  -0.572497  0.745083  0.688083  -0.79526  2.269553  -0.57
H  H4  1  0.34019635  0.03797645  0.11988003  1  0.126686  0.002396  0.119359  0.092087  0.001154  1.029969  0.001
H  H5  1  0.49747189  0.46223367  0.37986604  1  0.13384  0.002331  0.118528  0.090623  0.001111  1.031426  0.001
H  H6  1  0.65977090  0.96203892  0.88010994  1  0.126495  0.002363  0.119328  0.092001  0.001131  1.030083  0.001
H  H7  1  0.50254264  0.53777422  0.62012482  1  0.133749  -0.002309  0.118544  0.090624  -0.001159  1.031421  -0.001
H  H8  1  0.46088050  0.92890630  0.00361184  1  0.080194  0.001131  0.109042  0.113944  0.000583  1.016537  0.001
H  H9  1  0.39288047  0.57109059  0.49626167  1  0.073552  0.001187  0.108525  0.112813  0.000613  1.015099  0.001
H  H10  1  0.53906761  0.07112401  0.99637399  1  0.07973  0.001265  0.109001  0.113754  0.000674  1.016584  0.001
H  H11  1  0.60715299  0.42892700  0.50372545  1  0.073428  -0.001059  0.108574  0.112851  -0.000561  1.015273  -0.001
H  H12  1  0.18982512  0.74784092  0.12768088  1  0.102956  0.001108  0.113409  0.123277  0.000579  1.012642  0.001
H  H13  1  0.06429728  0.75225265  0.37242471  1  0.106972  0.001173  0.113138  0.122921  0.000628  1.013034  0.001
H  H14  1  0.81020726  0.25213718  0.87234399  1  0.101905  0.00119  0.113377  0.123341  0.000611  1.012483  0.001
H  H15  1  0.93567598  0.24772992  0.62759372  1  0.107255  -0.001115  0.113197  0.122959  -0.000591  1.013046  -0.001
H  H16  1  0.07934124  0.86713491  0.23707027  1  0.122189  0.002219  0.121818  0.100108  0.001022  1.02018  0.002
H  H17  1  0.18244608  0.63313386  0.26294414  1  0.129306  0.002212  0.122085  0.100561  0.001032  1.019789  0.002
H  H18  1  0.92067986  0.13285214  0.76294998  1  0.122176  0.002203  0.121739  0.100011  0.001015  1.020184  0.002
H  H19  1  0.81752983  0.36685840  0.73706475  1  0.129279  -0.002195  0.12204  0.100565  -0.001079  1.019726  -0.002
H  H20  1  0.44774767  0.88092484  0.89035571  1  0.103926  -0.001197  0.112257  0.125543  -0.000639  1.008122  -0.001
H  H21  1  0.21887712  0.61914625  0.60961902  1  0.112062  0.001288  0.112904  0.126072  0.000673  1.007219  0.001
H  H22  1  0.55229958  0.11906516  0.10965302  1  0.103817  0.001371  0.112285  0.125586  0.000736  1.008097  0.001
H  H23  1  0.78110045  0.38085122  0.39038411  1  0.112194  0.001246  0.112947  0.12612  0.000661  1.007125  0.001
H  H24  1  0.54213739  0.77079513  0.78021611  1  0.129083  -0.002486  0.124135  0.101212  -0.001293  1.015126  -0.001
H  H25  1  0.09317833  0.72926464  0.71974964  1  0.152627  0.002468  0.124712  0.100928  0.001222  1.01525  0.001
H  H26  1  0.45791258  0.22919561  0.21978795  1  0.129018  0.002446  0.124178  0.101206  0.001207  1.015112  0.001
H  H27  1  0.90681762  0.27072835  0.28025383  1  0.152716  0.002428  0.12473  0.101009  0.001203  1.015225  0.001
H  H28  1  0.45179963  0.53348566  0.93677078  1  0.159319  -0.002034  0.122528  0.101262  -0.001024  1.024377  -0.002
H  H29  1  0.92178387  0.96662873  0.56322311  1  0.16278  0.002018  0.122226  0.100823  0.000954  1.025603  0.002
H  H30  1  0.54816629  0.46652377  0.06323198  1  0.159034  0.002031  0.12262  0.101374  0.000957  1.02429  0.002
H  H31  1  0.07823139  0.03337097  0.43677818  1  0.163071  0.002018  0.122162  0.100788  0.000946  1.025598  0.002
H  H32  1  0.36171264  0.63089442  0.05823671  1  0.180892  -0.000844  0.11211  0.13802  -0.000469  1.041625  -0.001
H  H33  1  0.05024071  0.86916181  0.44177719  1  0.179408  0.000888  0.11241  0.137304  0.000508  1.041805  0.001
H  H34  1  0.63821587  0.36912097  0.94176017  1  0.180497  0.000921  0.11218  0.138055  0.000495  1.041599  0.001
H  H35  1  0.94980233  0.13084609  0.55821846  1  0.179027  0.000815  0.112444  0.137308  0.000454  1.041735  0.001
H  H36  1  0.35638060  0.72778801  0.69706350  1  0.145146  -0.001753  0.118653  0.101891  -0.000894  1.016038  -0.001
H  H37  1  0.78057500  0.77211704  0.80293565  1  0.140953  0.001764  0.118128  0.099878  0.000844  1.017321  0.001
H  H38  1  0.64361730  0.27221618  0.30293729  1  0.145191  0.00174  0.118669  0.101894  0.000824  1.016042  0.001
H  H39  1  0.21943798  0.22787441  0.19705513  1  0.140758  0.001742  0.118123  0.099866  0.000825  1.017273  0.001
H  H40  1  0.80124379  0.62310845  0.63640896  1  0.162253  -0.001512  0.117941  0.105731  -0.00079  1.018364  -0.001
H  H41  1  0.06031754  0.87657953  0.86350056  1  0.172849  0.001498  0.117317  0.10551  0.000738  1.019641  0.001
H  H42  1  0.19875793  0.37688750  0.36358836  1  0.162215  0.001515  0.117934  0.105723  0.000742  1.018379  0.001
H  H43  1  0.93967903  0.12342091  0.13649814  1  0.173124  0.001497  0.117338  0.105537  0.000737  1.019667  0.001
H  H44  1  0.61288441  0.05482738  0.25631442  1  0.112089  6.4e-05  0.102773  0.108067  2e-05  1.032328  0.0
H  H45  1  0.92392962  0.44532786  0.24379928  1  0.11531  6.9e-05  0.102592  0.10848  2.1e-05  1.032116  0.0
H  H46  1  0.38712207  0.94516708  0.74368345  1  0.111784  6.2e-05  0.102775  0.108094  2.6e-05  1.032275  0.0
H  H47  1  0.07606456  0.55467334  0.75620147  1  0.115422  -6e-05  0.102607  0.108472  -3.1e-05  1.032124  0.0
H  H48  1  0.79752134  0.88151419  0.45037539  1  0.066422  8.4e-05  0.098613  0.096054  6.9e-05  1.050618  0.0
H  H49  1  0.12858640  0.61869209  0.04960854  1  0.057384  0.000145  0.097971  0.095146  0.000117  1.050954  0.0
H  H50  1  0.20247755  0.11849225  0.54962719  1  0.06636  0.000126  0.098606  0.096088  0.0001  1.050591  0.0
H  H51  1  0.87141529  0.38130611  0.95038844  1  0.057353  -6.2e-05  0.097995  0.095213  -6.4e-05  1.050914  0.0
H  H52  1  0.38206526  0.88311429  0.43785583  1  0.096021  0.000261  0.100874  0.105044  0.000241  1.02314  0.0
H  H53  1  0.70228308  0.61678133  0.06236696  1  0.100779  0.000375  0.101172  0.10587  0.000321  1.024738  0.0
H  H54  1  0.61793299  0.11688914  0.56214153  1  0.096163  0.000372  0.10087  0.105027  0.000324  1.023178  0.0
H  H55  1  0.29771719  0.38322434  0.93762968  1  0.100346  -0.00027  0.101215  0.105938  -0.000268  1.024643  0.0
H  H56  1  0.81616164  0.73533013  0.50721379  1  0.076322  -0.000713  0.103151  0.108721  -0.000387  1.021962  0.0
H  H57  1  0.05798738  0.76443615  0.99287783  1  0.074312  0.000733  0.103202  0.108603  0.00038  1.02123  0.0
H  H58  1  0.18383736  0.26466508  0.49278530  1  0.076304  0.000707  0.10314  0.108739  0.000349  1.021943  0.0
H  H59  1  0.94201706  0.23555831  0.00712040  1  0.074567  0.000737  0.103204  0.108593  0.000386  1.021242  0.0
H  H60  1  0.35080869  0.84880616  0.57382644  1  0.090008  -0.000907  0.10785  0.11808  -0.000517  1.009155  0.0
H  H61  1  0.77230142  0.65140362  0.92631950  1  0.083777  0.000905  0.108137  0.119723  0.000463  1.008642  0.0
H  H62  1  0.64918989  0.15119654  0.42617562  1  0.090001  0.000865  0.107858  0.118069  0.000418  1.009131  0.0
H  H63  1  0.22771123  0.34858634  0.07367274  1  0.083635  0.000871  0.108178  0.11983  0.000442  1.008622  0.0
C  C64  1  0.30922566  0.97396182  0.11723731  1  0.477982  -0.002258  0.047997  0.090145  -0.001087  3.940405  -0.002
C  C65  1  0.39965387  0.52616186  0.38265778  1  0.470905  -0.00188  0.048856  0.09272  -0.000828  3.940019  -0.001
C  C66  1  0.69075012  0.02604833  0.88275835  1  0.477844  -0.001821  0.047973  0.090084  -0.000778  3.940653  -0.001
C  C67  1  0.60035826  0.47384679  0.61733629  1  0.470494  0.00232  0.048803  0.092674  0.000852  3.939995  0.002
C  C68  1  0.37531252  0.91276012  0.05349641  1  -0.033233  0.006007  -0.080549  -0.16978  0.004074  3.937957  0.005
C  C69  1  0.34085575  0.58726869  0.44644401  1  -0.033295  0.004632  -0.079594  -0.169298  0.003178  3.936218  0.004
C  C70  1  0.62465303  0.08725451  0.94649631  1  -0.03226  0.004672  -0.080484  -0.169463  0.003212  3.937739  0.004
C  C71  1  0.65917025  0.41274743  0.55354700  1  -0.03286  -0.005943  -0.079643  -0.169343  -0.004283  3.936512  -0.004
C  C72  1  0.33240845  0.83027989  0.05418667  1  -0.01606  -0.004696  0.017894  0.113399  -0.00334  3.972553  -0.003
C  C73  1  0.21607094  0.66975744  0.44582113  1  -0.046621  -0.003702  0.017114  0.11584  -0.002628  3.972483  -0.002
C  C74  1  0.66757926  0.16972430  0.94581535  1  -0.016594  -0.003676  0.017971  0.113397  -0.002613  3.972518  -0.002
C  C75  1  0.78393682  0.33024525  0.55417987  1  -0.047424  0.004706  0.017151  0.115817  0.003139  3.972629  0.003
C  C76  1  0.22588909  0.81193966  0.12233548  1  0.030306  0.007029  -0.074431  -0.160282  0.00481  3.906802  0.005
C  C77  1  0.15915093  0.68812810  0.37773434  1  0.040691  0.005568  -0.073452  -0.160221  0.003834  3.907453  0.005
C  C78  1  0.77412933  0.18804440  0.87768048  1  0.031719  0.005577  -0.074324  -0.16034  0.003869  3.906603  0.005
C  C79  1  0.84083009  0.31186192  0.62227806  1  0.04067  -0.00709  -0.073524  -0.160291  -0.005141  3.907748  -0.005
C  C80  1  0.16375355  0.87710825  0.18350872  1  0.44567  -0.001283  0.0546  0.100443  -0.000146  3.910772  -0.001
C  C81  1  0.22335443  0.62305024  0.31649450  1  0.466459  -0.000861  0.053678  0.099605  0.000183  3.913397  0.0
C  C82  1  0.83626247  0.12287878  0.81650430  1  0.44598  -0.00086  0.054618  0.100568  0.000162  3.910476  0.0
C  C83  1  0.77662824  0.37694500  0.68351388  1  0.466673  0.001293  0.053687  0.099538  -0.000173  3.913474  0.001
C  C84  1  0.39395104  0.76659305  0.98557240  1  -0.045968  0.004718  0.011004  0.098498  0.003132  3.98842  0.003
C  C85  1  0.14556334  0.73342496  0.51444304  1  0.00996  -0.003835  0.010705  0.095246  -0.002724  3.986704  -0.002
C  C86  1  0.60602850  0.23341338  0.01442840  1  -0.04592  -0.003752  0.010916  0.098415  -0.002661  3.988716  -0.002
C  C87  1  0.85444206  0.26657624  0.48555804  1  0.009575  -0.00471  0.010719  0.095286  -0.003332  3.986664  -0.003
C  C88  1  0.44701452  0.80417736  0.90572252  1  0.020434  -0.006642  -0.07705  -0.166365  -0.004818  3.915462  -0.005
C  C89  1  0.15667537  0.69588840  0.59426533  1  -0.09621  0.005408  -0.077268  -0.165659  0.003652  3.913046  0.004
C  C90  1  0.55299702  0.19581936  0.09427932  1  0.020609  0.00531  -0.076946  -0.166299  0.003675  3.915427  0.004
C  C91  1  0.84332356  0.30411354  0.40573562  1  -0.096349  0.006906  -0.07732  -0.165678  0.004646  3.912799  0.005
C  C92  1  0.49906838  0.74282767  0.84217845  1  0.476687  0.001569  0.057885  0.109989  1.7e-05  3.901657  0.001
C  C93  1  0.08388678  0.75724424  0.65780981  1  0.48727  -0.001188  0.057531  0.109441  -4.8e-05  3.901772  0.0
C  C94  1  0.50094962  0.25716830  0.15782469  1  0.476559  -0.001145  0.057776  0.110062  -1.4e-05  3.901581  0.0
C  C95  1  0.91611488  0.24275621  0.34219263  1  0.487193  -0.001614  0.05753  0.109369  -0.000345  3.901874  -0.001
C  C96  1  0.44976193  0.61050479  0.93080481  1  0.421686  0.001662  0.048624  0.1006  0.000335  3.911778  0.001
C  C97  1  0.99078532  0.88958756  0.56917521  1  0.405972  -0.001171  0.048543  0.098599  -0.000296  3.911909  -0.001
C  C98  1  0.55022135  0.38950015  0.06919730  1  0.421844  -0.001176  0.048578  0.100515  -0.000275  3.912028  -0.001
C  C99  1  0.00923128  0.11041363  0.43082562  1  0.405879  -0.001613  0.048682  0.09873  -0.000611  3.911851  -0.001
C  C100  1  0.39806712  0.66640746  0.99769559  1  -0.047365  -0.007258  -0.081089  -0.180945  -0.005229  3.91878  -0.006
C  C101  1  0.06163837  0.83362581  0.50231480  1  -0.041019  0.005827  -0.081778  -0.17833  0.004018  3.918853  0.005
C  C102  1  0.60190288  0.33360196  0.00230471  1  -0.046876  0.005916  -0.08119  -0.181021  0.004046  3.919039  0.005
C  C103  1  0.93837687  0.16637612  0.49768324  1  -0.039984  0.007185  -0.081831  -0.178328  0.004905  3.918912  0.006
C  C104  1  0.84893674  0.00381763  0.31289932  1  1.584328  -0.001003  0.182441  0.544283  -0.000401  4.278078  -0.002
C  C105  1  0.16548780  0.49640799  0.18691454  1  1.554249  -0.000961  0.180864  0.542816  -0.000404  4.279186  -0.002
C  C106  1  0.15106495  0.99618057  0.68709998  1  1.584376  -0.001008  0.182379  0.544296  -0.000407  4.278028  -0.002
C  C107  1  0.83451014  0.50359171  0.81308404  1  1.554538  0.000986  0.180935  0.543087  0.000285  4.278892  0.002
C  C108  1  0.45560128  0.73254067  0.65329992  1  0.457333  -0.000124  0.044453  0.08677  -0.000983  3.950982  -0.001
C  C109  1  0.84062309  0.76745143  0.84676889  1  0.459044  8.3e-05  0.04542  0.091594  0.000752  3.949803  0.001
C  C110  1  0.54439899  0.26746278  0.34670288  1  0.45728  9e-05  0.044455  0.086819  0.000723  3.951055  0.001
C  C111  1  0.15938544  0.23254302  0.15322339  1  0.458911  6.2e-05  0.045429  0.091651  0.000725  3.949928  0.001
C  C112  1  0.70484929  0.67355349  0.61864325  1  0.433077  0.000559  0.038659  0.087143  -0.000223  3.952572  0.0
C  C113  1  0.99648353  0.82623498  0.88133887  1  0.423087  -0.000549  0.041408  0.090474  1.9e-05  3.955309  0.0
C  C114  1  0.29515036  0.32644471  0.38135525  1  0.433094  -0.000581  0.038702  0.087237  1e-05  3.952581  0.0
C  C115  1  0.00351613  0.17376322  0.11866022  1  0.422536  -0.000548  0.04133  0.090351  1.7e-05  3.955466  0.0
C  C116  1  0.36521113  0.01249362  0.30072970  1  1.563868  -0.001319  0.190067  0.558856  -0.000318  4.242318  -0.003
C  C117  1  0.67804314  0.48749313  0.19954506  1  1.573568  -0.001308  0.18889  0.557487  -0.000302  4.245414  -0.003
C  C118  1  0.63479196  0.98749934  0.69926785  1  1.563254  -0.00131  0.190102  0.559061  -0.000313  4.24197  -0.003
C  C119  1  0.32194692  0.51251478  0.80045073  1  1.57392  0.001315  0.188825  0.557371  3.7e-05  4.245215  0.003
C  C120  1  0.48488541  0.97295724  0.34357635  1  -0.006863  0.007931  -0.020316  -0.023198  0.005581  3.977148  0.006
C  C121  1  0.80090743  0.52712048  0.15665808  1  0.018938  0.008316  -0.01995  -0.021341  0.00584  3.975835  0.007
C  C122  1  0.51511732  0.02703872  0.65642137  1  -0.006868  0.008257  -0.020355  -0.023332  0.005792  3.977106  0.007
C  C123  1  0.19909250  0.47288371  0.84334235  1  0.019123  -0.007857  -0.020008  -0.021384  -0.005889  3.975944  -0.006
C  C124  1  0.60636051  0.00341031  0.31121544  1  -0.019628  0.000833  -0.075866  -0.097237  0.000557  3.931917  0.001
C  C125  1  0.92066031  0.49672812  0.18889366  1  -0.054582  -0.000147  -0.075439  -0.098312  -0.000139  3.931044  0.0
C  C126  1  0.39363845  0.99658939  0.68878412  1  -0.019209  -0.000171  -0.075868  -0.097299  -0.000136  3.931917  0.0
C  C127  1  0.07933966  0.50327158  0.81110629  1  -0.054668  -0.00086  -0.075426  -0.098281  -0.00061  3.93101  -0.001
C  C128  1  0.71972191  0.96912381  0.34905500  1  -0.018398  0.005708  -0.024285  -0.03171  0.003925  4.006656  0.005
C  C129  1  0.03749062  0.53102968  0.15093846  1  -0.03208  0.005968  -0.024854  -0.032339  0.004118  4.004732  0.005
C  C130  1  0.28027601  0.03087814  0.65094614  1  -0.018503  0.005969  -0.024268  -0.031556  0.004092  4.006523  0.005
C  C131  1  0.96250901  0.46897077  0.84906028  1  -0.032231  -0.005644  -0.024842  -0.032328  -0.004149  4.004723  -0.005
C  C132  1  0.71018557  0.90460463  0.42025321  1  -0.041193  -0.000174  -0.082428  -0.135092  -0.000131  3.935521  0.0
C  C133  1  0.03430164  0.59557140  0.07978720  1  -0.063191  -0.00103  -0.081092  -0.133026  -0.000702  3.934502  -0.001
C  C134  1  0.28981334  0.09539956  0.57974972  1  -0.041119  -0.001043  -0.082519  -0.135295  -0.000733  3.935606  -0.001
C  C135  1  0.96569735  0.40442605  0.92020921  1  -0.063191  0.000195  -0.081179  -0.133175  0.000116  3.934519  0.0
C  C136  1  0.58928089  0.87256574  0.45380449  1  -0.025694  -0.000145  -0.012294  0.051885  -0.000146  4.011807  0.0
C  C137  1  0.91480786  0.62750712  0.04630668  1  0.009132  0.000731  -0.01343  0.050631  0.000442  4.009799  0.001
C  C138  1  0.41071874  0.12743471  0.54619657  1  -0.025878  0.000666  -0.012187  0.052051  0.000399  4.011766  0.001
C  C139  1  0.08519282  0.37249107  0.95368816  1  0.009148  0.000208  -0.013413  0.050708  0.000171  4.009771  0.0
C  C140  1  0.47664512  0.90750180  0.41462923  1  -0.092073  -2.9e-05  -0.077571  -0.125514  2e-05  3.91035  0.0
C  C141  1  0.79805693  0.59251657  0.08556828  1  -0.063177  -0.000971  -0.077597  -0.12643  -0.000627  3.910318  -0.001
C  C142  1  0.52335963  0.09249640  0.58536836  1  -0.092175  -0.000953  -0.077575  -0.125496  -0.000608  3.910352  -0.001
C  C143  1  0.20193995  0.40748762  0.91443152  1  -0.063004  -3e-06  -0.077614  -0.1265  -7.7e-05  3.910311  0.0
C  C144  1  0.71124201  0.73755017  0.54778412  1  -0.055283  -0.004595  -0.087685  -0.175746  -0.003328  3.948701  -0.004
C  C145  1  0.99588596  0.76232147  0.95224350  1  -0.036829  0.004712  -0.087906  -0.1761  0.003196  3.949904  0.004
C  C146  1  0.28875596  0.26244728  0.45221363  1  -0.055299  0.004663  -0.08771  -0.175872  0.003168  3.948759  0.004
C  C147  1  0.00411985  0.23767224  0.04775287  1  -0.037357  0.004631  -0.087911  -0.176061  0.003142  3.95005  0.004
C  C148  1  0.58388898  0.80298316  0.52832674  1  -0.002204  0.00272  0.01328  0.119098  0.001819  3.976724  0.002
C  C149  1  0.91429642  0.69704379  0.97176831  1  -0.016998  -0.002623  0.015515  0.121635  -0.001881  3.977602  -0.002
C  C150  1  0.41610998  0.19701653  0.47167223  1  -0.00199  -0.002641  0.013292  0.119118  -0.001895  3.976659  -0.002
C  C151  1  0.08571009  0.30294842  0.02822526  1  -0.016507  -0.002733  0.015569  0.121624  -0.001938  3.977666  -0.002
C  C152  1  0.45387769  0.79886813  0.58354929  1  -0.021242  -0.005058  -0.08393  -0.170602  -0.003661  3.934793  -0.004
C  C153  1  0.83521270  0.70127378  0.91660482  1  -0.01507  0.005204  -0.085649  -0.175053  0.003524  3.935767  0.004
C  C154  1  0.54612226  0.20113382  0.41645148  1  -0.021255  0.005119  -0.08397  -0.170645  0.003454  3.934837  0.004
C  C155  1  0.16480132  0.29871543  0.08338555  1  -0.015293  0.005086  -0.08578  -0.175303  0.00345  3.93584  0.004
N  N156  1  0.20289169  0.95770999  0.18055800  1  -1.196607  0.089824  -0.337228  -0.192797  0.061224  3.59272  0.078
N  N157  1  0.34029517  0.54248087  0.31935332  1  -1.202696  0.088657  -0.336948  -0.194581  0.060411  3.595426  0.077
N  N158  1  0.79710352  0.04228897  0.81944582  1  -1.196678  0.088455  -0.33722  -0.192748  0.060309  3.592619  0.076
N  N159  1  0.65970140  0.45751958  0.68064770  1  -1.202459  -0.089977  -0.336907  -0.194471  -0.065204  3.595269  -0.078
N  N160  1  0.57893782  0.67041123  0.67072714  1  -1.219122  -0.069256  -0.34217  -0.25262  -0.050008  3.617223  -0.06
N  N161  1  0.91948207  0.82940459  0.82925155  1  -1.21754  0.069649  -0.345414  -0.258604  0.047241  3.621041  0.06
N  N162  1  0.42106144  0.32959221  0.32927526  1  -1.219071  0.06931  -0.342176  -0.252613  0.047013  3.617214  0.06
N  N163  1  0.08052064  0.17059361  0.17074467  1  -1.216814  0.069567  -0.345343  -0.258474  0.047188  3.62103  0.06
N  N164  1  0.49866134  0.64786151  0.85412184  1  -1.215077  -0.09395  -0.341073  -0.203225  -0.067945  3.596485  -0.081
N  N165  1  0.00040484  0.85221192  0.64585733  1  -1.18868  0.092711  -0.340882  -0.200228  0.063118  3.594819  0.08
N  N166  1  0.50134444  0.35213445  0.14587824  1  -1.215135  0.092689  -0.341065  -0.203296  0.063028  3.596624  0.08
N  N167  1  0.99960055  0.14778928  0.35414549  1  -1.18867  0.093946  -0.340982  -0.200406  0.063944  3.594927  0.081
O  O168  1  0.25934148  0.97754709  0.32984218  1  -1.12381  0.087315  -0.331186  -0.548356  0.056804  2.274328  0.079
O  O169  1  0.56638053  0.52229562  0.17035560  1  -1.128364  0.08747  -0.331572  -0.548767  0.056793  2.279656  0.079
O  O170  1  0.74065579  0.02245186  0.67015605  1  -1.123818  0.087217  -0.331214  -0.548497  0.056738  2.274208  0.079
O  O171  1  0.43361048  0.47771902  0.82964071  1  -1.128708  -0.087406  -0.331485  -0.548641  -0.060447  2.27969  -0.079
O  O172  1  0.37427875  0.07657041  0.24039783  1  -1.189824  0.001552  -0.333248  -0.588188  0.000707  2.185183  0.002
O  O173  1  0.69093385  0.42348265  0.25991561  1  -1.195561  0.001561  -0.331761  -0.587118  0.000722  2.185173  0.002
O  O174  1  0.62573287  0.92341956  0.75959750  1  -1.189345  0.001259  -0.333272  -0.588228  0.000521  2.185044  0.002
O  O175  1  0.30904776  0.57652152  0.74008053  1  -1.195449  -0.001202  -0.331742  -0.58708  -0.000647  2.184889  -0.002
O  O176  1  0.96061495  0.95917794  0.34096280  1  -1.176052  0.033163  -0.338978  -0.588119  0.021674  2.234287  0.03
O  O177  1  0.26046191  0.54108497  0.15870713  1  -1.167285  0.03245  -0.337573  -0.586221  0.02116  2.233203  0.03
O  O178  1  0.03938159  0.04082476  0.65904079  1  -1.176027  0.032981  -0.338969  -0.588164  0.021555  2.234246  0.03
O  O179  1  0.73953329  0.45891624  0.84129576  1  -1.167339  -0.032226  -0.337594  -0.586338  -0.022402  2.233076  -0.03
O  O180  1  0.84120336  0.07413004  0.25678983  1  -1.175006  0.009397  -0.335067  -0.577978  0.006067  2.182701  0.009
O  O181  1  0.17232826  0.42609650  0.24304530  1  -1.172564  0.009499  -0.334613  -0.577545  0.006142  2.182576  0.009
O  O182  1  0.15879972  0.92586516  0.74320678  1  -1.175029  0.009334  -0.335024  -0.578021  0.006025  2.182749  0.009
O  O183  1  0.82767346  0.57389945  0.75694970  1  -1.172657  -0.009375  -0.334632  -0.577687  -0.006495  2.182541  -0.009
