# generated using pymatgen
data_CuH8C6(N5O)2
_symmetry_space_group_name_H-M   'P 1'
_cell_length_a   7.09270132
_cell_length_b   8.17086130
_cell_length_c   9.04313793
_cell_angle_alpha   90.00006380
_cell_angle_beta   90.00028333
_cell_angle_gamma   101.81351716
_symmetry_Int_Tables_number   1
_chemical_formula_structural   CuH8C6(N5O)2
_chemical_formula_sum   'Cu2 H16 C12 N20 O4'
_cell_volume   512.98079666
_cell_formula_units_Z   2
loop_
 _symmetry_equiv_pos_site_id
 _symmetry_equiv_pos_as_xyz
  1  'x, y, z'
loop_
 _atom_site_type_symbol
 _atom_site_label
 _atom_site_symmetry_multiplicity
 _atom_site_fract_x
 _atom_site_fract_y
 _atom_site_fract_z
 _atom_site_occupancy
 _atom_site_hle17_ddec_charge
 _atom_site_hle17_ddec_spin_density
 _atom_site_hle17_ddec_sum_bond_order
 _atom_site_hle17_magmom
 _atom_site_hse06_10hf_ddec_charge
 _atom_site_hse06_10hf_ddec_spin_density
 _atom_site_hse06_10hf_ddec_sum_bond_order
 _atom_site_hse06_10hf_magmom
 _atom_site_hse06_ddec_charge
 _atom_site_hse06_ddec_spin_density
 _atom_site_hse06_ddec_sum_bond_order
 _atom_site_hse06_magmom
 _atom_site_pbe_cm5_charge
 _atom_site_pbe_ddec_charge
 _atom_site_pbe_ddec_spin_density
 _atom_site_pbe_ddec_sum_bond_order
 _atom_site_pbe_magmom
Cu  Cu0  1  0.99999798  0.49999899  0.00000000  1  0.842064  0.707556  1.933003  0.541  0.799777  0.794012  2.358047  0.656  0.895377  0.853968  2.278608  0.738  0.772869  0.739084  0.749358  2.413269  0.599
Cu  Cu1  1  0.49999815  0.99999801  0.50000050  1  0.842002  0.707559  1.933142  0.541  0.799742  0.794017  2.358179  0.656  0.895352  0.853979  2.278711  0.738  0.772898  0.739055  0.749369  2.413398  0.599
H  H2  1  0.51531287  0.64565869  0.21839124  1  0.317367  -0.000292  0.905286  0.0  0.284619  -0.000164  0.990185  0.0  0.294385  -0.000169  0.981715  0.0  0.316137  0.277657  -0.000129  0.996298  0.0
H  H3  1  0.98469191  0.85434505  0.71839127  1  0.317345  -0.000292  0.905187  0.0  0.284579  -0.000164  0.990108  0.0  0.294347  -0.000169  0.981636  0.0  0.316104  0.277617  -0.000129  0.996221  0.0
H  H4  1  0.48468962  0.35434385  0.78161035  1  0.31734  -0.000292  0.905198  0.0  0.284581  -0.000164  0.990121  0.0  0.294345  -0.000169  0.981651  0.0  0.316117  0.277618  -0.000129  0.996233  0.0
H  H5  1  0.01530917  0.14565751  0.28161142  1  0.31736  -0.000291  0.905307  0.0  0.284586  -0.000164  0.990227  0.0  0.294352  -0.000169  0.981758  0.0  0.316122  0.277624  -0.000129  0.996341  0.0
H  H6  1  0.53729043  0.88382815  0.10292816  1  0.139613  0.000987  0.963733  0.001  0.154178  0.000791  1.02507  0.001  0.155178  0.000504  1.026635  0.001  0.10213  0.153413  0.001053  1.023999  0.001
H  H7  1  0.96271485  0.61616904  0.60292234  1  0.139645  0.00099  0.963752  0.001  0.154204  0.000791  1.025079  0.001  0.155202  0.000504  1.026647  0.001  0.10216  0.15344  0.001053  1.024008  0.001
H  H8  1  0.46270973  0.11617065  0.89707674  1  0.139607  0.000987  0.963723  0.001  0.154152  0.000791  1.025066  0.001  0.155149  0.000504  1.026634  0.001  0.102129  0.153388  0.001053  1.023994  0.001
H  H9  1  0.03729144  0.38382597  0.39707040  1  0.139673  0.000987  0.963716  0.001  0.154202  0.000791  1.025085  0.001  0.155198  0.000504  1.026654  0.001  0.102147  0.153437  0.001053  1.024016  0.001
H  H10  1  0.59383724  0.87299987  0.91064790  1  0.146571  -0.000708  0.953831  -0.001  0.161541  -0.000181  1.015862  0.0  0.163575  -0.000159  1.016482  0.0  0.102587  0.160035  -0.000173  1.015438  0.0
H  H11  1  0.90616230  0.62700063  0.41064827  1  0.146542  -0.000705  0.953908  -0.001  0.161518  -0.000181  1.015915  0.0  0.163553  -0.000159  1.016534  0.0  0.102575  0.160013  -0.000173  1.015491  0.0
H  H12  1  0.40615809  0.12699646  0.08935369  1  0.146537  -0.000706  0.953947  -0.001  0.161515  -0.000181  1.015942  0.0  0.163549  -0.000159  1.016563  0.0  0.102582  0.16001  -0.000173  1.015518  0.0
H  H13  1  0.09383786  0.37299818  0.58935000  1  0.146584  -0.000711  0.953867  -0.001  0.161567  -0.000181  1.015864  0.0  0.163602  -0.000159  1.016483  0.0  0.102589  0.160062  -0.000173  1.015439  0.0
H  H14  1  0.77593101  0.96484023  0.03785281  1  0.159848  -0.000613  0.935575  -0.001  0.170471  -0.000213  1.005858  0.0  0.174004  -0.000164  1.003437  0.0  0.1072  0.16791  -0.000238  1.00757  0.0
H  H15  1  0.72407676  0.53516305  0.53784707  1  0.159759  -0.00061  0.935543  -0.001  0.170371  -0.000213  1.005859  0.0  0.173905  -0.000165  1.003437  0.0  0.107167  0.16781  -0.000238  1.007572  0.0
H  H16  1  0.22407038  0.03516357  0.96215320  1  0.159738  -0.000607  0.93556  -0.001  0.170361  -0.000213  1.005849  0.0  0.173893  -0.000165  1.003429  0.0  0.107171  0.167798  -0.000238  1.007562  0.0
H  H17  1  0.27592885  0.46484073  0.46214788  1  0.159803  -0.00061  0.935589  -0.001  0.17044  -0.000213  1.005862  0.0  0.173974  -0.000165  1.00344  0.0  0.107187  0.167878  -0.000238  1.007575  0.0
C  C18  1  0.64718732  0.86568758  0.02360966  1  -0.447489  0.00745  3.622992  0.008  -0.521908  0.004744  3.859519  0.005  -0.529404  0.003067  3.862297  0.004  -0.241681  -0.516268  0.006155  3.857277  0.007
C  C19  1  0.85282035  0.63431566  0.52360785  1  -0.447364  0.007437  3.622922  0.008  -0.521759  0.004745  3.859452  0.005  -0.52925  0.003066  3.862235  0.004  -0.241653  -0.516117  0.006155  3.857207  0.007
C  C20  1  0.35281627  0.13431370  0.97639414  1  -0.447303  0.007439  3.622979  0.008  -0.521621  0.004744  3.859478  0.005  -0.529129  0.003067  3.862247  0.004  -0.24163  -0.515978  0.006155  3.857234  0.007
C  C21  1  0.14718495  0.36568687  0.47638821  1  -0.447512  0.007449  3.623019  0.008  -0.521916  0.004745  3.859571  0.005  -0.529412  0.003066  3.862342  0.004  -0.241691  -0.516274  0.006155  3.85733  0.007
C  C22  1  0.70444188  0.70162109  0.04376862  1  0.677062  -0.007739  3.715209  -0.007  0.633068  -0.000716  4.013134  -0.001  0.668026  -0.001201  4.010016  -0.001  0.257279  0.609058  0.000191  4.014763  0.0
C  C23  1  0.79556170  0.79838222  0.54376786  1  0.677047  -0.007738  3.715295  -0.007  0.633029  -0.000716  4.013226  -0.001  0.667974  -0.001199  4.010134  -0.001  0.257271  0.609018  0.000191  4.014851  0.0
C  C24  1  0.29556171  0.29838019  0.95623297  1  0.677027  -0.007738  3.715264  -0.007  0.632837  -0.000715  4.013439  -0.001  0.66784  -0.0012  4.010272  -0.001  0.257249  0.608825  0.000191  4.015064  0.0
C  C25  1  0.20444500  0.20162029  0.45623262  1  0.677061  -0.00774  3.715255  -0.007  0.633013  -0.000714  4.013211  -0.001  0.667984  -0.001197  4.010076  -0.001  0.257266  0.609004  0.000191  4.014839  0.0
C  C26  1  0.66122866  0.45194934  0.19469058  1  0.469648  -0.004501  3.82211  -0.002  0.432845  -0.001286  4.097627  0.001  0.453241  -0.002257  4.110317  0.0  0.323738  0.41947  -0.000448  4.088816  0.001
C  C27  1  0.83877095  0.04804967  0.69469084  1  0.46966  -0.004486  3.821955  -0.002  0.432839  -0.001287  4.097497  0.001  0.453235  -0.002261  4.110189  0.0  0.323749  0.419462  -0.000449  4.088683  0.001
C  C28  1  0.33877230  0.54804695  0.80530880  1  0.469572  -0.004495  3.822089  -0.002  0.432838  -0.001286  4.097525  0.001  0.453232  -0.002258  4.110216  0.0  0.323705  0.419461  -0.000448  4.088711  0.001
C  C29  1  0.16123092  0.95195037  0.30530965  1  0.469735  -0.004494  3.82199  -0.002  0.432857  -0.001288  4.097585  0.001  0.453253  -0.002259  4.110277  0.0  0.323737  0.419481  -0.000449  4.088774  0.001
N  N30  1  0.61815628  0.60331321  0.15505389  1  -0.473236  0.002943  3.311742  0.005  -0.413974  0.000954  3.553346  0.002  -0.438258  0.000131  3.556687  0.001  -0.376463  -0.397535  0.001666  3.550787  0.003
N  N31  1  0.88184182  0.89668792  0.65505246  1  -0.473229  0.002939  3.311772  0.005  -0.413903  0.000954  3.553311  0.002  -0.438173  0.000131  3.55663  0.001  -0.376435  -0.397469  0.001666  3.55076  0.003
N  N32  1  0.38184107  0.39668562  0.84494770  1  -0.473211  0.002942  3.311916  0.005  -0.413897  0.000953  3.55353  0.002  -0.4382  0.000131  3.556872  0.001  -0.376454  -0.397466  0.001666  3.550991  0.003
N  N33  1  0.11815754  0.10331339  0.34494692  1  -0.473324  0.002944  3.31183  0.005  -0.413945  0.000954  3.553385  0.002  -0.438228  0.00013  3.556703  0.001  -0.376454  -0.397499  0.001667  3.550811  0.003
N  N34  1  0.65149768  0.22039593  0.30414913  1  -0.104272  0.005742  3.057292  0.01  -0.103402  0.003158  3.382218  0.006  -0.108709  0.000766  3.394079  0.004  -0.098225  -0.099769  0.005617  3.374781  0.009
N  N35  1  0.84850017  0.27960462  0.80414745  1  -0.10437  0.005727  3.057305  0.01  -0.103511  0.00316  3.382239  0.006  -0.108818  0.000767  3.394101  0.004  -0.098235  -0.099876  0.005616  3.374799  0.009
N  N36  1  0.34850248  0.77960287  0.69585025  1  -0.104182  0.005731  3.057241  0.01  -0.103303  0.003161  3.382152  0.006  -0.108611  0.000769  3.394014  0.004  -0.098167  -0.09967  0.005617  3.374712  0.009
N  N37  1  0.15149920  0.72039669  0.19585082  1  -0.10428  0.005724  3.057294  0.01  -0.103404  0.003161  3.382206  0.006  -0.10871  0.000767  3.394068  0.004  -0.098212  -0.099771  0.005616  3.374768  0.009
N  N38  1  0.55816140  0.34812642  0.29307100  1  -0.332385  0.005634  2.903544  0.007  -0.304731  0.002474  3.186997  0.003  -0.316826  0.001873  3.199844  0.003  -0.223652  -0.296632  0.003012  3.178232  0.004
N  N39  1  0.94183668  0.15187535  0.79306845  1  -0.332327  0.005633  2.903484  0.007  -0.304671  0.002475  3.186953  0.003  -0.316762  0.001874  3.199787  0.003  -0.223659  -0.296571  0.003012  3.178186  0.004
N  N40  1  0.44183595  0.65187240  0.70692948  1  -0.332375  0.00564  2.903547  0.007  -0.304749  0.002474  3.186995  0.003  -0.316836  0.001873  3.199826  0.003  -0.223653  -0.29665  0.003012  3.17823  0.004
N  N41  1  0.05816299  0.84812721  0.20693093  1  -0.332379  0.005636  2.903465  0.007  -0.304706  0.002475  3.186943  0.003  -0.316795  0.001876  3.199775  0.003  -0.223648  -0.296608  0.003012  3.178178  0.004
N  N42  1  0.81294588  0.39178731  0.14554419  1  -0.36435  0.064372  3.267528  0.084  -0.33873  0.044034  3.601245  0.061  -0.371413  0.035443  3.617542  0.052  -0.275212  -0.318784  0.048715  3.591786  0.064
N  N43  1  0.68704997  0.10820910  0.64554391  1  -0.364334  0.064359  3.267386  0.084  -0.338769  0.044036  3.601159  0.061  -0.371454  0.035441  3.617444  0.052  -0.275226  -0.318826  0.048718  3.5917  0.064
N  N44  1  0.18704975  0.60821027  0.85445519  1  -0.364241  0.064363  3.267335  0.084  -0.33868  0.044035  3.601067  0.061  -0.371367  0.035441  3.617372  0.052  -0.275187  -0.318735  0.048717  3.591607  0.064
N  N45  1  0.31294848  0.89178846  0.35445657  1  -0.364314  0.064362  3.26744  0.084  -0.338725  0.044035  3.601234  0.061  -0.37141  0.035439  3.61752  0.052  -0.275208  -0.318782  0.048717  3.591773  0.064
N  N46  1  0.80313990  0.24449078  0.21663004  1  -0.079292  -0.001004  3.002411  0.0  -0.050453  0.000775  3.293989  0.001  -0.048457  3e-05  3.30797  0.0  -0.089795  -0.051314  0.001431  3.284763  0.002
N  N47  1  0.69685705  0.25550831  0.71662885  1  -0.079261  -0.000975  3.002265  0.0  -0.05039  0.000771  3.293825  0.001  -0.048389  2.9e-05  3.307802  0.0  -0.089797  -0.051249  0.00143  3.284597  0.002
N  N48  1  0.19685886  0.75550804  0.78336934  1  -0.079402  -0.00099  3.002393  0.0  -0.050558  0.000772  3.293996  0.001  -0.048561  2.8e-05  3.307977  0.0  -0.089843  -0.051419  0.001431  3.284768  0.002
N  N49  1  0.30314201  0.74449175  0.28336943  1  -0.079338  -0.000974  3.002382  0.0  -0.050498  0.000772  3.293974  0.001  -0.048499  2.8e-05  3.307954  0.0  -0.089828  -0.051358  0.001431  3.284747  0.002
O  O50  1  0.82602616  0.66011831  0.95750808  1  -0.530119  0.073942  2.058078  0.105  -0.503416  0.048622  2.341964  0.075  -0.543052  0.035151  2.333323  0.059  -0.290484  -0.476785  0.058464  2.347816  0.085
O  O51  1  0.67397400  0.83988355  0.45750997  1  -0.530133  0.073949  2.058165  0.105  -0.503411  0.048623  2.342042  0.075  -0.543044  0.03515  2.333405  0.059  -0.29047  -0.476782  0.058466  2.347894  0.085
O  O52  1  0.17397149  0.33988176  0.04249572  1  -0.530125  0.073953  2.057951  0.105  -0.50335  0.048627  2.341958  0.075  -0.542967  0.035154  2.333218  0.059  -0.290447  -0.476717  0.05847  2.347807  0.085
O  O53  1  0.32602646  0.16011650  0.54249051  1  -0.530061  0.073938  2.058118  0.105  -0.503353  0.048618  2.342014  0.075  -0.542991  0.035149  2.333362  0.059  -0.290458  -0.476725  0.05846  2.347866  0.085
