# generated using pymatgen
data_YbH13C8SO12
_symmetry_space_group_name_H-M   'P 1'
_cell_length_a   9.46383462
_cell_length_b   10.43114675
_cell_length_c   14.66647995
_cell_angle_alpha   90.00028312
_cell_angle_beta   89.24803687
_cell_angle_gamma   89.99670968
_symmetry_Int_Tables_number   1
_chemical_formula_structural   YbH13C8SO12
_chemical_formula_sum   'Yb4 H52 C32 S4 O48'
_cell_volume   1447.73037319
_cell_formula_units_Z   4
loop_
 _symmetry_equiv_pos_site_id
 _symmetry_equiv_pos_as_xyz
  1  'x, y, z'
loop_
 _atom_site_type_symbol
 _atom_site_label
 _atom_site_symmetry_multiplicity
 _atom_site_fract_x
 _atom_site_fract_y
 _atom_site_fract_z
 _atom_site_occupancy
 _atom_site_pbe_bader_charge
 _atom_site_pbe_bader_spin_density
 _atom_site_pbe_cm5_charge
 _atom_site_pbe_ddec_charge
 _atom_site_pbe_ddec_spin_density
 _atom_site_pbe_ddec_sum_bond_order
 _atom_site_pbe_magmom
Yb  Yb0  1  0.68124170  0.55726070  0.67548205  1  2.184193  0  1.553468  2.075875  0  2.031527  0
Yb  Yb1  1  0.81876025  0.05725143  0.82450769  1  2.184142  0  1.553347  2.075689  0  2.031782  0
Yb  Yb2  1  0.31876336  0.44274800  0.32451116  1  2.184389  0  1.553283  2.075671  0  2.031746  0
Yb  Yb3  1  0.18124456  0.94273426  0.17549373  1  2.184365  0  1.5534  2.075788  0  2.031629  0
H  H4  1  0.11907775  0.35331669  0.81371694  1  0.131993  0  0.118211  0.123617  0  1.00371  0
H  H5  1  0.38092296  0.85330987  0.68627667  1  0.132303  0  0.118051  0.123181  0  1.003806  0
H  H6  1  0.88094227  0.64667283  0.18626890  1  0.132401  0  0.118111  0.123343  0  1.003835  0
H  H7  1  0.61899877  0.14670554  0.31372676  1  0.133776  0  0.118203  0.123464  0  1.003774  0
H  H8  1  0.33387358  0.53436798  0.03648515  1  0.156758  0  0.113478  0.12094  0  1.034115  0
H  H9  1  0.16613476  0.03440829  0.46352469  1  0.156809  0  0.113444  0.120891  0  1.034121  0
H  H10  1  0.66615508  0.46563017  0.96349983  1  0.156614  0  0.113374  0.120735  0  1.034443  0
H  H11  1  0.83384599  0.96558219  0.53649451  1  0.15675  0  0.113463  0.120951  0  1.03407  0
H  H12  1  0.00419899  0.73595109  0.89739076  1  0.136545  0  0.115741  0.115533  0  1.056441  0
H  H13  1  0.49578022  0.23598987  0.60262416  1  0.136641  0  0.115786  0.115662  0  1.056107  0
H  H14  1  0.99577675  0.26400297  0.10260005  1  0.136345  0  0.115728  0.115577  0  1.056159  0
H  H15  1  0.50418045  0.76405621  0.39743432  1  0.136361  0  0.115761  0.115444  0  1.056446  0
H  H16  1  0.55046395  0.67439870  0.83631841  1  0.645724  0  0.315727  0.425979  0  0.876518  0
H  H17  1  0.94955232  0.17440886  0.66368182  1  0.64585  0  0.315737  0.425977  0  0.876533  0
H  H18  1  0.44957370  0.32558699  0.16367669  1  0.645797  0  0.315693  0.426133  0  0.876304  0
H  H19  1  0.05042498  0.82560751  0.33631251  1  0.645865  0  0.315663  0.425972  0  0.876537  0
H  H20  1  0.56397397  0.78767318  0.76532258  1  0.673645  0  0.301111  0.409148  0  0.923941  0
H  H21  1  0.93602797  0.28767610  0.73468302  1  0.67383  0  0.30127  0.40932  0  0.923702  0
H  H22  1  0.43600467  0.21233072  0.23467663  1  0.673652  0  0.301084  0.409175  0  0.923936  0
H  H23  1  0.06396756  0.71231151  0.26532334  1  0.673758  0  0.301299  0.409314  0  0.923701  0
H  H24  1  0.95514621  0.63866992  0.59988035  1  0.656473  0  0.301074  0.389592  0  0.944888  0
H  H25  1  0.54487485  0.13867761  0.90009730  1  0.656773  0  0.300955  0.389597  0  0.944943  0
H  H26  1  0.04485480  0.36130618  0.40012495  1  0.65646  0  0.30095  0.389494  0  0.945069  0
H  H27  1  0.45511825  0.86131958  0.09987121  1  0.656569  0  0.301039  0.389606  0  0.944888  0
H  H28  1  0.94989642  0.48994713  0.58705737  1  0.625517  0  0.327473  0.420678  0  0.862838  0
H  H29  1  0.55015489  0.98996361  0.91292497  1  0.626716  0  0.327495  0.420748  0  0.862976  0
H  H30  1  0.05013328  0.51002897  0.41294754  1  0.625628  0  0.327498  0.420753  0  0.862865  0
H  H31  1  0.44984498  0.01003358  0.08707410  1  0.626759  0  0.327595  0.420814  0  0.862904  0
H  H32  1  0.42557861  0.45190847  0.59179104  1  0.644767  0  0.304557  0.410399  0  0.908044  0
H  H33  1  0.07443784  0.95189009  0.90820481  1  0.647549  0  0.30446  0.410275  0  0.908235  0
H  H34  1  0.57443768  0.54811077  0.40820487  1  0.647569  0  0.304461  0.41034  0  0.908152  0
H  H35  1  0.92554076  0.04812245  0.09182113  1  0.64772  0  0.304433  0.410271  0  0.90826  0
H  H36  1  0.37628670  0.58297511  0.63016211  1  0.638735  0  0.307867  0.413779  0  0.897974  0
H  H37  1  0.12375081  0.08295347  0.86984015  1  0.638742  0  0.307827  0.413817  0  0.897964  0
H  H38  1  0.62372678  0.41703071  0.36985146  1  0.639094  0  0.307877  0.413849  0  0.897937  0
H  H39  1  0.87625175  0.91703414  0.13016867  1  0.638625  0  0.307812  0.413712  0  0.898114  0
H  H40  1  0.69922912  0.33753883  0.55238376  1  0.666501  0  0.301865  0.406474  0  0.934087  0
H  H41  1  0.80076511  0.83755596  0.94763062  1  0.666386  0  0.301838  0.406504  0  0.934052  0
H  H42  1  0.30076163  0.66245837  0.44761272  1  0.666539  0  0.301779  0.406424  0  0.934145  0
H  H43  1  0.19922553  0.16242589  0.05236655  1  0.666514  0  0.301825  0.40649  0  0.934034  0
H  H44  1  0.67759483  0.27954530  0.65516667  1  0.681626  0  0.308647  0.418086  0  0.909591  0
H  H45  1  0.82243248  0.77954978  0.84484926  1  0.681751  0  0.308536  0.417915  0  0.909843  0
H  H46  1  0.32239109  0.72046819  0.34482679  1  0.681633  0  0.30856  0.418056  0  0.909669  0
H  H47  1  0.17757569  0.22044742  0.15515098  1  0.6817  0  0.308603  0.417924  0  0.909782  0
H  H48  1  0.69262006  0.38224874  0.82991832  1  0.672768  0  0.303938  0.408376  0  0.927092  0
H  H49  1  0.80738115  0.88226479  0.67006796  1  0.672808  0  0.303911  0.408297  0  0.927175  0
H  H50  1  0.30738808  0.61773503  0.17006890  1  0.672882  0  0.303918  0.40843  0  0.927057  0
H  H51  1  0.19263402  0.11774774  0.32992171  1  0.672702  0  0.303887  0.408344  0  0.927161  0
H  H52  1  0.53167966  0.39166985  0.81119334  1  0.672997  0  0.308518  0.418351  0  0.900919  0
H  H53  1  0.96831124  0.89163931  0.68880063  1  0.672857  0  0.308488  0.418319  0  0.900966  0
H  H54  1  0.46833815  0.60833310  0.18879307  1  0.672827  0  0.308497  0.418436  0  0.900766  0
H  H55  1  0.03167541  0.10834733  0.31121481  1  0.672879  0  0.308498  0.418412  0  0.900798  0
C  C56  1  0.92633127  0.54418723  0.78573581  1  1.551468  0  0.208148  0.588682  0  4.192274  0
C  C57  1  0.57366893  0.04418204  0.71424346  1  1.551934  0  0.208206  0.588571  0  4.192295  0
C  C58  1  0.07370061  0.45582818  0.21423565  1  1.551914  0  0.208021  0.588621  0  4.191958  0
C  C59  1  0.42633711  0.95582857  0.28576351  1  1.551593  0  0.208321  0.588727  0  4.191816  0
C  C60  1  0.04864674  0.54499561  0.84800210  1  -0.006634  0  -0.011702  -0.027825  0  3.971189  0
C  C61  1  0.45134507  0.04499789  0.65198903  1  -0.006204  0  -0.011777  -0.027595  0  3.970847  0
C  C62  1  0.95136456  0.45497953  0.15198530  1  -0.007051  0  -0.011816  -0.028065  0  3.971646  0
C  C63  1  0.54863477  0.95502710  0.34802258  1  -0.006805  0  -0.011717  -0.027501  0  3.971221  0
C  C64  1  0.13498114  0.43703403  0.85676155  1  -0.062572  0  -0.060182  -0.0713  0  3.895962  0
C  C65  1  0.36500127  0.93704776  0.64322742  1  -0.062968  0  -0.059918  -0.070833  0  3.895719  0
C  C66  1  0.86503280  0.56295070  0.14322257  1  -0.062789  0  -0.06002  -0.070826  0  3.895565  0
C  C67  1  0.63495725  0.06298107  0.35677815  1  -0.064767  0  -0.060102  -0.070983  0  3.895742  0
C  C68  1  0.23891467  0.43672198  0.92352294  1  -0.14158  0  -0.015871  -0.094067  0  3.97837  0
C  C69  1  0.26105726  0.93675201  0.57648530  1  -0.141983  0  -0.015867  -0.093825  0  3.978513  0
C  C70  1  0.76106676  0.56326275  0.07648534  1  -0.142135  0  -0.015934  -0.094118  0  3.978011  0
C  C71  1  0.73890717  0.06327682  0.42351650  1  -0.128791  0  -0.015785  -0.094083  0  3.978162  0
C  C72  1  0.25602643  0.53994153  0.98271455  1  -0.046398  0  -0.062898  -0.074623  0  3.89727  0
C  C73  1  0.24397238  0.03997637  0.51729957  1  -0.046073  0  -0.062819  -0.074596  0  3.897811  0
C  C74  1  0.74397607  0.46005086  0.01727987  1  -0.045882  0  -0.062799  -0.074403  0  3.897359  0
C  C75  1  0.75601158  0.96004095  0.48270611  1  -0.059095  0  -0.062855  -0.074612  0  3.897583  0
C  C76  1  0.17021407  0.64838531  0.97235684  1  -0.027305  0  -0.009813  -0.0213  0  3.961626  0
C  C77  1  0.32973998  0.14841384  0.52767731  1  -0.027565  0  -0.009607  -0.021241  0  3.962297  0
C  C78  1  0.82976885  0.35160038  0.02764879  1  -0.027478  0  -0.009885  -0.021424  0  3.962058  0
C  C79  1  0.67023047  0.85161595  0.47233992  1  -0.02731  0  -0.009851  -0.021272  0  3.962409  0
C  C80  1  0.06985503  0.65131345  0.90400752  1  0.024925  0  -0.063365  -0.080773  0  3.890322  0
C  C81  1  0.43015394  0.15132014  0.59598049  1  0.024813  0  -0.063411  -0.081112  0  3.890694  0
C  C82  1  0.93015775  0.34866840  0.09597722  1  0.025575  0  -0.063201  -0.080637  0  3.890611  0
C  C83  1  0.56983908  0.84871828  0.40402161  1  0.025712  0  -0.063403  -0.080945  0  3.891159  0
C  C84  1  0.17140452  0.75663831  0.03836236  1  1.558193  0  0.206213  0.59401  0  4.181305  0
C  C85  1  0.32858507  0.25662984  0.46164438  1  1.558227  0  0.206211  0.594164  0  4.180519  0
C  C86  1  0.82860631  0.24334642  0.96165448  1  1.558834  0  0.206249  0.594224  0  4.180851  0
C  C87  1  0.67139364  0.74336256  0.53834112  1  1.55918  0  0.206146  0.594002  0  4.181062  0
S  S88  1  0.33807381  0.29387516  0.94123328  1  3.148849  0  0.522329  1.162319  0  6.164494  0
S  S89  1  0.16192903  0.79391500  0.55875049  1  3.148512  0  0.522318  1.162169  0  6.164835  0
S  S90  1  0.66193557  0.70612299  0.05875949  1  3.149385  0  0.522234  1.162071  0  6.164747  0
S  S91  1  0.83807088  0.20611096  0.44124173  1  3.149048  0  0.522372  1.162186  0  6.165087  0
O  O92  1  0.84502141  0.64242972  0.78054854  1  -1.190856  0  -0.372926  -0.634576  0  2.290356  0
O  O93  1  0.65497966  0.14240500  0.71944649  1  -1.190555  0  -0.373059  -0.634529  0  2.290638  0
O  O94  1  0.15497361  0.35756459  0.21947424  1  -1.190525  0  -0.372854  -0.634466  0  2.290414  0
O  O95  1  0.34504052  0.85759123  0.28057159  1  -1.190384  0  -0.373067  -0.63467  0  2.290403  0
O  O96  1  0.89821426  0.44534338  0.73838196  1  -1.19791  0  -0.341496  -0.619393  0  2.32017  0
O  O97  1  0.60181871  0.94534803  0.76160657  1  -1.19881  0  -0.341518  -0.619529  0  2.320278  0
O  O98  1  0.10177647  0.55467491  0.26159464  1  -1.198529  0  -0.341446  -0.619358  0  2.319666  0
O  O99  1  0.39821778  0.05465779  0.23838915  1  -1.198773  0  -0.341497  -0.619459  0  2.319668  0
O  O100  1  0.12493418  0.86679701  0.01740760  1  -1.175317  0  -0.339338  -0.599213  0  2.207939  0
O  O101  1  0.37500996  0.36681508  0.48260132  1  -1.175435  0  -0.339434  -0.599512  0  2.207434  0
O  O102  1  0.87504498  0.13318005  0.98263482  1  -1.175895  0  -0.339215  -0.599355  0  2.207681  0
O  O103  1  0.62495577  0.63319553  0.51739234  1  -1.176064  0  -0.339263  -0.599291  0  2.208179  0
O  O104  1  0.21458249  0.73533310  0.11993528  1  -1.195052  0  -0.386955  -0.638839  0  2.314507  0
O  O105  1  0.28539938  0.23534433  0.38007499  1  -1.194735  0  -0.387013  -0.63884  0  2.314412  0
O  O106  1  0.78543801  0.26464971  0.88008076  1  -1.195029  0  -0.387001  -0.638808  0  2.314121  0
O  O107  1  0.71456867  0.76464520  0.61991743  1  -1.195007  0  -0.387042  -0.638896  0  2.314203  0
O  O108  1  0.54596674  0.69375112  0.77094894  1  -1.287814  0  -0.645655  -0.846946  0  2.022898  0
O  O109  1  0.95400162  0.19375592  0.72905137  1  -1.288175  0  -0.645848  -0.84715  0  2.022825  0
O  O110  1  0.45405691  0.30624224  0.22904740  1  -1.287884  0  -0.645514  -0.847083  0  2.022699  0
O  O111  1  0.04599290  0.80623744  0.27094808  1  -1.288117  0  -0.645846  -0.847173  0  2.022787  0
O  O112  1  0.89433494  0.56764087  0.57865140  1  -1.253086  0  -0.618783  -0.821841  0  2.087532  0
O  O113  1  0.60567876  0.06766188  0.92138021  1  -1.254681  0  -0.618697  -0.821886  0  2.087474  0
O  O114  1  0.10568187  0.43233044  0.42134797  1  -1.253236  0  -0.618688  -0.821784  0  2.087871  0
O  O115  1  0.39430021  0.93234586  0.07863683  1  -1.254433  0  -0.618928  -0.82199  0  2.087764  0
O  O116  1  0.43981890  0.51090091  0.64375665  1  -1.253538  0  -0.63956  -0.837917  0  2.020541  0
O  O117  1  0.06021932  0.01088820  0.85623627  1  -1.256242  0  -0.6394  -0.837837  0  2.020542  0
O  O118  1  0.56020548  0.48910395  0.35624179  1  -1.256749  0  -0.639472  -0.837964  0  2.020487  0
O  O119  1  0.93978408  0.98910132  0.14377397  1  -1.256523  0  -0.639406  -0.837817  0  2.02052  0
O  O120  1  0.68150355  0.35944036  0.61812685  1  -1.327932  0  -0.690707  -0.892196  0  2.151287  0
O  O121  1  0.81852989  0.85945498  0.88188584  1  -1.327954  0  -0.690586  -0.892121  0  2.151456  0
O  O122  1  0.31846411  0.64055875  0.38186144  1  -1.328025  0  -0.690568  -0.892146  0  2.151169  0
O  O123  1  0.18153357  0.14053934  0.11812036  1  -1.328217  0  -0.690641  -0.892079  0  2.15156  0
O  O124  1  0.62095609  0.43970533  0.80171245  1  -1.321984  0  -0.66886  -0.864703  0  2.100031  0
O  O125  1  0.87904751  0.93972461  0.69826954  1  -1.321903  0  -0.668829  -0.864629  0  2.100045  0
O  O126  1  0.37906267  0.56028802  0.19827469  1  -1.322013  0  -0.66882  -0.864819  0  2.099595  0
O  O127  1  0.12095725  0.06029655  0.30171885  1  -1.321852  0  -0.668829  -0.864741  0  2.09989  0
O  O128  1  0.42821320  0.27173008  0.85966925  1  -1.33116  0  -0.326533  -0.590576  0  2.216391  0
O  O129  1  0.07184048  0.77175048  0.64033035  1  -1.331624  0  -0.326761  -0.590687  0  2.216289  0
O  O130  1  0.57177917  0.72824603  0.14031704  1  -1.331432  0  -0.326539  -0.590546  0  2.21649  0
O  O131  1  0.92820087  0.22825055  0.35968141  1  -1.331659  0  -0.32663  -0.590612  0  2.216704  0
O  O132  1  0.22955066  0.19124598  0.94762838  1  -1.315294  0  -0.328887  -0.599821  0  2.236152  0
O  O133  1  0.27044655  0.69127912  0.55235783  1  -1.315062  0  -0.328731  -0.599649  0  2.236098  0
O  O134  1  0.77047006  0.80874834  0.05236642  1  -1.315223  0  -0.32878  -0.599666  0  2.235942  0
O  O135  1  0.72958377  0.30877272  0.44764987  1  -1.31556  0  -0.328856  -0.59974  0  2.236286  0
O  O136  1  0.41684184  0.31169513  0.02509893  1  -1.337297  0  -0.334748  -0.585823  0  2.176747  0
O  O137  1  0.08315122  0.81168939  0.47488437  1  -1.336645  0  -0.33468  -0.585707  0  2.176935  0
O  O138  1  0.58318406  0.68830781  0.97489000  1  -1.33745  0  -0.334658  -0.585672  0  2.177068  0
O  O139  1  0.91686841  0.18831356  0.52509734  1  -1.336703  0  -0.334718  -0.585673  0  2.176909  0
