# generated using pymatgen
data_ZnH8(C2O)2
_symmetry_space_group_name_H-M   'P 1'
_cell_length_a   9.08247034
_cell_length_b   9.20337015
_cell_length_c   13.48680000
_cell_angle_alpha   90.00000000
_cell_angle_beta   90.00000000
_cell_angle_gamma   90.00000000
_symmetry_Int_Tables_number   1
_chemical_formula_structural   ZnH8(C2O)2
_chemical_formula_sum   'Zn8 H64 C32 O16'
_cell_volume   1127.35266175
_cell_formula_units_Z   8
loop_
 _symmetry_equiv_pos_site_id
 _symmetry_equiv_pos_as_xyz
  1  'x, y, z'
loop_
 _atom_site_type_symbol
 _atom_site_label
 _atom_site_symmetry_multiplicity
 _atom_site_fract_x
 _atom_site_fract_y
 _atom_site_fract_z
 _atom_site_occupancy
 _atom_site_hle17_bader_spin_density
 _atom_site_hle17_ddec_charge
 _atom_site_hle17_ddec_spin_density
 _atom_site_hle17_ddec_sum_bond_order
 _atom_site_hle17_magmom
 _atom_site_hse06_10hf_bader_spin_density
 _atom_site_hse06_10hf_ddec_charge
 _atom_site_hse06_10hf_ddec_spin_density
 _atom_site_hse06_10hf_ddec_sum_bond_order
 _atom_site_hse06_10hf_magmom
 _atom_site_hse06_bader_spin_density
 _atom_site_hse06_ddec_charge
 _atom_site_hse06_ddec_spin_density
 _atom_site_hse06_ddec_sum_bond_order
 _atom_site_hse06_magmom
 _atom_site_pbe_bader_charge
 _atom_site_pbe_bader_spin_density
 _atom_site_pbe_cm5_charge
 _atom_site_pbe_ddec_charge
 _atom_site_pbe_ddec_spin_density
 _atom_site_pbe_ddec_sum_bond_order
 _atom_site_pbe_magmom
Zn  Zn0  1  0.46661975  0.59371946  0.15517321  1  0  0.924577  0  1.778549  0  0  0.768425  0  2.204259  0  0  0.810865  0  2.160309  0  1.065851  0  0.560078  0.739115  0  2.233733  0
Zn  Zn1  1  0.53338132  0.09371784  0.84483050  1  0  0.924586  0  1.778587  0  0  0.768523  0  2.20426  0  0  0.810966  0  2.160304  0  1.06592  0  0.560064  0.739213  0  2.233734  0
Zn  Zn2  1  0.53338462  0.59370534  0.65516876  1  0  0.924601  0  1.778633  0  0  0.768486  0  2.204285  0  0  0.810922  0  2.16033  0  1.065963  0  0.560067  0.73918  0  2.233756  0
Zn  Zn3  1  0.46661644  0.09371024  0.34482531  1  0  0.924477  0  1.778587  0  0  0.768404  0  2.204218  0  0  0.810847  0  2.160271  0  1.065877  0  0.56009  0.739096  0  2.233689  0
Zn  Zn4  1  0.76195459  0.79125471  0.09672124  1  0  0.903628  0  1.814377  0  0  0.749592  0  2.242187  0  0  0.791457  0  2.198211  0  1.055845  0  0.553687  0.72099  0  2.271414  0
Zn  Zn5  1  0.23804427  0.29125418  0.90327950  1  0  0.903615  0  1.814437  0  0  0.749616  0  2.242256  0  0  0.791475  0  2.198284  0  1.055882  0  0.553684  0.721013  0  2.271487  0
Zn  Zn6  1  0.23804647  0.79124928  0.59671827  1  0  0.90374  0  1.814248  0  0  0.74968  0  2.242067  0  0  0.791536  0  2.198098  0  1.055925  0  0.553712  0.721078  0  2.271296  0
Zn  Zn7  1  0.76195459  0.29125418  0.40327728  1  0  0.903617  0  1.814247  0  0  0.749644  0  2.242049  0  0  0.791501  0  2.198082  0  1.055861  0  0.553708  0.721045  0  2.271274  0
H  H8  1  0.93673524  0.54089860  0.35949966  1  0  0.140936  0  0.969204  0  0  0.160989  0  1.026023  0  0  0.163405  0  1.025809  0  0.062918  0  0.10075  0.159801  0  1.025348  0
H  H9  1  0.06325922  0.04089698  0.64050182  1  0  0.140937  0  0.969114  0  0  0.160973  0  1.025968  0  0  0.163389  0  1.025755  0  0.062918  0  0.10074  0.159786  0  1.025293  0
H  H10  1  0.06325922  0.54090294  0.85949595  1  0  0.14097  0  0.969124  0  0  0.161016  0  1.02595  0  0  0.163433  0  1.025738  0  0.062968  0  0.100763  0.159829  0  1.025276  0
H  H11  1  0.93673854  0.04089698  0.14049886  1  0  0.140901  0  0.969196  0  0  0.160965  0  1.026005  0  0  0.163381  0  1.025793  0  0.062873  0  0.100733  0.159777  0  1.02533  0
H  H12  1  0.90664541  0.70845570  0.29460732  1  0  0.14444  0  0.949075  0  0  0.164362  0  1.007312  0  0  0.166903  0  1.006788  0  0.075613  0  0.103047  0.162671  0  1.007904  0
H  H13  1  0.09334245  0.20845516  0.70539120  1  0  0.144439  0  0.949141  0  0  0.164396  0  1.007312  0  0  0.166939  0  1.006788  0  0.075695  0  0.103063  0.162702  0  1.007907  0
H  H14  1  0.09334795  0.70845461  0.79460435  1  0  0.144374  0  0.949089  0  0  0.164349  0  1.007268  0  0  0.166892  0  1.006747  0  0.075622  0  0.103041  0.162656  0  1.007862  0
H  H15  1  0.90664651  0.20845299  0.20539120  1  0  0.144362  0  0.949115  0  0  0.164327  0  1.007311  0  0  0.16687  0  1.006789  0  0.075657  0  0.103035  0.162632  0  1.007909  0
H  H16  1  0.98838748  0.55974169  0.23290254  1  0  0.156286  0  0.943842  0  0  0.17872  0  0.996843  0  0  0.181291  0  0.996683  0  0.087837  0  0.110594  0.17692  0  0.997116  0
H  H17  1  0.01160587  0.05974116  0.76709375  1  0  0.156315  0  0.943827  0  0  0.178732  0  0.996846  0  0  0.181305  0  0.996684  0  0.087821  0  0.110613  0.176932  0  0.997118  0
H  H18  1  0.01160697  0.55974278  0.73290106  1  0  0.156322  0  0.943913  0  0  0.178793  0  0.996853  0  0  0.181369  0  0.996686  0  0.087753  0  0.110601  0.176994  0  0.997124  0
H  H19  1  0.98839079  0.05974116  0.26709523  1  0  0.1563  0  0.943839  0  0  0.178732  0  0.996845  0  0  0.181303  0  0.996687  0  0.087824  0  0.110609  0.176931  0  0.997117  0
H  H20  1  0.26389076  0.87529241  0.96388320  1  0  0.153747  0  0.938524  0  0  0.176099  0  0.99227  0  0  0.178382  0  0.992633  0  0.090138  0  0.108724  0.174347  0  0.99216  0
H  H21  1  0.73611140  0.37529404  0.03612940  1  0  0.153808  0  0.93848  0  0  0.176163  0  0.992208  0  0  0.178446  0  0.992576  0  0.089663  0  0.108749  0.174411  0  0.992099  0
H  H22  1  0.73612682  0.87529458  0.46387727  1  0  0.153711  0  0.938538  0  0  0.176098  0  0.992234  0  0  0.178384  0  0.992602  0  0.089975  0  0.108698  0.174346  0  0.992125  0
H  H23  1  0.26388085  0.37528209  0.53611680  1  0  0.153814  0  0.938537  0  0  0.176167  0  0.992272  0  0  0.178448  0  0.992635  0  0.090007  0  0.108753  0.174414  0  0.992163  0
H  H24  1  0.30685044  0.68576183  0.97127636  1  0  0.143663  0  0.943741  0  0  0.163063  0  1.002498  0  0  0.165889  0  1.001236  0  0.097526  0  0.100206  0.160569  0  1.004364  0
H  H25  1  0.69314512  0.18576782  0.02873699  1  0  0.143853  0  0.943757  0  0  0.163231  0  1.002483  0  0  0.166048  0  1.001216  0  0.097889  0  0.100245  0.160738  0  1.00435  0
H  H26  1  0.69317155  0.68576509  0.47126894  1  0  0.143773  0  0.943583  0  0  0.163181  0  1.002318  0  0  0.166003  0  1.001054  0  0.097483  0  0.10026  0.160688  0  1.004184  0
H  H27  1  0.30684383  0.18575369  0.52872216  1  0  0.143607  0  0.943694  0  0  0.163053  0  1.002401  0  0  0.165874  0  1.001147  0  0.097346  0  0.100184  0.16056  0  1.004266  0
H  H28  1  0.34821363  0.78916091  0.86131477  1  0  0.149132  0  0.95706  0  0  0.166625  0  1.019077  0  0  0.168932  0  1.018963  0  0.048366  0  0.102422  0.16457  0  1.01914  0
H  H29  1  0.65177422  0.28916473  0.13869858  1  0  0.149214  0  0.956918  0  0  0.166688  0  1.018923  0  0  0.169001  0  1.0188  0  0.048101  0  0.102423  0.164637  0  1.018991  0
H  H30  1  0.65179514  0.78916417  0.36130809  1  0  0.149141  0  0.957077  0  0  0.166626  0  1.01909  0  0  0.168935  0  1.018975  0  0.048274  0  0.102401  0.164572  0  1.019155  0
H  H31  1  0.34821584  0.28915603  0.63868004  1  0  0.149153  0  0.956968  0  0  0.166635  0  1.018997  0  0  0.168947  0  1.018877  0  0.048459  0  0.102404  0.164582  0  1.019065  0
H  H32  1  0.35809531  0.76307373  0.28102886  1  0  0.086925  0  1.027799  0  0  0.10288  0  1.090494  0  0  0.103652  0  1.094361  0  0.014012  0  0.062944  0.102217  0  1.08809  0
H  H33  1  0.64190356  0.26306885  0.71898078  1  0  0.086955  0  1.02784  0  0  0.102833  0  1.090641  0  0  0.103602  0  1.094519  0  0.013493  0  0.062917  0.102172  0  1.088234  0
H  H34  1  0.64190356  0.76306504  0.78101699  1  0  0.086939  0  1.027889  0  0  0.102835  0  1.090657  0  0  0.103604  0  1.094537  0  0.01356  0  0.062909  0.102174  0  1.08825  0
H  H35  1  0.35809861  0.26306450  0.21897782  1  0  0.086946  0  1.027799  0  0  0.102844  0  1.090561  0  0  0.103611  0  1.094448  0  0.01355  0  0.062943  0.102184  0  1.088152  0
H  H36  1  0.21665471  0.67346417  0.21664220  1  0  0.083082  0  1.025163  0  0  0.099789  0  1.085805  0  0  0.100327  0  1.090188  0  -0.032171  0  0.06126  0.098695  0  1.084136  0
H  H37  1  0.78334525  0.17345928  0.78336151  1  0  0.083117  0  1.025196  0  0  0.099821  0  1.085825  0  0  0.100359  0  1.090208  0  -0.032189  0  0.061257  0.098727  0  1.084155  0
H  H38  1  0.78334635  0.67345547  0.71663701  1  0  0.083099  0  1.025208  0  0  0.099791  0  1.085858  0  0  0.100328  0  1.09024  0  -0.032207  0  0.061232  0.098697  0  1.084188  0
H  H39  1  0.21665581  0.17345494  0.28335928  1  0  0.08308  0  1.025237  0  0  0.099757  0  1.085897  0  0  0.100295  0  1.09028  0  -0.032136  0  0.061223  0.098663  0  1.084227  0
H  H40  1  0.22142544  0.59652170  0.39786977  1  0  0.069403  0  0.972254  0  0  0.095066  0  1.034747  0  0  0.0944  0  1.036882  0  0.015841  0  0.071186  0.095502  0  1.033021  0
H  H41  1  0.77857452  0.09652877  0.60213171  1  0  0.069407  0  0.972231  0  0  0.095119  0  1.034672  0  0  0.094452  0  1.036806  0  0.016002  0  0.071181  0.095552  0  1.032948  0
H  H42  1  0.77857562  0.59653039  0.89786680  1  0  0.069424  0  0.972295  0  0  0.095135  0  1.034736  0  0  0.094468  0  1.036872  0  0.015923  0  0.071195  0.095569  0  1.033013  0
H  H43  1  0.22142654  0.09652551  0.10212949  1  0  0.069446  0  0.972264  0  0  0.095125  0  1.034738  0  0  0.094459  0  1.036872  0  0.015826  0  0.071198  0.095557  0  1.033019  0
H  H44  1  0.40513317  0.53612969  0.38352686  1  0  0.079465  0  0.974478  0  0  0.104931  0  1.033104  0  0  0.104392  0  1.035815  0  0.009289  0  0.073603  0.104477  0  1.032193  0
H  H45  1  0.59486459  0.03613350  0.61647611  1  0  0.079465  0  0.974516  0  0  0.10493  0  1.033142  0  0  0.104391  0  1.035852  0  0.009183  0  0.073621  0.104474  0  1.032235  0
H  H46  1  0.59487120  0.53613186  0.88352611  1  0  0.079478  0  0.974512  0  0  0.104942  0  1.033137  0  0  0.1044  0  1.035853  0  0.009314  0  0.073609  0.104491  0  1.032223  0
H  H47  1  0.40513757  0.03613024  0.11647166  1  0  0.079454  0  0.974469  0  0  0.104885  0  1.033129  0  0  0.104344  0  1.035845  0  0.009251  0  0.07362  0.104454  0  1.032192  0
H  H48  1  0.26154889  0.44540966  0.32079737  1  0  0.075234  0  0.974213  0  0  0.100077  0  1.035789  0  0  0.100213  0  1.037385  0  0.032281  0  0.074765  0.099903  0  1.034808  0
H  H49  1  0.73845328  0.94541020  0.67920040  1  0  0.075294  0  0.974197  0  0  0.100122  0  1.03579  0  0  0.100256  0  1.037388  0  0.03229  0  0.074764  0.099948  0  1.034809  0
H  H50  1  0.73845658  0.44541075  0.82080256  1  0  0.075253  0  0.974273  0  0  0.100092  0  1.035853  0  0  0.100232  0  1.037444  0  0.032303  0  0.074804  0.099918  0  1.034872  0
H  H51  1  0.26154999  0.94540585  0.17919818  1  0  0.075256  0  0.974213  0  0  0.100091  0  1.035799  0  0  0.100233  0  1.037388  0  0.032263  0  0.074761  0.099916  0  1.034822  0
H  H52  1  0.03536923  0.83734652  0.06936634  1  0  0.085902  0  1.022752  0  0  0.10251  0  1.083219  0  0  0.103199  0  1.087382  0  -0.002141  0  0.062759  0.101893  0  1.080785  0
H  H53  1  0.96462523  0.33734925  0.93063811  1  0  0.085931  0  1.022655  0  0  0.102517  0  1.083156  0  0  0.103204  0  1.08732  0  -0.00216  0  0.06276  0.1019  0  1.080722  0
H  H54  1  0.96463403  0.83734000  0.56936783  1  0  0.085916  0  1.022835  0  0  0.10254  0  1.083282  0  0  0.103229  0  1.087444  0  -0.002125  0  0.062772  0.101922  0  1.08085  0
H  H55  1  0.03536813  0.33734599  0.43063366  1  0  0.08588  0  1.022779  0  0  0.102493  0  1.083242  0  0  0.103181  0  1.087405  0  -0.00215  0  0.062744  0.101877  0  1.080807  0
H  H56  1  0.97492639  0.68869772  0.99899754  1  0  0.086903  0  1.037826  0  0  0.10305  0  1.099895  0  0  0.103909  0  1.103941  0  -0.009553  0  0.062765  0.102006  0  1.098256  0
H  H57  1  0.02507027  0.18869827  0.00100691  1  0  0.086829  0  1.037847  0  0  0.102969  0  1.099928  0  0  0.103828  0  1.103973  0  -0.009576  0  0.062721  0.101925  0  1.098286  0
H  H58  1  0.02506807  0.68869228  0.49899902  1  0  0.08683  0  1.037913  0  0  0.102991  0  1.099968  0  0  0.10385  0  1.104015  0  -0.009487  0  0.062723  0.101947  0  1.098327  0
H  H59  1  0.97492859  0.18870153  0.50100246  1  0  0.086848  0  1.037886  0  0  0.10301  0  1.099936  0  0  0.103869  0  1.103982  0  -0.009515  0  0.062767  0.101966  0  1.098295  0
H  H60  1  0.04286499  0.90420464  0.88928360  1  0  0.055486  0  0.98976  0  0  0.080651  0  1.054615  0  0  0.079485  0  1.056944  0  -0.013179  0  0.067691  0.081378  0  1.052821  0
H  H61  1  0.95713717  0.40420737  0.11072085  1  0  0.055537  0  0.989697  0  0  0.080657  0  1.054604  0  0  0.079496  0  1.056922  0  -0.013195  0  0.067708  0.081384  0  1.05281  0
H  H62  1  0.95712947  0.90419812  0.38928285  1  0  0.055449  0  0.989753  0  0  0.080595  0  1.054646  0  0  0.079436  0  1.056962  0  -0.013224  0  0.067647  0.081322  0  1.052852  0
H  H63  1  0.04286829  0.40420845  0.61071640  1  0  0.055472  0  0.989762  0  0  0.080607  0  1.054672  0  0  0.079446  0  1.056989  0  -0.013234  0  0.067679  0.081334  0  1.052878  0
H  H64  1  0.90198478  0.00800033  0.94531542  1  0  0.071896  0  0.978431  0  0  0.096997  0  1.040967  0  0  0.097189  0  1.041949  0  0.014084  0  0.074332  0.096098  0  1.04154  0
H  H65  1  0.09801849  0.50799978  0.05468606  1  0  0.071879  0  0.978464  0  0  0.096999  0  1.040977  0  0  0.097189  0  1.041958  0  0.014064  0  0.074341  0.0961  0  1.041548  0
H  H66  1  0.09801078  0.00799272  0.44531616  1  0  0.071929  0  0.978442  0  0  0.097002  0  1.040981  0  0  0.097192  0  1.041962  0  0.013811  0  0.07432  0.096105  0  1.041551  0
H  H67  1  0.90198478  0.50800304  0.55468310  1  0  0.071926  0  0.978456  0  0  0.097043  0  1.040965  0  0  0.097234  0  1.041947  0  0.014038  0  0.074348  0.096143  0  1.041538  0
H  H68  1  0.85521226  0.85436964  0.87428597  1  0  0.088763  0  0.965936  0  0  0.115343  0  1.022405  0  0  0.115476  0  1.024539  0  0.046807  0  0.081117  0.114913  0  1.021316  0
H  H69  1  0.14478990  0.35437127  0.12571551  1  0  0.0888  0  0.965983  0  0  0.115356  0  1.022464  0  0  0.115489  0  1.0246  0  0.047141  0  0.081135  0.114927  0  1.021375  0
H  H70  1  0.14478220  0.85436203  0.37428374  1  0  0.088836  0  0.965953  0  0  0.115409  0  1.022425  0  0  0.115546  0  1.024555  0  0.04681  0  0.081172  0.11498  0  1.021337  0
H  H71  1  0.85521446  0.35437127  0.62571477  1  0  0.088786  0  0.965975  0  0  0.11537  0  1.022438  0  0  0.115503  0  1.024574  0  0.047156  0  0.081123  0.114941  0  1.021348  0
C  C72  1  0.75718276  0.53738901  0.25444286  1  0  0.753341  0  3.808001  0  0  0.707697  0  4.09819  0  0  0.741947  0  4.090913  0  1.542495  0  0.227828  0.685855  0  4.100041  0
C  C73  1  0.24280729  0.03738522  0.74555491  1  0  0.753562  0  3.807534  0  0  0.707857  0  4.097829  0  0  0.742105  0  4.090554  0  1.541869  0  0.227858  0.686009  0  4.099686  0
C  C74  1  0.24281279  0.53738467  0.75443841  1  0  0.753495  0  3.807712  0  0  0.707798  0  4.097995  0  0  0.742045  0  4.090723  0  1.542274  0  0.227924  0.685953  0  4.099849  0
C  C75  1  0.75718497  0.03738413  0.24555491  1  0  0.75311  0  3.808176  0  0  0.7075  0  4.098336  0  0  0.74175  0  4.091063  0  1.542046  0  0.227715  0.685658  0  4.100183  0
C  C76  1  0.90556090  0.58969377  0.28863704  1  0  -0.479619  0  3.650933  0  0  -0.556205  0  3.875404  0  0  -0.564366  0  3.878241  0  -0.101051  0  -0.242119  -0.550727  0  3.872226  0
C  C77  1  0.09443686  0.08969540  0.71136370  1  0  -0.479672  0  3.65105  0  0  -0.556235  0  3.875519  0  0  -0.5644  0  3.878356  0  -0.101006  0  -0.242111  -0.550755  0  3.872342  0
C  C78  1  0.09443466  0.58969051  0.78863333  1  0  -0.479709  0  3.65087  0  0  -0.556334  0  3.875268  0  0  -0.564503  0  3.878108  0  -0.100994  0  -0.242161  -0.550854  0  3.87209  0
C  C79  1  0.90556200  0.08969106  0.21136222  1  0  -0.47949  0  3.650919  0  0  -0.556115  0  3.875354  0  0  -0.564282  0  3.878197  0  -0.101045  0  -0.242102  -0.550636  0  3.872176  0
C  C80  1  0.49192013  0.83159537  0.98250067  1  0  0.781254  0  3.768936  0  0  0.7359  0  4.053298  0  0  0.771406  0  4.044609  0  1.549158  0  0.23756  0.712768  0  4.056671  0
C  C81  1  0.50807543  0.33161548  0.01751120  1  0  0.780982  0  3.769373  0  0  0.735766  0  4.053547  0  0  0.771271  0  4.044859  0  1.549508  0  0.237546  0.712649  0  4.056898  0
C  C82  1  0.50809965  0.83161058  0.48249696  1  0  0.781306  0  3.76883  0  0  0.735963  0  4.053165  0  0  0.77147  0  4.044473  0  1.54922  0  0.237611  0.712842  0  4.056521  0
C  C83  1  0.49191353  0.33159809  0.51749340  1  0  0.781162  0  3.769161  0  0  0.735881  0  4.053451  0  0  0.771393  0  4.044756  0  1.549137  0  0.237519  0.712762  0  4.056803  0
C  C84  1  0.34344180  0.79097438  0.94263428  1  0  -0.474853  0  3.634425  0  0  -0.551873  0  3.859359  0  0  -0.560266  0  3.862745  0  -0.094065  0  -0.243718  -0.545604  0  3.856841  0
C  C85  1  0.65655265  0.29097928  0.05737610  1  0  -0.475219  0  3.634426  0  0  -0.552247  0  3.859452  0  0  -0.560633  0  3.862818  0  -0.094015  0  -0.243826  -0.54599  0  3.856939  0
C  C86  1  0.65657137  0.79097873  0.44263057  1  0  -0.475049  0  3.634308  0  0  -0.552114  0  3.859282  0  0  -0.56051  0  3.862664  0  -0.093938  0  -0.243744  -0.545848  0  3.856765  0
C  C87  1  0.34343850  0.29097059  0.55736127  1  0  -0.474966  0  3.634403  0  0  -0.552015  0  3.859366  0  0  -0.560412  0  3.862745  0  -0.093928  0  -0.243756  -0.545755  0  3.856849  0
C  C88  1  0.32212602  0.65529365  0.25507978  1  0  -0.549865  0  3.759162  0  0  -0.535468  0  4.043038  0  0  -0.556472  0  4.060641  0  -0.321188  0  -0.321898  -0.522213  0  4.032533  0
C  C89  1  0.67787284  0.15528877  0.74492763  1  0  -0.549889  0  3.759142  0  0  -0.535429  0  4.043039  0  0  -0.556433  0  4.060637  0  -0.320574  0  -0.321835  -0.522173  0  4.032532  0
C  C90  1  0.67787505  0.65528387  0.75507237  1  0  -0.549846  0  3.759221  0  0  -0.535386  0  4.04311  0  0  -0.55639  0  4.060709  0  -0.32056  0  -0.321796  -0.522131  0  4.032605  0
C  C91  1  0.32212492  0.15528659  0.24492244  1  0  -0.549748  0  3.759142  0  0  -0.535264  0  4.042986  0  0  -0.556272  0  4.060591  0  -0.320725  0  -0.321803  -0.52201  0  4.032487  0
C  C92  1  0.30114714  0.55320822  0.34366640  1  0  -0.216715  0  3.818518  0  0  -0.287181  0  4.051407  0  0  -0.287342  0  4.07061  0  -0.077598  0  -0.267395  -0.28678  0  4.039055  0
C  C93  1  0.69885062  0.05320877  0.65633360  1  0  -0.216841  0  3.81846  0  0  -0.28733  0  4.051326  0  0  -0.287489  0  4.070529  0  -0.077773  0  -0.267455  -0.286925  0  4.038977  0
C  C94  1  0.69885172  0.55320930  0.84366788  1  0  -0.216825  0  3.81859  0  0  -0.287317  0  4.051469  0  0  -0.287482  0  4.070668  0  -0.077896  0  -0.267493  -0.286917  0  4.039116  0
C  C95  1  0.30114824  0.05320442  0.15632989  1  0  -0.216849  0  3.818443  0  0  -0.287293  0  4.051325  0  0  -0.287459  0  4.070525  0  -0.077548  0  -0.267454  -0.286907  0  4.038968  0
C  C96  1  0.94576912  0.80038832  0.02034508  1  0  -0.559013  0  3.771653  0  0  -0.54726  0  4.060043  0  0  -0.567285  0  4.075681  0  -0.318217  0  -0.324901  -0.534415  0  4.050898  0
C  C97  1  0.05422974  0.30038996  0.97965789  1  0  -0.558961  0  3.77153  0  0  -0.54717  0  4.05992  0  0  -0.567195  0  4.075555  0  -0.318163  0  -0.324862  -0.534327  0  4.050773  0
C  C98  1  0.05422644  0.80038289  0.52034508  1  0  -0.558974  0  3.771818  0  0  -0.547244  0  4.060162  0  0  -0.567272  0  4.075804  0  -0.318221  0  -0.324866  -0.534401  0  4.051023  0
C  C99  1  0.94577022  0.30039105  0.47965566  1  0  -0.558932  0  3.77172  0  0  -0.547192  0  4.060103  0  0  -0.567215  0  4.075739  0  -0.318257  0  -0.324888  -0.534347  0  4.050957  0
C  C100  1  0.93598984  0.89623473  0.92783314  1  0  -0.218824  0  3.831185  0  0  -0.292125  0  4.068703  0  0  -0.291706  0  4.086212  0  -0.087633  0  -0.264178  -0.29212  0  4.057575  0
C  C101  1  0.06401232  0.39623637  0.07217057  1  0  -0.218931  0  3.831194  0  0  -0.292196  0  4.068688  0  0  -0.291775  0  4.086194  0  -0.088003  0  -0.264251  -0.292189  0  4.057557  0
C  C102  1  0.06400682  0.89622822  0.42783240  1  0  -0.218905  0  3.831289  0  0  -0.292171  0  4.06878  0  0  -0.291754  0  4.086285  0  -0.087429  0  -0.264202  -0.292168  0  4.057655  0
C  C103  1  0.93599205  0.39623746  0.57216686  1  0  -0.218879  0  3.831327  0  0  -0.292191  0  4.068847  0  0  -0.291773  0  4.086356  0  -0.087894  0  -0.264182  -0.292188  0  4.057722  0
O  O104  1  0.69510054  0.60721995  0.18271495  1  0  -0.649467  0  2.157583  0  0  -0.555865  0  2.441127  0  0  -0.585544  0  2.422818  0  -1.191822  0  -0.312012  -0.535107  0  2.45114  0
O  O105  1  0.30489722  0.10722159  0.81728801  1  0  -0.649511  0  2.157053  0  0  -0.55601  0  2.440746  0  0  -0.585688  0  2.422432  0  -1.191504  0  -0.312064  -0.535252  0  2.450766  0
O  O106  1  0.30489722  0.60720692  0.68270531  1  0  -0.649469  0  2.157449  0  0  -0.555867  0  2.441045  0  0  -0.585534  0  2.422719  0  -1.191737  0  -0.312082  -0.535114  0  2.451064  0
O  O107  1  0.69510494  0.10721181  0.31728653  1  0  -0.649344  0  2.157449  0  0  -0.55576  0  2.440956  0  0  -0.58544  0  2.422651  0  -1.191748  0  -0.311968  -0.535008  0  2.450968  0
O  O108  1  0.69367031  0.42831701  0.29224649  1  0  -0.615157  0  2.056642  0  0  -0.5461  0  2.321831  0  0  -0.571721  0  2.306605  0  -1.181251  0  -0.305207  -0.528056  0  2.330833  0
O  O109  1  0.30631975  0.92831103  0.70775425  1  0  -0.615301  0  2.05657  0  0  -0.546139  0  2.321737  0  0  -0.571759  0  2.306511  0  -1.181028  0  -0.305197  -0.528093  0  2.33074  0
O  O110  1  0.30632305  0.42831158  0.79224723  1  0  -0.615196  0  2.056514  0  0  -0.546146  0  2.32177  0  0  -0.57177  0  2.306545  0  -1.181226  0  -0.305243  -0.528099  0  2.330774  0
O  O111  1  0.69367031  0.92831320  0.20775054  1  0  -0.615006  0  2.056764  0  0  -0.545982  0  2.32198  0  0  -0.571608  0  2.306755  0  -1.180884  0  -0.305133  -0.527938  0  2.330982  0
O  O112  1  0.54902024  0.75198214  0.05099356  1  0  -0.639009  0  2.158595  0  0  -0.541257  0  2.434993  0  0  -0.572211  0  2.418004  0  -1.180463  0  -0.307317  -0.519321  0  2.444983  0
O  O113  1  0.45098303  0.25198921  0.94900792  1  0  -0.639046  0  2.158117  0  0  -0.541385  0  2.434499  0  0  -0.572343  0  2.417508  0  -1.180155  0  -0.307478  -0.519448  0  2.444481  0
O  O114  1  0.45099294  0.75198214  0.55099431  1  0  -0.639213  0  2.158057  0  0  -0.541508  0  2.43452  0  0  -0.572464  0  2.417523  0  -1.180174  0  -0.307498  -0.519573  0  2.444505  0
O  O115  1  0.54901583  0.25198378  0.44900199  1  0  -0.638762  0  2.158479  0  0  -0.54127  0  2.435089  0  0  -0.572223  0  2.418095  0  -1.180503  0  -0.307354  -0.519338  0  2.445073  0
O  O116  1  0.56151353  0.94118675  0.95045526  1  0  -0.631565  0  2.065818  0  0  -0.559493  0  2.340468  0  0  -0.58586  0  2.322564  0  -1.197739  0  -0.308552  -0.540408  0  2.351338  0
O  O117  1  0.43848973  0.44118186  0.04954622  1  0  -0.631209  0  2.066677  0  0  -0.559109  0  2.341208  0  0  -0.58547  0  2.323311  0  -1.198067  0  -0.308353  -0.540032  0  2.352069  0
O  O118  1  0.43850955  0.94118457  0.45045897  1  0  -0.631383  0  2.066395  0  0  -0.559244  0  2.340957  0  0  -0.585608  0  2.32306  0  -1.197936  0  -0.308432  -0.540161  0  2.351817  0
O  O119  1  0.56150472  0.44119490  0.54953733  1  0  -0.631562  0  2.066014  0  0  -0.5594  0  2.340564  0  0  -0.585768  0  2.322663  0  -1.197654  0  -0.308438  -0.540317  0  2.351422  0
