# generated using pymatgen
data_CuH8Pt(C7N3)2
_symmetry_space_group_name_H-M   'P 1'
_cell_length_a   6.87525663
_cell_length_b   9.23933174
_cell_length_c   11.58022743
_cell_angle_alpha   89.33882693
_cell_angle_beta   88.05850272
_cell_angle_gamma   68.15728023
_symmetry_Int_Tables_number   1
_chemical_formula_structural   CuH8Pt(C7N3)2
_chemical_formula_sum   'Cu2 H16 Pt2 C28 N12'
_cell_volume   682.40549958
_cell_formula_units_Z   2
loop_
 _symmetry_equiv_pos_site_id
 _symmetry_equiv_pos_as_xyz
  1  'x, y, z'
loop_
 _atom_site_type_symbol
 _atom_site_label
 _atom_site_symmetry_multiplicity
 _atom_site_fract_x
 _atom_site_fract_y
 _atom_site_fract_z
 _atom_site_occupancy
 _atom_site_hle17_ddec_charge
 _atom_site_hle17_ddec_spin_density
 _atom_site_hle17_ddec_sum_bond_order
 _atom_site_hle17_magmom
 _atom_site_hse06_10hf_ddec_charge
 _atom_site_hse06_10hf_ddec_spin_density
 _atom_site_hse06_10hf_ddec_sum_bond_order
 _atom_site_hse06_10hf_magmom
 _atom_site_hse06_ddec_charge
 _atom_site_hse06_ddec_spin_density
 _atom_site_hse06_ddec_sum_bond_order
 _atom_site_hse06_magmom
 _atom_site_pbe_cm5_charge
 _atom_site_pbe_ddec_charge
 _atom_site_pbe_ddec_spin_density
 _atom_site_pbe_ddec_sum_bond_order
 _atom_site_pbe_magmom
Cu  Cu0  1  0.35910930  0.28153086  0.75009780  1  0.880825  0.781526  1.953695  0.552  0.842382  0.836059  2.356147  0.652  0.919075  0.90823  2.296549  0.732  0.822075  0.796597  0.782275  2.396813  0.597
Cu  Cu1  1  0.64088712  0.71847190  0.24990274  1  0.880804  -0.781539  1.953666  -0.552  0.842281  -0.836054  2.356156  -0.652  0.918984  -0.908229  2.296636  -0.732  0.822065  0.796499  -0.782284  2.396899  -0.597
H  H2  1  0.21163726  0.85627003  0.71299134  1  0.103849  0.00098  0.978712  0.002  0.104458  0.000643  1.058973  0.001  0.10693  0.00039  1.057236  0.001  0.099574  0.102804  0.000901  1.059998  0.001
H  H3  1  0.06883953  0.14375234  0.21293670  1  0.103746  -0.000994  0.978672  -0.001  0.104983  -0.000687  1.057908  -0.001  0.107443  -0.000426  1.05625  -0.001  0.099396  0.103278  -0.0009  1.059446  -0.001
H  H4  1  0.78836636  0.14373273  0.28700555  1  0.103903  -0.000982  0.978723  -0.002  0.104548  -0.000643  1.05892  -0.001  0.107025  -0.00039  1.057172  -0.001  0.099564  0.102892  -0.0009  1.059943  -0.001
H  H5  1  0.93116389  0.85625392  0.78706446  1  0.103671  0.000996  0.978729  0.001  0.104948  0.000687  1.057917  0.001  0.10741  0.000426  1.056254  0.001  0.099364  0.103241  0.0009  1.059459  0.001
H  H6  1  0.54092501  0.83375242  0.60427015  1  0.110967  0.000378  0.92589  0.001  0.121694  -0.0  0.980373  0.0  0.122277  -4e-05  0.981768  0.0  0.112275  0.12053  7.7e-05  0.980738  0.0
H  H7  1  0.37562425  0.16622066  0.10429274  1  0.109252  -0.00038  0.928137  -0.001  0.12026  -7e-06  0.982573  0.0  0.120972  3.1e-05  0.98385  0.0  0.112065  0.119757  -7.6e-05  0.981749  0.0
H  H8  1  0.45909037  0.16623868  0.39573175  1  0.110963  -0.000381  0.925864  -0.001  0.121679  0.0  0.980361  0.0  0.122264  3.9e-05  0.981757  0.0  0.112259  0.120514  -7.7e-05  0.980729  0.0
H  H9  1  0.62437681  0.83378443  0.89570677  1  0.109197  0.000382  0.928155  0.001  0.12022  8e-06  0.98258  0.0  0.120933  -3.1e-05  0.983855  0.0  0.112051  0.11972  7.6e-05  0.981752  0.0
H  H10  1  0.80562466  0.56607455  0.55807494  1  0.123596  0.000783  0.952843  0.001  0.129852  0.000567  1.014693  0.001  0.132457  0.000373  1.013996  0.0  0.109905  0.128436  0.000723  1.014376  0.001
H  H11  1  0.37227409  0.43389325  0.05805603  1  0.122875  -0.000801  0.952595  -0.001  0.129271  -0.000565  1.01411  -0.001  0.131794  -0.000369  1.013556  0.0  0.109723  0.127524  -0.000722  1.014652  -0.001
H  H12  1  0.19438975  0.43391307  0.44193567  1  0.123615  -0.000787  0.952874  -0.001  0.129873  -0.000567  1.014696  -0.001  0.132476  -0.000373  1.014005  0.0  0.109945  0.128457  -0.000723  1.01438  -0.001
H  H13  1  0.62772548  0.56611185  0.94194180  1  0.122926  0.000802  0.952557  0.001  0.129283  0.000565  1.01412  0.001  0.131805  0.000369  1.013568  0.0  0.109739  0.127537  0.000722  1.014662  0.001
H  H14  1  0.72690205  0.33509228  0.62077949  1  0.08167  0.002102  0.99304  0.003  0.088132  0.001468  1.057137  0.002  0.087232  0.000967  1.058617  0.001  0.113787  0.088422  0.001892  1.056842  0.003
H  H15  1  0.06209824  0.66489405  0.12061266  1  0.080418  -0.002076  0.993846  -0.003  0.087351  -0.001442  1.05777  -0.002  0.086435  -0.000948  1.059244  -0.001  0.113563  0.088158  -0.001891  1.056385  -0.003
H  H16  1  0.27310419  0.66489999  0.37923042  1  0.081706  -0.002104  0.993047  -0.003  0.088242  -0.001469  1.057068  -0.002  0.087343  -0.000968  1.058548  -0.001  0.113813  0.088533  -0.001892  1.05677  -0.003
H  H17  1  0.93790196  0.33510988  0.87938776  1  0.080379  0.002075  0.993935  0.003  0.087399  0.001442  1.057787  0.002  0.086485  0.000948  1.059255  0.001  0.113568  0.088209  0.001892  1.056402  0.003
Pt  Pt18  1  0.99999059  0.00000471  0.99999943  1  0.078761  3e-06  4.067481  0.0  0.113881  6e-06  4.620566  0.0  0.101567  -0.0  4.593597  0.0  0.542582  0.122778  1e-06  4.640409  0.0
Pt  Pt19  1  0.99999327  0.99999688  0.49999916  1  0.077225  3e-06  4.070071  0.0  0.110471  2e-06  4.624842  0.0  0.098591  -2e-06  4.597348  0.0  0.542744  0.121534  0.0  4.640866  0.0
C  C20  1  0.74403845  0.16817086  0.94507311  1  0.059829  -0.001839  3.622235  -0.002  0.04044  -0.001135  3.971447  -0.001  0.053759  -0.00106  3.976794  -0.001  -0.018298  0.030636  -0.001164  3.969543  -0.001
C  C21  1  0.91235684  0.83164578  0.44495529  1  0.060216  0.001688  3.619427  0.002  0.041246  0.00108  3.968495  0.001  0.054125  0.001028  3.974184  0.001  -0.018045  0.031326  0.001166  3.966064  0.001
C  C22  1  0.25594803  0.83184006  0.05492587  1  0.059669  0.001833  3.622131  0.002  0.04023  0.001137  3.971409  0.001  0.053585  0.001065  3.976694  0.001  -0.018409  0.030425  0.001164  3.969496  0.001
C  C23  1  0.08763977  0.16834765  0.55504019  1  0.060264  -0.001694  3.619588  -0.002  0.041321  -0.00108  3.968613  -0.001  0.05419  -0.001023  3.974314  -0.001  -0.017995  0.031395  -0.001166  3.966202  -0.001
C  C24  1  0.17573833  0.07316592  0.89393498  1  0.110017  -0.01219  3.5741  -0.007  0.08942  -0.00175  3.916673  0.003  0.108766  -0.003335  3.920792  0.0  0.016999  0.076576  -0.000144  3.913912  0.005
C  C25  1  0.24913315  0.92679663  0.39398510  1  0.110979  0.011888  3.572623  0.006  0.090565  0.001517  3.914934  -0.003  0.109912  0.003144  3.919001  -0.001  0.017333  0.077455  0.000121  3.912801  -0.005
C  C26  1  0.82424088  0.92684501  0.10606420  1  0.109912  0.012198  3.574194  0.007  0.089312  0.001753  3.916743  -0.003  0.108656  0.003329  3.920868  0.0  0.017035  0.076467  0.000145  3.913972  -0.005
C  C27  1  0.75085562  0.07319797  0.60601145  1  0.110818  -0.011887  3.572845  -0.006  0.090407  -0.001517  3.91517  0.003  0.109751  -0.003149  3.919236  0.001  0.017272  0.077297  -0.000121  3.913036  0.005
C  C28  1  0.29083316  0.60702278  0.71911054  1  0.178492  -0.003297  3.748035  -0.004  0.179472  0.000956  3.984972  0.0  0.187638  -0.000409  4.006218  -0.001  0.121919  0.174361  0.001976  3.970597  0.002
C  C29  1  0.89835746  0.39297473  0.21895968  1  0.178941  0.003289  3.748961  0.004  0.181168  -0.000969  3.984525  0.0  0.18944  0.000404  4.005699  0.001  0.121972  0.175278  -0.001977  3.970409  -0.002
C  C30  1  0.70916879  0.39297765  0.28088987  1  0.178471  0.00328  3.748067  0.003  0.17952  -0.000954  3.984965  0.0  0.187688  0.000407  4.006209  0.001  0.121961  0.174414  -0.001976  3.970583  -0.002
C  C31  1  0.10164391  0.60702687  0.78104073  1  0.178826  -0.003263  3.749037  -0.004  0.181112  0.000968  3.984567  0.0  0.189381  -0.000404  4.005745  -0.001  0.121923  0.175223  0.001978  3.970449  0.002
C  C32  1  0.32650469  0.74227351  0.68905481  1  -0.142155  0.007942  3.709137  0.008  -0.167048  0.002974  3.972447  0.003  -0.174598  0.002537  3.993531  0.003  -0.079761  -0.162261  0.003407  3.957982  0.004
C  C33  1  0.06953348  0.25772151  0.18896311  1  -0.143019  -0.007865  3.7091  -0.008  -0.168784  -0.002914  3.972304  -0.003  -0.176336  -0.002506  3.993481  -0.003  -0.079488  -0.16354  -0.003401  3.957694  -0.004
C  C34  1  0.67350130  0.25772458  0.31094380  1  -0.142261  -0.007924  3.709194  -0.008  -0.16717  -0.002973  3.972455  -0.003  -0.174721  -0.002535  3.993537  -0.003  -0.079807  -0.162383  -0.003407  3.957985  -0.004
C  C35  1  0.93047020  0.74228125  0.81103636  1  -0.142906  0.007836  3.709115  0.008  -0.168702  0.002919  3.972261  0.003  -0.176254  0.002503  3.993441  0.003  -0.079457  -0.163457  0.0034  3.957649  0.004
C  C36  1  0.51127176  0.72962415  0.62925099  1  0.014043  -0.009567  3.69382  -0.009  -0.005516  -0.002772  3.9471  -0.003  -0.002267  -0.00291  3.967701  -0.003  -0.05952  -0.007393  -0.002723  3.933725  -0.003
C  C37  1  0.24173099  0.27034964  0.12923459  1  0.015402  0.009599  3.694007  0.009  -0.004984  0.002772  3.947832  0.003  -0.001911  0.002915  3.968525  0.003  -0.059673  -0.006291  0.002724  3.933218  0.003
C  C38  1  0.48874156  0.27036812  0.37075009  1  0.014021  0.009565  3.69383  0.009  -0.005549  0.002769  3.947075  0.003  -0.002302  0.00291  3.967678  0.003  -0.059538  -0.007428  0.002723  3.933702  0.003
C  C39  1  0.75827411  0.72965312  0.87076312  1  0.015504  -0.009582  3.693946  -0.009  -0.004877  -0.002777  3.947767  -0.003  -0.001804  -0.002911  3.968464  -0.003  -0.05959  -0.006188  -0.002724  3.933147  -0.003
C  C40  1  0.65812823  0.58182163  0.60355085  1  -0.099984  0.01219  3.682405  0.013  -0.115128  0.004613  3.934403  0.006  -0.122563  0.003797  3.956133  0.005  -0.076644  -0.110248  0.005419  3.919625  0.006
C  C41  1  0.24056977  0.41815139  0.10353022  1  -0.098301  -0.0122  3.679649  -0.013  -0.113414  -0.004616  3.932286  -0.006  -0.12077  -0.00381  3.954055  -0.005  -0.076346  -0.108639  -0.005412  3.917467  -0.006
C  C42  1  0.34188488  0.41816831  0.39645372  1  -0.099978  -0.012169  3.682516  -0.013  -0.115057  -0.004609  3.934465  -0.006  -0.122493  -0.003797  3.956195  -0.005  -0.076651  -0.110176  -0.005419  3.919689  -0.006
C  C43  1  0.75942978  0.58185371  0.89646674  1  -0.098357  0.012177  3.67975  0.013  -0.113455  0.004617  3.932433  0.006  -0.120814  0.003809  3.954208  0.005  -0.076401  -0.108678  0.005412  3.91761  0.006
C  C44  1  0.61420273  0.45191311  0.63739573  1  0.142117  -0.00826  3.676601  -0.009  0.115339  -0.000833  3.930854  -0.002  0.125017  -0.00208  3.951884  -0.004  0.053094  0.109066  8.8e-05  3.917291  -0.001
C  C45  1  0.06644626  0.54805544  0.13729217  1  0.142539  0.008272  3.6758  0.009  0.115028  0.000855  3.930484  0.002  0.124709  0.002109  3.951532  0.004  0.053049  0.108579  -8.4e-05  3.916333  0.001
C  C46  1  0.38580335  0.54807916  0.36260727  1  0.142068  0.008254  3.676611  0.009  0.115191  0.000833  3.930915  0.002  0.124869  0.00208  3.951944  0.004  0.053098  0.10892  -8.8e-05  3.917347  0.001
C  C47  1  0.93355246  0.45194849  0.86270657  1  0.142542  -0.008249  3.676016  -0.009  0.114946  -0.000852  3.930695  -0.002  0.124631  -0.002112  3.95174  -0.004  0.053011  0.108496  8.4e-05  3.916548  -0.001
N  N48  1  0.59341363  0.26746893  0.91157207  1  -0.440708  0.000122  2.87368  0.001  -0.409761  -0.000246  3.156057  0.001  -0.424737  -0.000336  3.165369  0.001  -0.364755  -0.399568  -0.000137  3.150158  0.001
N  N49  1  0.86110602  0.73213864  0.41163411  1  -0.440571  -0.000146  2.870814  -0.001  -0.410056  0.000187  3.153929  -0.001  -0.424848  0.000303  3.163196  -0.001  -0.365074  -0.400239  0.000126  3.147698  -0.001
N  N50  1  0.40657538  0.73253966  0.08842255  1  -0.440583  -0.000117  2.873454  -0.001  -0.409577  0.000244  3.155762  -0.001  -0.424568  0.00033  3.16509  -0.001  -0.364655  -0.399388  0.000137  3.149864  -0.001
N  N51  1  0.13888747  0.26785247  0.58836493  1  -0.440652  0.000151  2.870956  0.001  -0.410168  -0.000187  3.154075  0.001  -0.424951  -0.000308  3.163322  0.001  -0.365153  -0.400345  -0.000126  3.147843  0.001
N  N52  1  0.27208564  0.12627355  0.83352358  1  -0.416855  0.059152  3.091685  0.07  -0.378028  0.042681  3.401221  0.053  -0.405224  0.037205  3.409425  0.048  -0.385635  -0.360982  0.046018  3.396106  0.055
N  N53  1  0.39867859  0.87375483  0.33352266  1  -0.416923  -0.059841  3.090101  -0.07  -0.378459  -0.043018  3.399381  -0.053  -0.405784  -0.037357  3.407753  -0.048  -0.386475  -0.361824  -0.046084  3.396014  -0.055
N  N54  1  0.72790965  0.87373155  0.16647868  1  -0.416779  -0.059159  3.091778  -0.07  -0.377927  -0.042685  3.401282  -0.053  -0.405125  -0.037197  3.409509  -0.048  -0.385695  -0.360884  -0.046018  3.396179  -0.055
N  N55  1  0.60131227  0.12624443  0.66647635  1  -0.416798  0.059838  3.090193  0.07  -0.378356  0.043015  3.399495  0.053  -0.405676  0.037362  3.407843  0.048  -0.386439  -0.361724  0.046084  3.396111  0.055
N  N56  1  0.43436423  0.46370741  0.69220038  1  -0.304332  0.112315  3.289016  0.138  -0.270807  0.068221  3.58265  0.091  -0.304291  0.0535  3.607774  0.074  -0.324838  -0.250001  0.077883  3.566582  0.1
N  N57  1  0.89834144  0.53627225  0.19201540  1  -0.304824  -0.112215  3.290379  -0.138  -0.271171  -0.068151  3.583335  -0.09  -0.304668  -0.053357  3.608405  -0.074  -0.324778  -0.249871  -0.077789  3.567673  -0.1
N  N58  1  0.56563714  0.53629419  0.30780003  1  -0.304279  -0.112299  3.288917  -0.138  -0.2708  -0.068227  3.582631  -0.091  -0.304287  -0.053496  3.607773  -0.074  -0.324878  -0.25  -0.077879  3.56658  -0.1
N  N59  1  0.10165292  0.46373167  0.80798432  1  -0.304756  0.11219  3.290439  0.138  -0.27113  0.068142  3.583419  0.09  -0.304623  0.053358  3.608472  0.074  -0.324726  -0.249826  0.077789  3.567743  0.1
