# generated using pymatgen
data_CuH14C16(NO3)2
_symmetry_space_group_name_H-M   'P 1'
_cell_length_a   8.57910260
_cell_length_b   8.59640680
_cell_length_c   52.64263533
_cell_angle_alpha   89.99977578
_cell_angle_beta   90.00002740
_cell_angle_gamma   90.00001298
_symmetry_Int_Tables_number   1
_chemical_formula_structural   CuH14C16(NO3)2
_chemical_formula_sum   'Cu8 H112 C128 N16 O48'
_cell_volume   3882.36571234
_cell_formula_units_Z   8
loop_
 _symmetry_equiv_pos_site_id
 _symmetry_equiv_pos_as_xyz
  1  'x, y, z'
loop_
 _atom_site_type_symbol
 _atom_site_label
 _atom_site_symmetry_multiplicity
 _atom_site_fract_x
 _atom_site_fract_y
 _atom_site_fract_z
 _atom_site_occupancy
 _atom_site_pbe_bader_charge
 _atom_site_pbe_bader_spin_density
 _atom_site_pbe_cm5_charge
 _atom_site_pbe_ddec_charge
 _atom_site_pbe_ddec_spin_density
 _atom_site_pbe_ddec_sum_bond_order
 _atom_site_pbe_magmom
Cu  Cu0  1  0.08615116  0.44506783  0.73749277  1  1.079276  0.570804  0.758707  0.801641  0.733528  2.241005  0.57
Cu  Cu1  1  0.36594887  0.66582109  0.98446210  1  1.081575  0.566216  0.75865  0.795057  0.726843  2.235135  0.565
Cu  Cu2  1  0.41384789  0.55493371  0.23749289  1  1.079181  0.570799  0.75873  0.80166  0.733526  2.241034  0.57
Cu  Cu3  1  0.13404623  0.33417454  0.48446064  1  1.081563  0.566208  0.758605  0.795052  0.726828  2.235052  0.565
Cu  Cu4  1  0.91384505  0.94506607  0.76250772  1  1.079338  0.570806  0.758777  0.801682  0.733531  2.241061  0.57
Cu  Cu5  1  0.63405077  0.16581783  0.51553780  1  1.081618  0.566209  0.758669  0.795014  0.726837  2.235212  0.565
Cu  Cu6  1  0.58615610  0.05493499  0.26250719  1  1.079249  0.5708  0.758738  0.801601  0.733526  2.241023  0.57
Cu  Cu7  1  0.86595199  0.83417984  0.01553907  1  1.081523  0.566211  0.758605  0.795103  0.726836  2.235075  0.565
H  H8  1  0.60999623  0.78626249  0.76120521  1  0.623707  -4.5e-05  0.292596  0.335722  5.6e-05  1.00731  0.0
H  H9  1  0.52337520  0.76873956  0.70397593  1  0.611118  0.000117  0.296555  0.334181  5.1e-05  0.962469  0.0
H  H10  1  0.25155183  0.23706623  0.70382469  1  0.169035  0.002001  0.121514  0.097824  0.00091  1.02992  0.002
H  H11  1  0.27721295  0.19168853  0.65720641  1  0.073543  0.001228  0.108186  0.114399  0.000639  0.989305  0.001
H  H12  1  0.91336110  0.53440402  0.64612633  1  0.086617  0.001219  0.107313  0.112865  0.000634  0.998518  0.001
H  H13  1  0.89960798  0.56122629  0.69291938  1  0.129404  0.002014  0.123578  0.100253  0.000843  1.000588  0.001
H  H14  1  0.93988153  0.31910195  0.78379485  1  0.158586  0.0022  0.120367  0.098368  0.000866  1.025958  0.002
H  H15  1  0.96938469  0.35306443  0.83045607  1  0.056219  0.001316  0.105624  0.109901  0.000682  0.999234  0.001
H  H16  1  0.31512280  0.70836183  0.81469589  1  0.076684  0.001216  0.107429  0.110864  0.000617  1.003782  0.001
H  H17  1  0.27202032  0.66037720  0.76932033  1  0.165609  0.002446  0.122801  0.103005  0.001217  1.021025  0.002
H  H18  1  0.09016459  0.47342349  0.86567422  1  0.052338  0.000157  0.102252  0.094247  0.000124  1.006071  0.0
H  H19  1  0.33865329  0.72486591  0.85559942  1  0.068153  0.000149  0.103112  0.100791  0.000114  1.004983  0.0
H  H20  1  0.10907688  0.48176838  0.90470076  1  0.061879  0.001102  0.109379  0.115893  0.000561  0.995216  0.001
H  H21  1  0.15709829  0.50752859  0.95085498  1  0.129064  0.00193  0.123271  0.101834  0.00087  1.016496  0.001
H  H22  1  0.48274659  0.85730862  0.93997282  1  0.148402  0.002005  0.124248  0.101886  0.00086  0.998251  0.001
H  H23  1  0.45319681  0.84336848  0.89280631  1  0.049146  0.001258  0.107406  0.115043  0.000647  0.993078  0.001
H  H24  1  0.26517538  0.18460803  0.52918470  1  0.161723  0.002058  0.119042  0.091982  0.000693  1.036203  0.002
H  H25  1  0.23705479  0.19939040  0.57551825  1  0.042339  0.001237  0.106784  0.112345  0.000626  1.005776  0.001
H  H26  1  0.88837002  0.55828358  0.56391008  1  0.074909  0.00135  0.107837  0.111285  0.000695  0.994369  0.001
H  H27  1  0.93075900  0.52860779  0.51776175  1  0.152777  0.002572  0.122581  0.101414  0.001237  1.023725  0.002
H  H28  1  0.94364392  0.48622507  0.60634681  1  0.047606  0.000151  0.101894  0.094102  0.000115  1.005792  0.0
H  H29  1  0.21351859  0.25579605  0.61497484  1  0.057165  0.000149  0.102152  0.097752  0.000115  1.011622  0.0
H  H30  1  0.58324630  0.45524633  0.75672624  1  0.085465  3.6e-05  0.114827  0.08681  2.1e-05  0.975729  0.0
H  H31  1  0.59171332  0.46865945  0.71160673  1  0.067769  0.000122  0.106184  0.071844  5.1e-05  0.963601  0.0
H  H32  1  0.37267654  0.16913111  0.00530232  1  0.107171  -2.2e-05  0.1142  0.085159  -3.8e-05  0.974628  0.0
H  H33  1  0.39190371  0.15524178  0.96037780  1  0.075259  9.7e-05  0.106283  0.073324  4.2e-05  0.963316  0.0
H  H34  1  0.70128550  0.14061682  0.01244731  1  0.641562  2.7e-05  0.292033  0.33817  0.000136  1.00459  0.0
H  H35  1  0.69393296  0.22586908  0.95373070  1  0.604726  0.000112  0.296239  0.334013  4.8e-05  0.962087  0.0
H  H36  1  0.89000258  0.21373860  0.26120517  1  0.62371  -4.5e-05  0.292556  0.335655  5.7e-05  1.007395  0.0
H  H37  1  0.97662928  0.23125708  0.20397778  1  0.611108  0.000117  0.29655  0.334138  5.1e-05  0.96246  0.0
H  H38  1  0.24845411  0.76294659  0.20382505  1  0.169604  0.002  0.121495  0.097791  0.000909  1.029997  0.002
H  H39  1  0.22278353  0.80831843  0.15720655  1  0.073442  0.001228  0.108196  0.114335  0.000639  0.98931  0.001
H  H40  1  0.58663039  0.46559983  0.14612725  1  0.086717  0.001219  0.107357  0.112945  0.000634  0.998483  0.001
H  H41  1  0.60039413  0.43878690  0.19292032  1  0.129158  0.002013  0.12359  0.100235  0.000843  1.000632  0.001
H  H42  1  0.56011385  0.68089278  0.28379449  1  0.158621  0.0022  0.120397  0.098364  0.000865  1.025898  0.002
H  H43  1  0.53061433  0.64693268  0.33045553  1  0.056264  0.001315  0.105644  0.109888  0.000682  0.999194  0.001
H  H44  1  0.18488230  0.29162740  0.31469484  1  0.07666  0.001217  0.107427  0.11082  0.000617  1.003787  0.001
H  H45  1  0.22798931  0.33960846  0.26931905  1  0.16572  0.002445  0.122793  0.103032  0.001217  1.020884  0.002
H  H46  1  0.40983133  0.52657614  0.36567360  1  0.052379  0.000157  0.102239  0.094197  0.000124  1.006079  0.0
H  H47  1  0.16134143  0.27513513  0.35559933  1  0.068134  0.000149  0.103146  0.10084  0.000114  1.004898  0.0
H  H48  1  0.39091566  0.51823498  0.40470090  1  0.061845  0.001102  0.109363  0.115826  0.000561  0.995231  0.001
H  H49  1  0.34289089  0.49247482  0.45085475  1  0.129114  0.001931  0.123291  0.10187  0.00087  1.016546  0.001
H  H50  1  0.01724605  0.14269505  0.43997261  1  0.148316  0.002006  0.124216  0.101838  0.000861  0.998191  0.001
H  H51  1  0.04679686  0.15663284  0.39280627  1  0.04913  0.001258  0.107436  0.115097  0.000647  0.993035  0.001
H  H52  1  0.23481840  0.81539850  0.02918522  1  0.161642  0.002059  0.119056  0.092041  0.000694  1.03598  0.002
H  H53  1  0.26294262  0.80061270  0.07551896  1  0.042267  0.001238  0.106734  0.112307  0.000627  1.005859  0.001
H  H54  1  0.61161540  0.44170362  0.06391082  1  0.074476  0.001352  0.107887  0.111402  0.000695  0.994207  0.001
H  H55  1  0.56922861  0.47138983  0.01776247  1  0.152523  0.002574  0.122552  0.101531  0.001237  1.023627  0.002
H  H56  1  0.55634978  0.51377392  0.10634788  1  0.047517  0.000151  0.101909  0.094133  0.000115  1.005769  0.0
H  H57  1  0.28647893  0.74419913  0.11497464  1  0.057145  0.000149  0.102168  0.097838  0.000115  1.011722  0.0
H  H58  1  0.91674667  0.54475487  0.25672694  1  0.08568  3.6e-05  0.114819  0.086833  2.1e-05  0.975779  0.0
H  H59  1  0.90829467  0.53133468  0.21160667  1  0.06787  0.000122  0.106128  0.071852  5.1e-05  0.96356  0.0
H  H60  1  0.12731135  0.83086553  0.50530043  1  0.107391  -2.2e-05  0.114187  0.085102  -3.8e-05  0.974615  0.0
H  H61  1  0.10811697  0.84477304  0.46037334  1  0.074748  9.8e-05  0.10641  0.073604  4.2e-05  0.963173  0.0
H  H62  1  0.79869627  0.85939256  0.51244010  1  0.641822  2.6e-05  0.292082  0.338268  0.000136  1.00451  0.0
H  H63  1  0.80608156  0.77413206  0.45372612  1  0.604767  0.000112  0.296251  0.334013  4.8e-05  0.962052  0.0
H  H64  1  0.39000343  0.28626429  0.73879443  1  0.623692  -4.5e-05  0.292636  0.335707  5.7e-05  1.007363  0.0
H  H65  1  0.47663495  0.26873653  0.79602562  1  0.611078  0.000117  0.296505  0.334093  5.1e-05  0.962584  0.0
H  H66  1  0.74844665  0.73705897  0.79617555  1  0.169572  0.002  0.121475  0.097751  0.00091  1.029941  0.002
H  H67  1  0.72278669  0.69168131  0.84279424  1  0.073719  0.001228  0.108205  0.114399  0.000639  0.989263  0.001
H  H68  1  0.08663618  0.03440416  0.85387328  1  0.086649  0.001219  0.10728  0.112914  0.000634  0.998503  0.001
H  H69  1  0.10039163  0.06122058  0.80708021  1  0.129454  0.002013  0.123596  0.100297  0.000843  1.000561  0.001
H  H70  1  0.06010882  0.81909413  0.71620610  1  0.158574  0.0022  0.120351  0.098328  0.000865  1.025845  0.002
H  H71  1  0.03061033  0.85305771  0.66954505  1  0.056218  0.001316  0.105634  0.109901  0.000682  0.99917  0.001
H  H72  1  0.68487568  0.20836730  0.68530475  1  0.076654  0.001216  0.107399  0.110847  0.000617  1.003795  0.001
H  H73  1  0.72797932  0.16037811  0.73068072  1  0.165764  0.002445  0.122822  0.103052  0.001217  1.020941  0.002
H  H74  1  0.90982929  0.97342364  0.63432682  1  0.052405  0.000157  0.102178  0.094106  0.000124  1.006107  0.0
H  H75  1  0.66134403  0.22486654  0.64439987  1  0.068156  0.000149  0.103125  0.100842  0.000114  1.004995  0.0
H  H76  1  0.89092400  0.98176829  0.59529857  1  0.061884  0.001102  0.109389  0.115886  0.000561  0.995215  0.001
H  H77  1  0.84290131  0.00753271  0.54914446  1  0.129095  0.00193  0.123283  0.101848  0.00087  1.016454  0.001
H  H78  1  0.51725542  0.35731008  0.56002658  1  0.148398  0.002005  0.124221  0.101845  0.00086  0.998231  0.001
H  H79  1  0.54680403  0.34337114  0.60719254  1  0.049132  0.001258  0.107445  0.115036  0.000647  0.993092  0.001
H  H80  1  0.73482193  0.68460589  0.97081538  1  0.161691  0.002058  0.11903  0.09196  0.000693  1.03618  0.002
H  H81  1  0.76294719  0.69938937  0.92448145  1  0.042333  0.001237  0.10676  0.112314  0.000626  1.005804  0.001
H  H82  1  0.11163076  0.05828292  0.93608952  1  0.074914  0.00135  0.107792  0.111236  0.000695  0.994364  0.001
H  H83  1  0.06923944  0.02860718  0.98223843  1  0.152799  0.002572  0.122584  0.101464  0.001237  1.023755  0.002
H  H84  1  0.05635812  0.98622811  0.89365347  1  0.047587  0.000151  0.101896  0.094073  0.000115  1.005757  0.0
H  H85  1  0.78648806  0.75579365  0.88502634  1  0.05718  0.000149  0.102133  0.09772  0.000115  1.011711  0.0
H  H86  1  0.41674641  0.95525422  0.74327614  1  0.085633  3.6e-05  0.114811  0.086789  2.1e-05  0.975779  0.0
H  H87  1  0.40829221  0.96865579  0.78839394  1  0.06778  0.000122  0.106108  0.071849  5.1e-05  0.963567  0.0
H  H88  1  0.62732515  0.66913070  0.49469636  1  0.107131  -2.2e-05  0.114181  0.085163  -3.8e-05  0.974563  0.0
H  H89  1  0.60809476  0.65523714  0.53962098  1  0.075337  9.7e-05  0.10631  0.073271  4.2e-05  0.963203  0.0
H  H90  1  0.29871501  0.64061534  0.48755234  1  0.641561  2.7e-05  0.292055  0.338246  0.000136  1.004507  0.0
H  H91  1  0.30606669  0.72586654  0.54626783  1  0.604762  0.000112  0.296238  0.33398  4.8e-05  0.962068  0.0
H  H92  1  0.10999678  0.71373024  0.23879519  1  0.623646  -4.5e-05  0.29258  0.335645  5.7e-05  1.007408  0.0
H  H93  1  0.02337009  0.73125664  0.29602370  1  0.611079  0.000117  0.296497  0.334119  5.1e-05  0.962527  0.0
H  H94  1  0.75154876  0.26294943  0.29617566  1  0.169682  0.002  0.121473  0.09777  0.000909  1.030023  0.002
H  H95  1  0.77721119  0.30832132  0.34279413  1  0.07372  0.001228  0.108213  0.114385  0.000639  0.989278  0.001
H  H96  1  0.41336437  0.96559809  0.35387200  1  0.086686  0.001219  0.107294  0.112938  0.000634  0.998536  0.001
H  H97  1  0.39960762  0.93878977  0.30707933  1  0.129176  0.002013  0.123601  0.10025  0.000843  1.000598  0.001
H  H98  1  0.43989017  0.18089513  0.21620532  1  0.158642  0.002199  0.120397  0.098362  0.000865  1.025912  0.002
H  H99  1  0.46938619  0.14692918  0.16954449  1  0.056301  0.001315  0.105649  0.109862  0.000682  0.999197  0.001
H  H100  1  0.81511708  0.79162281  0.18530528  1  0.076627  0.001217  0.107395  0.110737  0.000617  1.003837  0.001
H  H101  1  0.77201474  0.83960859  0.23068103  1  0.165716  0.002445  0.122798  0.103084  0.001216  1.02092  0.002
H  H102  1  0.59016799  0.02657468  0.13432650  1  0.052385  0.000157  0.102244  0.094191  0.000124  1.006097  0.0
H  H103  1  0.83865794  0.77513269  0.14440023  1  0.06814  0.000149  0.103141  0.100849  0.000113  1.004962  0.0
H  H104  1  0.60908133  0.01823911  0.09529863  1  0.061792  0.001102  0.109387  0.115869  0.000561  0.995219  0.001
H  H105  1  0.65710504  0.99247695  0.04914466  1  0.129051  0.001931  0.123248  0.101836  0.000871  1.016471  0.001
H  H106  1  0.98275097  0.64269583  0.06002760  1  0.148362  0.002006  0.124218  0.101782  0.000861  0.998265  0.001
H  H107  1  0.95320133  0.65663480  0.10719336  1  0.04918  0.001258  0.107395  0.11498  0.000647  0.993133  0.001
H  H108  1  0.76518215  0.31539599  0.47081526  1  0.16167  0.002059  0.119066  0.092044  0.000694  1.035972  0.002
H  H109  1  0.73705676  0.30060781  0.42448115  1  0.042287  0.001238  0.106774  0.112334  0.000627  1.005851  0.001
H  H110  1  0.38838285  0.94170572  0.43608939  1  0.07406  0.001353  0.107814  0.111289  0.000695  0.99435  0.001
H  H111  1  0.43076498  0.97139200  0.48223791  1  0.152852  0.002573  0.122551  0.101461  0.001237  1.023716  0.002
H  H112  1  0.44364604  0.01377318  0.39365299  1  0.047444  0.000151  0.101915  0.094157  0.000115  1.005744  0.0
H  H113  1  0.71351577  0.24420448  0.38502551  1  0.057164  0.000149  0.102142  0.097758  0.000115  1.011738  0.0
H  H114  1  0.08325848  0.04474835  0.24327390  1  0.085774  3.6e-05  0.114829  0.086831  2.1e-05  0.975804  0.0
H  H115  1  0.09171281  0.03133523  0.28839361  1  0.067822  0.000122  0.106177  0.071884  5.1e-05  0.963498  0.0
H  H116  1  0.87268833  0.33087178  0.99469918  1  0.107411  -2.2e-05  0.11419  0.085136  -3.8e-05  0.974524  0.0
H  H117  1  0.89188359  0.34477042  0.03962541  1  0.074817  9.8e-05  0.106314  0.073501  4.2e-05  0.963228  0.0
H  H118  1  0.20129992  0.35939185  0.98755855  1  0.641889  2.6e-05  0.292069  0.33823  0.000136  1.004534  0.0
H  H119  1  0.19391549  0.27413261  0.04627363  1  0.604741  0.000112  0.296275  0.334017  4.8e-05  0.962092  0.0
C  C120  1  0.17923074  0.30004386  0.69023302  1  0.44524  -0.001104  0.051325  0.111542  -0.001619  3.913851  -0.001
C  C121  1  0.19298971  0.27649247  0.66425960  1  0.001867  0.005135  -0.08435  -0.180577  0.003448  3.935754  0.004
C  C122  1  0.09961396  0.36098146  0.64718823  1  -0.029064  -0.003033  0.003521  0.14496  -0.00343  4.051104  -0.002
C  C123  1  0.99112332  0.46508074  0.65795555  1  -0.097667  0.004829  -0.085801  -0.180815  0.003221  3.934404  0.004
C  C124  1  0.98292786  0.48188977  0.68412027  1  0.528463  -0.000874  0.0521  0.095432  -0.001261  3.946527  -0.001
C  C125  1  0.02298961  0.40272507  0.79153547  1  0.542015  -0.001354  0.053715  0.108107  -0.00166  3.900899  -0.001
C  C126  1  0.03981659  0.42329382  0.81755886  1  -0.032313  0.006217  -0.081404  -0.172537  0.004099  3.92488  0.005
C  C127  1  0.14696768  0.53278365  0.82707089  1  -0.032359  -0.003528  0.001447  0.131063  -0.003987  4.046808  -0.002
C  C128  1  0.23098811  0.61987026  0.80909874  1  -0.113977  0.005967  -0.077743  -0.157823  0.003923  3.897812  0.005
C  C129  1  0.20787260  0.59376896  0.78339658  1  0.58304  -0.001353  0.059317  0.123609  -0.001688  3.889368  -0.001
C  C130  1  0.16539972  0.54962292  0.85441279  1  0.004677  -0.00045  -0.075882  -0.102588  -0.000618  3.967866  0.0
C  C131  1  0.26386226  0.64712515  0.86666234  1  -0.091555  -0.001416  -0.086301  -0.137167  -0.001623  3.975913  -0.001
C  C132  1  0.28021366  0.65847491  0.89414729  1  0.000284  -0.0027  0.00509  0.147039  -0.003069  4.041906  -0.002
C  C133  1  0.19528172  0.56552772  0.91130014  1  -0.036064  0.004811  -0.082804  -0.174223  0.003218  3.929002  0.004
C  C134  1  0.22043474  0.57869571  0.93716795  1  0.503985  -0.000715  0.050902  0.106406  -0.001061  3.918012  -0.001
C  C135  1  0.40313684  0.77417166  0.93118263  1  0.462756  -0.000918  0.053779  0.099033  -0.001419  3.936648  -0.001
C  C136  1  0.38496591  0.76606626  0.90493775  1  0.00413  0.004531  -0.087594  -0.191726  0.003055  3.936964  0.004
C  C137  1  0.18429165  0.26751698  0.53765462  1  0.502408  -0.000729  0.051244  0.106393  -0.001067  3.914106  0.0
C  C138  1  0.16717218  0.27684266  0.56374506  1  -0.038469  0.006225  -0.081263  -0.165816  0.004139  3.910485  0.005
C  C139  1  0.06073334  0.38385351  0.57421011  1  0.033292  -0.003349  0.002125  0.132539  -0.0038  4.044282  -0.002
C  C140  1  0.97399667  0.47433116  0.55709928  1  -0.055642  0.006  -0.076821  -0.158778  0.004012  3.900774  0.005
C  C141  1  0.99680671  0.45836550  0.53112414  1  0.526386  -0.001343  0.061501  0.12774  -0.00187  3.889337  -0.001
C  C142  1  0.03723558  0.40541219  0.60133793  1  -0.036791  -0.000786  -0.077128  -0.105444  -0.000953  3.97996  0.0
C  C143  1  0.12030023  0.33690312  0.62006137  1  -0.051489  -0.001106  -0.088284  -0.136691  -0.001301  3.98696  -0.001
C  C144  1  0.79802051  0.56844609  0.74756691  1  1.56292  -7.9e-05  0.201881  0.566463  -0.000998  4.164987  -0.003
C  C145  1  0.61990165  0.56774808  0.74882805  1  0.511594  0.010618  -0.009359  0.049694  0.007638  3.892912  0.008
C  C146  1  0.37909671  0.58665860  0.72207367  1  1.536843  0.001096  0.202524  0.550934  0.000783  4.204008  0.0
C  C147  1  0.55736477  0.57738034  0.72131118  1  0.4867  0.00904  -0.014639  0.03581  0.006429  3.919486  0.007
C  C148  1  0.48731234  0.13363580  0.99795097  1  0.439569  0.011934  -0.009337  0.05236  0.008271  3.887526  0.009
C  C149  1  0.50591917  0.37082593  0.97019563  1  1.531346  0.001077  0.201438  0.550693  0.000727  4.20514  0.0
C  C150  1  0.49913522  0.19269802  0.97024584  1  0.506696  0.009045  -0.014882  0.035528  0.006476  3.914444  0.007
C  C151  1  0.49107506  0.95542800  0.99743553  1  1.619036  -7.8e-05  0.205201  0.571428  -0.000509  4.155993  -0.002
C  C152  1  0.32077400  0.69996580  0.19023324  1  0.444757  -0.001102  0.051295  0.111397  -0.001618  3.913682  -0.001
C  C153  1  0.30701145  0.72351781  0.16426017  1  0.001785  0.005134  -0.084234  -0.18027  0.003447  3.935311  0.004
C  C154  1  0.40038715  0.63902458  0.14718887  1  -0.028825  -0.003033  0.003539  0.145149  -0.00343  4.050824  -0.002
C  C155  1  0.50887986  0.53492166  0.15795699  1  -0.097653  0.004827  -0.085852  -0.180973  0.00322  3.934376  0.004
C  C156  1  0.51707422  0.51811666  0.18412115  1  0.528337  -0.000874  0.051992  0.095379  -0.00126  3.946625  -0.001
C  C157  1  0.47701309  0.59726820  0.29153500  1  0.542078  -0.001354  0.053817  0.108221  -0.001661  3.900753  -0.001
C  C158  1  0.46018502  0.57670348  0.31755821  1  -0.032385  0.006217  -0.081451  -0.172457  0.004098  3.924889  0.005
C  C159  1  0.35303512  0.46720761  0.32707012  1  -0.032385  -0.003529  0.001476  0.130933  -0.003988  4.046785  -0.002
C  C160  1  0.26901464  0.38012027  0.30909707  1  -0.114171  0.005966  -0.077763  -0.157765  0.003922  3.897784  0.005
C  C161  1  0.29213008  0.40622334  0.28339603  1  0.583129  -0.001352  0.05935  0.123638  -0.001688  3.889336  -0.001
C  C162  1  0.33460200  0.45038048  0.35441184  1  0.004552  -0.000451  -0.07589  -0.1025  -0.000618  3.967932  0.0
C  C163  1  0.23613483  0.35288261  0.36666125  1  -0.091514  -0.001417  -0.08636  -0.137229  -0.001624  3.975839  -0.001
C  C164  1  0.21977651  0.34153452  0.39414658  1  0.000487  -0.002701  0.005004  0.146814  -0.00307  4.042049  -0.002
C  C165  1  0.30470851  0.43447548  0.41129976  1  -0.036211  0.004812  -0.082676  -0.173897  0.003219  3.928945  0.004
C  C166  1  0.27955556  0.42130687  0.43716777  1  0.504103  -0.000716  0.050936  0.106394  -0.001062  3.918161  -0.001
C  C167  1  0.09685810  0.22583106  0.43118237  1  0.463042  -0.000919  0.053799  0.099094  -0.00142  3.936472  -0.001
C  C168  1  0.11502663  0.23393942  0.40493748  1  0.004079  0.004532  -0.087528  -0.191638  0.003056  3.93672  0.004
C  C169  1  0.31570099  0.73248237  0.03765500  1  0.502814  -0.000729  0.051246  0.106392  -0.001067  3.913909  0.0
C  C170  1  0.33282520  0.72315840  0.06374602  1  -0.038898  0.006228  -0.081211  -0.165846  0.004141  3.910459  0.005
C  C171  1  0.43925824  0.61614264  0.07421172  1  0.033342  -0.003349  0.002319  0.13281  -0.0038  4.044423  -0.002
C  C172  1  0.52599339  0.52566435  0.05710072  1  -0.05517  0.006  -0.077005  -0.159078  0.004013  3.900952  0.005
C  C173  1  0.50318677  0.54163529  0.03112538  1  0.526787  -0.001345  0.061586  0.127686  -0.001871  3.88932  -0.001
C  C174  1  0.46275841  0.59458796  0.10133936  1  -0.036994  -0.000786  -0.077186  -0.105437  -0.000952  3.979894  0.0
C  C175  1  0.37969381  0.66309891  0.12006237  1  -0.051391  -0.001106  -0.088332  -0.137006  -0.001301  3.987124  -0.001
C  C176  1  0.70198059  0.43154952  0.24756766  1  1.562936  -7.9e-05  0.201916  0.566522  -0.000998  4.165074  -0.003
C  C177  1  0.88009712  0.43224981  0.24882900  1  0.511509  0.01062  -0.00938  0.049574  0.00764  3.893104  0.008
C  C178  1  0.12090462  0.41333866  0.22207462  1  1.536755  0.001096  0.202576  0.551026  0.000782  4.204055  0.0
C  C179  1  0.94263509  0.42261240  0.22131196  1  0.486523  0.009039  -0.014542  0.035775  0.006428  3.919423  0.007
C  C180  1  0.01268164  0.86636416  0.49794535  1  0.440095  0.011933  -0.009381  0.052617  0.00827  3.887649  0.009
C  C181  1  0.99409774  0.62917946  0.47018812  1  1.531521  0.001076  0.201717  0.551261  0.000726  4.204274  0.0
C  C182  1  0.00088315  0.80730958  0.47024007  1  0.50699  0.009048  -0.015038  0.034916  0.006479  3.915197  0.007
C  C183  1  0.00892590  0.04456615  0.49742911  1  1.618352  -8.1e-05  0.205142  0.571142  -0.000509  4.15624  -0.002
C  C184  1  0.82077126  0.80003629  0.80976794  1  0.444733  -0.001102  0.051387  0.111675  -0.001618  3.913743  -0.001
C  C185  1  0.80700879  0.77648660  0.83574062  1  0.001538  0.005135  -0.084313  -0.180585  0.003447  3.935698  0.004
C  C186  1  0.90038339  0.86097869  0.85281193  1  -0.029061  -0.003033  0.003562  0.145118  -0.00343  4.050915  -0.002
C  C187  1  0.00887755  0.96508152  0.84204397  1  -0.09765  0.004828  -0.085734  -0.180829  0.00322  3.934347  0.004
C  C188  1  0.01706835  0.98189002  0.81587981  1  0.52839  -0.000874  0.051984  0.09525  -0.00126  3.946453  -0.001
C  C189  1  0.97700775  0.90272461  0.70846542  1  0.541592  -0.00135  0.053761  0.108201  -0.00166  3.900807  -0.001
C  C190  1  0.96017961  0.92328933  0.68244221  1  -0.032283  0.006216  -0.081333  -0.17242  0.004098  3.924753  0.005
C  C191  1  0.85302843  0.03278132  0.67292910  1  -0.032403  -0.003528  0.001423  0.131035  -0.003987  4.046693  -0.002
C  C192  1  0.76900686  0.11986864  0.69090195  1  -0.113833  0.005966  -0.077715  -0.157834  0.003922  3.897765  0.005
C  C193  1  0.79212586  0.09376557  0.71660375  1  0.582928  -0.001352  0.059395  0.123669  -0.001688  3.889371  -0.001
C  C194  1  0.83459989  0.04962356  0.64558757  1  0.004616  -0.00045  -0.075879  -0.102419  -0.000618  3.967955  0.0
C  C195  1  0.73613737  0.14712374  0.63333796  1  -0.091532  -0.001416  -0.086371  -0.137392  -0.001623  3.976018  -0.001
C  C196  1  0.71978364  0.15847183  0.60585244  1  0.000157  -0.002701  0.005042  0.146969  -0.003069  4.041845  -0.002
C  C197  1  0.80471790  0.06552740  0.58869945  1  -0.035851  0.004811  -0.082745  -0.17412  0.003218  3.928943  0.004
C  C198  1  0.77956371  0.07869949  0.56283144  1  0.503966  -0.000716  0.051033  0.106619  -0.001062  3.918002  -0.001
C  C199  1  0.59686631  0.27417293  0.56881682  1  0.462883  -0.000918  0.053819  0.0992  -0.001419  3.936514  -0.001
C  C200  1  0.61503725  0.26606806  0.59506133  1  0.004115  0.00453  -0.087578  -0.191659  0.003055  3.93691  0.004
C  C201  1  0.81570685  0.76751506  0.96234542  1  0.502309  -0.000728  0.051243  0.106385  -0.001066  3.914147  0.0
C  C202  1  0.83282865  0.77684020  0.93625496  1  -0.038266  0.006225  -0.081209  -0.165722  0.00414  3.910344  0.005
C  C203  1  0.93926868  0.88385366  0.92578927  1  0.033247  -0.003349  0.002161  0.132556  -0.0038  4.044252  -0.002
C  C204  1  0.02600303  0.97432836  0.94290062  1  -0.055647  0.006  -0.07678  -0.158763  0.004012  3.900799  0.005
C  C205  1  0.00319299  0.95836207  0.96887577  1  0.526287  -0.001344  0.061473  0.127662  -0.001871  3.88939  -0.001
C  C206  1  0.96276644  0.90540718  0.89866088  1  -0.036767  -0.000786  -0.077158  -0.105397  -0.000953  3.979926  0.0
C  C207  1  0.87970177  0.83690202  0.87993862  1  -0.051524  -0.001106  -0.088269  -0.136722  -0.001301  3.98703  -0.001
C  C208  1  0.20197794  0.06845450  0.75243287  1  1.562526  -8e-05  0.20192  0.566453  -0.000998  4.164792  -0.003
C  C209  1  0.38009796  0.06775540  0.75117325  1  0.511532  0.01062  -0.009305  0.049707  0.00764  3.892899  0.008
C  C210  1  0.62090291  0.08665487  0.77792762  1  1.537407  0.001097  0.202561  0.551154  0.000783  4.203535  0.0
C  C211  1  0.44263368  0.07738469  0.77869030  1  0.486611  0.00904  -0.014594  0.035616  0.006429  3.91966  0.007
C  C212  1  0.51268962  0.63362972  0.50204782  1  0.439679  0.011937  -0.009273  0.052367  0.008273  3.88724  0.009
C  C213  1  0.49408168  0.87082383  0.52980243  1  1.531824  0.001076  0.201417  0.550613  0.000727  4.205192  0.0
C  C214  1  0.50086442  0.69269709  0.52975329  1  0.506997  0.009045  -0.014876  0.035811  0.006476  3.913937  0.007
C  C215  1  0.50893047  0.45542153  0.50256400  1  1.619079  -7.8e-05  0.205256  0.571461  -0.00051  4.155738  -0.002
C  C216  1  0.67922536  0.19996829  0.30976713  1  0.444571  -0.001102  0.051354  0.111523  -0.001618  3.913706  -0.001
C  C217  1  0.69298791  0.22351735  0.33574018  1  0.00158  0.005134  -0.084263  -0.180419  0.003447  3.935402  0.004
C  C218  1  0.59960986  0.13902719  0.35281134  1  -0.02872  -0.003032  0.003531  0.14511  -0.00343  4.050816  -0.002
C  C219  1  0.49111830  0.03491985  0.34204310  1  -0.097782  0.004827  -0.085772  -0.180941  0.00322  3.934401  0.004
C  C220  1  0.48292743  0.01811547  0.31587877  1  0.528349  -0.000874  0.051986  0.095361  -0.00126  3.946602  -0.001
C  C221  1  0.52298975  0.09726844  0.20846505  1  0.54208  -0.001354  0.053738  0.108135  -0.00166  3.900707  -0.001
C  C222  1  0.53981664  0.07670202  0.18244185  1  -0.032389  0.006216  -0.081459  -0.172421  0.004098  3.924835  0.005
C  C223  1  0.64696430  0.96720560  0.17292970  1  -0.032379  -0.003529  0.001576  0.130957  -0.003988  4.04677  -0.002
C  C224  1  0.73098476  0.88011668  0.19090280  1  -0.11418  0.005966  -0.077768  -0.157676  0.003922  3.897775  0.005
C  C225  1  0.70787399  0.90622263  0.21660402  1  0.583108  -0.001352  0.059325  0.123484  -0.001688  3.889382  -0.001
C  C226  1  0.66539742  0.95037913  0.14558799  1  0.004554  -0.00045  -0.075894  -0.102434  -0.000617  3.967946  0.0
C  C227  1  0.76386340  0.85288158  0.13333864  1  -0.091521  -0.001417  -0.086363  -0.137261  -0.001624  3.976022  -0.001
C  C228  1  0.78022055  0.84153415  0.10585294  1  0.000535  -0.002701  0.004951  0.146719  -0.003069  4.042081  -0.002
C  C229  1  0.69528857  0.93447783  0.08870008  1  -0.036219  0.004812  -0.082693  -0.173967  0.003219  3.928891  0.004
C  C230  1  0.72044385  0.92130985  0.06283207  1  0.504094  -0.000716  0.05108  0.106587  -0.001063  3.917962  -0.001
C  C231  1  0.90313777  0.72583277  0.06881722  1  0.46304  -0.000919  0.053858  0.099283  -0.00142  3.936549  -0.001
C  C232  1  0.88497157  0.73394166  0.09506229  1  0.004063  0.004532  -0.087551  -0.191589  0.003056  3.936864  0.004
C  C233  1  0.68430187  0.23247888  0.46234497  1  0.502421  -0.000729  0.051276  0.106434  -0.001066  3.913926  0.0
C  C234  1  0.66717767  0.22315320  0.43625433  1  -0.038485  0.006228  -0.081279  -0.165848  0.004141  3.910378  0.005
C  C235  1  0.56073993  0.11614116  0.42578832  1  0.033371  -0.00335  0.002222  0.132683  -0.003801  4.044408  -0.002
C  C236  1  0.47400827  0.02566361  0.44289957  1  -0.054751  0.006  -0.076862  -0.158925  0.004013  3.901023  0.005
C  C237  1  0.49681255  0.04163277  0.46887490  1  0.526392  -0.001344  0.061568  0.127776  -0.001871  3.889404  -0.001
C  C238  1  0.53724093  0.09458830  0.39866012  1  -0.036959  -0.000785  -0.077247  -0.105618  -0.000952  3.979931  0.0
C  C239  1  0.62029971  0.16310204  0.37993783  1  -0.051371  -0.001107  -0.088258  -0.13672  -0.001302  3.986901  -0.001
C  C240  1  0.29802232  0.93154320  0.25243275  1  1.562742  -7.9e-05  0.201948  0.566542  -0.000997  4.164931  -0.003
C  C241  1  0.11990579  0.93224581  0.25117140  1  0.511481  0.01062  -0.009354  0.049559  0.00764  3.893055  0.008
C  C242  1  0.87909828  0.91334466  0.27792580  1  1.536811  0.001096  0.2025  0.550998  0.000782  4.203958  0.0
C  C243  1  0.05736782  0.92261355  0.27868883  1  0.486401  0.00904  -0.014613  0.035825  0.006429  3.919326  0.007
C  C244  1  0.98731776  0.36636944  0.00205396  1  0.440058  0.011931  -0.009412  0.052466  0.008269  3.887653  0.009
C  C245  1  0.00590627  0.12918036  0.02981097  1  1.531155  0.001075  0.201695  0.551187  0.000726  4.204299  0.0
C  C246  1  0.99911973  0.30730955  0.02975909  1  0.506835  0.009047  -0.014911  0.035098  0.006478  3.915044  0.007
C  C247  1  0.99107692  0.54457063  0.00256946  1  1.618634  -8e-05  0.205096  0.571149  -0.000509  4.155999  -0.002
N  N248  1  0.07691004  0.40242256  0.70002600  1  -1.211634  0.084008  -0.341984  -0.219203  0.055981  3.591035  0.073
N  N249  1  0.10687833  0.48615083  0.77479237  1  -1.223912  0.092474  -0.335757  -0.200196  0.061392  3.577672  0.08
N  N250  1  0.32419620  0.68012752  0.94702856  1  -1.195418  0.080399  -0.342282  -0.217798  0.053577  3.587307  0.07
N  N251  1  0.10086916  0.35735237  0.52166450  1  -1.174156  0.095764  -0.340112  -0.203195  0.063631  3.599336  0.083
N  N252  1  0.42309356  0.59758803  0.20002762  1  -1.211418  0.083999  -0.341983  -0.219183  0.055974  3.590847  0.073
N  N253  1  0.39312666  0.51384284  0.27479081  1  -1.223961  0.092472  -0.335876  -0.200353  0.061391  3.577718  0.08
N  N254  1  0.17579530  0.31987599  0.44702768  1  -1.195688  0.080407  -0.342404  -0.217967  0.053583  3.587665  0.07
N  N255  1  0.39912460  0.64264387  0.02166552  1  -1.174121  0.095786  -0.340223  -0.203342  0.063645  3.599722  0.083
N  N256  1  0.92308732  0.90241408  0.79997319  1  -1.21159  0.084005  -0.342033  -0.219248  0.055978  3.590866  0.073
N  N257  1  0.89311672  0.98614530  0.72520961  1  -1.223742  0.092463  -0.335944  -0.200428  0.061389  3.577763  0.08
N  N258  1  0.67580461  0.18012802  0.55297077  1  -1.195579  0.080389  -0.342403  -0.218113  0.05357  3.587591  0.07
N  N259  1  0.89912703  0.85735125  0.97833547  1  -1.174039  0.095771  -0.340115  -0.203216  0.063635  3.599506  0.083
N  N260  1  0.57690811  0.09759074  0.29997244  1  -1.211377  0.084002  -0.34197  -0.219143  0.055976  3.590771  0.073
N  N261  1  0.60687849  0.01384502  0.22520930  1  -1.223941  0.092471  -0.335803  -0.20015  0.06139  3.577581  0.08
N  N262  1  0.82420176  0.81988039  0.05297204  1  -1.195686  0.080405  -0.342473  -0.21815  0.053582  3.587816  0.07
N  N263  1  0.60087475  0.14264464  0.47833431  1  -1.17413  0.095793  -0.340233  -0.203381  0.06365  3.599808  0.083
O  O264  1  0.85702200  0.44123607  0.73875793  1  -1.107099  0.111741  -0.32747  -0.54646  0.071116  2.349415  0.101
O  O265  1  0.31414004  0.47276668  0.73411603  1  -1.14375  0.080206  -0.323349  -0.565284  0.051477  2.503036  0.073
O  O266  1  0.55843722  0.68512135  0.76474039  1  -1.152499  0.009375  -0.409628  -0.499755  0.005818  2.292441  0.008
O  O267  1  0.61776269  0.70786758  0.70799228  1  -1.130843  0.004349  -0.418563  -0.498704  0.002603  2.237107  0.003
O  O268  1  0.38752919  0.43699181  0.98088162  1  -1.146755  0.081703  -0.322573  -0.563612  0.052307  2.493857  0.075
O  O269  1  0.37256264  0.89406411  0.98602046  1  -1.117843  0.11089  -0.330734  -0.554478  0.070515  2.354105  0.1
O  O270  1  0.60163646  0.88275020  0.00723703  1  -1.195265  0.003418  -0.31842  -0.578614  0.001259  2.351267  0.004
O  O271  1  0.87459731  0.68507963  0.75421358  1  -1.190297  0.00226  -0.321147  -0.584758  0.000318  2.366682  0.004
O  O272  1  0.62138695  0.43670475  0.96061213  1  -1.179458  0.001566  -0.323274  -0.546321  0.000269  2.125217  0.001
O  O273  1  0.31283337  0.69955938  0.71185530  1  -1.175613  0.001417  -0.321765  -0.542533  0.000161  2.12457  0.001
O  O274  1  0.60181823  0.19862707  0.01405321  1  -1.171779  0.009048  -0.410803  -0.504039  0.005555  2.29131  0.007
O  O275  1  0.63204420  0.13198910  0.95753620  1  -1.140314  0.004524  -0.41866  -0.49957  0.0027  2.235652  0.004
O  O276  1  0.64297908  0.55876207  0.23875860  1  -1.10706  0.11176  -0.327478  -0.54649  0.071128  2.349341  0.101
O  O277  1  0.18585900  0.52723611  0.23411654  1  -1.143659  0.080206  -0.323358  -0.56529  0.051477  2.503087  0.073
O  O278  1  0.94155811  0.31487966  0.26474162  1  -1.152572  0.009377  -0.409565  -0.49965  0.005819  2.292552  0.008
O  O279  1  0.88223713  0.29211850  0.20799428  1  -1.130815  0.004349  -0.418591  -0.498648  0.002603  2.236987  0.003
O  O280  1  0.11247057  0.56301554  0.48087963  1  -1.14705  0.081725  -0.32272  -0.563916  0.052321  2.493601  0.075
O  O281  1  0.12744995  0.10592566  0.48601895  1  -1.117288  0.110892  -0.330854  -0.554552  0.070515  2.354328  0.1
O  O282  1  0.89835345  0.11725465  0.50722878  1  -1.195191  0.003421  -0.318328  -0.578416  0.001261  2.351141  0.004
O  O283  1  0.62540731  0.31492047  0.25421440  1  -1.190291  0.00226  -0.321175  -0.584762  0.000318  2.36691  0.004
O  O284  1  0.87864275  0.56330203  0.46060161  1  -1.179113  0.001566  -0.323411  -0.546526  0.000269  2.124732  0.001
O  O285  1  0.18717260  0.30042999  0.21185880  1  -1.17563  0.001416  -0.321808  -0.54258  0.000161  2.124645  0.001
O  O286  1  0.89816121  0.80137412  0.51404528  1  -1.17252  0.009049  -0.410766  -0.504146  0.005555  2.29126  0.007
O  O287  1  0.86797616  0.86801543  0.45752947  1  -1.140598  0.004526  -0.418598  -0.499427  0.002701  2.236183  0.004
O  O288  1  0.14297537  0.94124580  0.76124218  1  -1.106981  0.111745  -0.327534  -0.54647  0.071119  2.349268  0.101
O  O289  1  0.68585967  0.97276944  0.76588501  1  -1.144234  0.080204  -0.323352  -0.565276  0.051476  2.50286  0.073
O  O290  1  0.44156592  0.18512557  0.73526064  1  -1.152496  0.009376  -0.409675  -0.499662  0.005819  2.292408  0.008
O  O291  1  0.38224045  0.20787043  0.79201007  1  -1.130851  0.004349  -0.418511  -0.498563  0.002603  2.237181  0.003
O  O292  1  0.61247401  0.93698534  0.51911773  1  -1.146833  0.081703  -0.322569  -0.563563  0.052307  2.493909  0.075
O  O293  1  0.62744404  0.39406554  0.51397778  1  -1.117945  0.110892  -0.330775  -0.554472  0.070517  2.354098  0.1
O  O294  1  0.39836410  0.38274127  0.49276284  1  -1.195308  0.003422  -0.318471  -0.578643  0.001262  2.35099  0.004
O  O295  1  0.12540466  0.18508818  0.74578480  1  -1.190015  0.00226  -0.321143  -0.58474  0.000317  2.366752  0.004
O  O296  1  0.37860576  0.93670472  0.53938400  1  -1.179873  0.001566  -0.323275  -0.546355  0.000269  2.125167  0.001
O  O297  1  0.68717094  0.19956007  0.78814782  1  -1.175665  0.001417  -0.321803  -0.542662  0.000162  2.124355  0.001
O  O298  1  0.39818346  0.69862333  0.48594564  1  -1.171806  0.00905  -0.41085  -0.504155  0.005556  2.291246  0.007
O  O299  1  0.36795543  0.63198551  0.54246240  1  -1.140687  0.004525  -0.418683  -0.499634  0.0027  2.235444  0.004
O  O300  1  0.35702607  0.05875518  0.26124167  1  -1.10705  0.111759  -0.327534  -0.546498  0.071127  2.349208  0.101
O  O301  1  0.81414498  0.02723968  0.26588413  1  -1.143752  0.080202  -0.323313  -0.565284  0.051475  2.50303  0.073
O  O302  1  0.05844244  0.81487254  0.23525924  1  -1.152515  0.009377  -0.409612  -0.499621  0.005819  2.292562  0.008
O  O303  1  0.11776225  0.79212283  0.29200793  1  -1.130725  0.004349  -0.4185  -0.498657  0.002603  2.236996  0.003
O  O304  1  0.88753226  0.06301341  0.01911950  1  -1.1467  0.08172  -0.322741  -0.563922  0.052318  2.493633  0.075
O  O305  1  0.87255406  0.60593333  0.01398052  1  -1.11767  0.110893  -0.330801  -0.554486  0.070516  2.354067  0.1
O  O306  1  0.10164734  0.61725649  0.99276963  1  -1.195053  0.00342  -0.318337  -0.578437  0.00126  2.351054  0.004
O  O307  1  0.37459557  0.81491665  0.24578570  1  -1.190188  0.00226  -0.321179  -0.584767  0.000317  2.366937  0.004
O  O308  1  0.12135775  0.06330390  0.03939828  1  -1.179125  0.001565  -0.32339  -0.546469  0.000269  2.124806  0.001
O  O309  1  0.81283145  0.80043573  0.28814322  1  -1.175542  0.001417  -0.321803  -0.542594  0.000161  2.124533  0.001
O  O310  1  0.10183379  0.30137808  0.98595378  1  -1.172594  0.009048  -0.410727  -0.504061  0.005554  2.291348  0.007
O  O311  1  0.13202557  0.36801722  0.04246984  1  -1.140389  0.004525  -0.418637  -0.499459  0.002701  2.236176  0.004
