# generated using pymatgen
data_KH3C4(NO)6
_symmetry_space_group_name_H-M   'P 1'
_cell_length_a   7.60700483
_cell_length_b   9.25566544
_cell_length_c   13.13028670
_cell_angle_alpha   89.99993728
_cell_angle_beta   90.00044834
_cell_angle_gamma   106.07438335
_symmetry_Int_Tables_number   1
_chemical_formula_structural   KH3C4(NO)6
_chemical_formula_sum   'K4 H12 C16 N24 O24'
_cell_volume   888.33161501
_cell_formula_units_Z   4
loop_
 _symmetry_equiv_pos_site_id
 _symmetry_equiv_pos_as_xyz
  1  'x, y, z'
loop_
 _atom_site_type_symbol
 _atom_site_label
 _atom_site_symmetry_multiplicity
 _atom_site_fract_x
 _atom_site_fract_y
 _atom_site_fract_z
 _atom_site_occupancy
 _atom_site_hle17_bader_spin_density
 _atom_site_hle17_ddec_charge
 _atom_site_hle17_ddec_spin_density
 _atom_site_hle17_ddec_sum_bond_order
 _atom_site_hle17_magmom
 _atom_site_hse06_10hf_bader_spin_density
 _atom_site_hse06_10hf_ddec_charge
 _atom_site_hse06_10hf_ddec_spin_density
 _atom_site_hse06_10hf_ddec_sum_bond_order
 _atom_site_hse06_10hf_magmom
 _atom_site_hse06_bader_spin_density
 _atom_site_hse06_ddec_charge
 _atom_site_hse06_ddec_spin_density
 _atom_site_hse06_ddec_sum_bond_order
 _atom_site_hse06_magmom
 _atom_site_pbe_bader_spin_density
 _atom_site_pbe_cm5_charge
 _atom_site_pbe_ddec_charge
 _atom_site_pbe_ddec_spin_density
 _atom_site_pbe_ddec_sum_bond_order
 _atom_site_pbe_magmom
K  K0  1  0.05843049  0.35409965  0.18214379  1  0  0.910044  0  0.468411  0  0  0.840461  0  0.680415  0  0  0.858283  0  0.654753  0  0  0.820912  0.82737  0  0.698677  0
K  K1  1  0.44157220  0.64589795  0.68214050  1  0  0.910051  0  0.46838  0  0  0.840469  0  0.680349  0  0  0.85829  0  0.654694  0  0  0.820904  0.827381  0  0.698609  0
K  K2  1  0.94157351  0.64590747  0.81785840  1  0  0.910045  0  0.468428  0  0  0.840465  0  0.680428  0  0  0.85829  0  0.654767  0  0  0.820909  0.827405  0  0.698631  0
K  K3  1  0.55842707  0.35410697  0.31786169  1  0  0.91006  0  0.468378  0  0  0.840483  0  0.680354  0  0  0.858304  0  0.654694  0  0  0.820926  0.827388  0  0.698642  0
H  H4  1  0.35528075  0.64062720  0.35048799  1  0  0.323523  0  0.882638  0  0  0.299516  0  0.949208  0  0  0.307946  0  0.941754  0  0  0.337312  0.293531  0  0.954602  0
H  H5  1  0.14471841  0.35937635  0.85048354  1  0  0.323446  0  0.882785  0  0  0.29947  0  0.94931  0  0  0.307898  0  0.941849  0  0  0.337313  0.293528  0  0.954653  0
H  H6  1  0.64471777  0.35938675  0.64951191  1  0  0.323496  0  0.882623  0  0  0.299496  0  0.949218  0  0  0.307925  0  0.941749  0  0  0.337347  0.293565  0  0.954575  0
H  H7  1  0.85527336  0.64061849  0.14951331  1  0  0.323499  0  0.882637  0  0  0.299515  0  0.949198  0  0  0.307946  0  0.941732  0  0  0.337337  0.293566  0  0.95455  0
H  H8  1  0.59612878  0.88203026  0.43050498  1  0  0.359231  0  0.868904  0  0  0.337012  0  0.938422  0  0  0.34516  0  0.93075  0  0  0.318026  0.331247  0  0.943872  0
H  H9  1  0.90387242  0.11797419  0.93050341  1  0  0.359216  0  0.868977  0  0  0.336985  0  0.938527  0  0  0.345133  0  0.930854  0  0  0.318022  0.331219  0  0.94397  0
H  H10  1  0.40386919  0.11797467  0.56949720  1  0  0.359287  0  0.868843  0  0  0.337059  0  0.938386  0  0  0.345207  0  0.930714  0  0  0.31804  0.331294  0  0.943836  0
H  H11  1  0.09612004  0.88202629  0.06949573  1  0  0.359215  0  0.868925  0  0  0.336995  0  0.938456  0  0  0.345143  0  0.930785  0  0  0.318047  0.331231  0  0.94389  0
H  H12  1  0.69594624  0.02185197  0.34220126  1  0  0.345468  0  0.894553  0  0  0.321905  0  0.968187  0  0  0.329846  0  0.960986  0  0  0.313304  0.316334  0  0.973094  0
H  H13  1  0.80405817  0.97815004  0.84220397  1  0  0.345473  0  0.894546  0  0  0.321906  0  0.968194  0  0  0.329846  0  0.960994  0  0  0.313328  0.316333  0  0.973099  0
H  H14  1  0.30405684  0.97815629  0.65780321  1  0  0.345496  0  0.894519  0  0  0.321931  0  0.968171  0  0  0.329871  0  0.960971  0  0  0.313312  0.316361  0  0.973071  0
H  H15  1  0.19593179  0.02184708  0.15779821  1  0  0.345394  0  0.894664  0  0  0.321888  0  0.968238  0  0  0.329797  0  0.961075  0  0  0.313302  0.316316  0  0.973141  0
C  C16  1  0.46435255  0.72234284  0.12442764  1  0  0.128497  0  3.862373  0  0  0.114984  0  4.149868  0  0  0.128749  0  4.163717  0  0  0.10847  0.10616  0  4.140534  0
C  C17  1  0.03565116  0.27765240  0.62442199  1  0  0.128637  0  3.862146  0  0  0.114981  0  4.149766  0  0  0.12876  0  4.16359  0  0  0.1083  0.106149  0  4.140454  0
C  C18  1  0.53565041  0.27766881  0.87557302  1  0  0.128475  0  3.862072  0  0  0.114973  0  4.149655  0  0  0.128745  0  4.163484  0  0  0.108431  0.106148  0  4.140325  0
C  C19  1  0.96435304  0.72233666  0.37557486  1  0  0.128501  0  3.86221  0  0  0.114922  0  4.149823  0  0  0.128696  0  4.163661  0  0  0.108373  0.106085  0  4.140507  0
C  C20  1  0.56772332  0.85745183  0.17377557  1  0  -0.151991  0  3.663416  0  0  -0.185559  0  3.934805  0  0  -0.20117  0  3.954973  0  0  0.067305  -0.175621  0  3.921292  0
C  C21  1  0.93228160  0.14254313  0.67377487  1  0  -0.152145  0  3.663453  0  0  -0.185587  0  3.934803  0  0  -0.2012  0  3.954965  0  0  0.067378  -0.175644  0  3.92129  0
C  C22  1  0.43227965  0.14255982  0.82622585  1  0  -0.151552  0  3.663179  0  0  -0.185347  0  3.934711  0  0  -0.200949  0  3.95485  0  0  0.067443  -0.175401  0  3.921191  0
C  C23  1  0.06771867  0.85744597  0.32622351  1  0  -0.151801  0  3.663374  0  0  -0.185551  0  3.934956  0  0  -0.201178  0  3.955142  0  0  0.067351  -0.175603  0  3.921443  0
C  C24  1  0.53527572  0.83329670  0.28004204  1  0  0.459603  0  3.79028  0  0  0.410004  0  4.073948  0  0  0.433053  0  4.085585  0  0  0.249529  0.394904  0  4.065532  0
C  C25  1  0.96472742  0.16670411  0.78003994  1  0  0.45961  0  3.790134  0  0  0.409994  0  4.073821  0  0  0.433044  0  4.085457  0  0  0.249518  0.394902  0  4.065395  0
C  C26  1  0.46472554  0.16671384  0.71996015  1  0  0.459493  0  3.790104  0  0  0.409984  0  4.073787  0  0  0.43303  0  4.085416  0  0  0.249544  0.394917  0  4.065384  0
C  C27  1  0.03526709  0.83328732  0.21995920  1  0  0.459564  0  3.790038  0  0  0.410006  0  4.07376  0  0  0.43306  0  4.085395  0  0  0.249568  0.394909  0  4.065345  0
C  C28  1  0.45301626  0.68817331  0.01600578  1  0  -0.008587  0  3.545987  0  0  -0.066063  0  3.828236  0  0  -0.075405  0  3.842476  0  0  0.171073  -0.061052  0  3.820353  0
C  C29  1  0.04698317  0.31181389  0.51600092  1  0  -0.00852  0  3.546012  0  0  -0.065924  0  3.828201  0  0  -0.075268  0  3.842434  0  0  0.171219  -0.060929  0  3.820364  0
C  C30  1  0.54698449  0.31183949  0.98399488  1  0  -0.008646  0  3.546053  0  0  -0.065962  0  3.828308  0  0  -0.075309  0  3.842548  0  0  0.171094  -0.060968  0  3.820464  0
C  C31  1  0.95302035  0.68816952  0.48399517  1  0  -0.008706  0  3.546208  0  0  -0.066058  0  3.828249  0  0  -0.0754  0  3.842486  0  0  0.171089  -0.061046  0  3.820388  0
N  N32  1  0.37480522  0.62480512  0.19379306  1  0  -0.245711  0  2.923913  0  0  -0.249764  0  3.213003  0  0  -0.256402  0  3.225494  0  0  -0.2801  -0.24498  0  3.204461  0
N  N33  1  0.12519815  0.37519023  0.69378927  1  0  -0.24577  0  2.923712  0  0  -0.249798  0  3.212849  0  0  -0.256436  0  3.225327  0  0  -0.280038  -0.245005  0  3.204322  0
N  N34  1  0.62518949  0.37520550  0.80620608  1  0  -0.245885  0  2.923937  0  0  -0.249903  0  3.213038  0  0  -0.256543  0  3.225513  0  0  -0.28011  -0.245082  0  3.204531  0
N  N35  1  0.87480513  0.62479996  0.30620834  1  0  -0.24585  0  2.923887  0  0  -0.249854  0  3.212961  0  0  -0.256488  0  3.225438  0  0  -0.280093  -0.245056  0  3.204437  0
N  N36  1  0.41805325  0.69371045  0.28640649  1  0  -0.267061  0  3.394095  0  0  -0.200801  0  3.639538  0  0  -0.216889  0  3.651752  0  0  -0.2904  -0.190265  0  3.631368  0
N  N37  1  0.08194867  0.30628845  0.78640408  1  0  -0.266969  0  3.394153  0  0  -0.200739  0  3.639621  0  0  -0.216827  0  3.651833  0  0  -0.290396  -0.190244  0  3.631404  0
N  N38  1  0.58194709  0.30630123  0.71359265  1  0  -0.266907  0  3.393938  0  0  -0.20071  0  3.639426  0  0  -0.216785  0  3.651618  0  0  -0.290446  -0.190321  0  3.631316  0
N  N39  1  0.91804716  0.69370296  0.21359429  1  0  -0.266931  0  3.394041  0  0  -0.200698  0  3.639513  0  0  -0.216786  0  3.651719  0  0  -0.290419  -0.190211  0  3.631315  0
N  N40  1  0.61444101  0.70632279  0.96162905  1  0  0.461451  0  4.019427  0  0  0.500992  0  4.310991  0  0  0.52286  0  4.321974  0  0  -0.000351  0.486477  0  4.303783  0
N  N41  1  0.88555388  0.29366259  0.46162778  1  0  0.461251  0  4.019487  0  0  0.500957  0  4.3108  0  0  0.522825  0  4.32178  0  0  -0.000366  0.486446  0  4.303593  0
N  N42  1  0.38555802  0.29368890  0.03837085  1  0  0.461209  0  4.019576  0  0  0.50068  0  4.311239  0  0  0.522547  0  4.322221  0  0  -0.00044  0.486181  0  4.304022  0
N  N43  1  0.11444719  0.70632875  0.53837288  1  0  0.461299  0  4.019537  0  0  0.501079  0  4.310691  0  0  0.522949  0  4.321667  0  0  -0.000341  0.486569  0  4.303485  0
N  N44  1  0.28514596  0.64404554  0.96653759  1  0  0.472325  0  4.007425  0  0  0.523613  0  4.2764  0  0  0.546327  0  4.286267  0  0  -0.00037  0.508331  0  4.270364  0
N  N45  1  0.21484983  0.35595147  0.46653397  1  0  0.472304  0  4.007366  0  0  0.52346  0  4.276484  0  0  0.54617  0  4.286352  0  0  -0.000427  0.50818  0  4.270446  0
N  N46  1  0.71485479  0.35596726  0.03346155  1  0  0.47251  0  4.007085  0  0  0.523538  0  4.276423  0  0  0.546251  0  4.286297  0  0  -0.000381  0.50826  0  4.270384  0
N  N47  1  0.78515278  0.64403309  0.53346364  1  0  0.472457  0  4.007219  0  0  0.52359  0  4.276376  0  0  0.546297  0  4.286243  0  0  -0.000342  0.508305  0  4.270339  0
N  N48  1  0.67864017  0.98832417  0.13173481  1  0  0.508271  0  4.007866  0  0  0.567534  0  4.259235  0  0  0.591723  0  4.267218  0  0  0.029584  0.551479  0  4.253762  0
N  N49  1  0.82136782  0.01166617  0.63173750  1  0  0.508522  0  4.007735  0  0  0.567649  0  4.259266  0  0  0.591832  0  4.267252  0  0  0.029614  0.551584  0  4.253806  0
N  N50  1  0.32136542  0.01168744  0.86826737  1  0  0.507699  0  4.008215  0  0  0.567252  0  4.259324  0  0  0.591441  0  4.267304  0  0  0.029383  0.551188  0  4.253862  0
N  N51  1  0.17863427  0.98832065  0.36826164  1  0  0.508011  0  4.008041  0  0  0.567449  0  4.259287  0  0  0.591638  0  4.267272  0  0  0.029548  0.551381  0  4.253831  0
N  N52  1  0.59949538  0.92386961  0.35859489  1  0  -0.632126  0  3.104133  0  0  -0.603554  0  3.353881  0  0  -0.624726  0  3.349905  0  0  -0.557311  -0.588853  0  3.35612  0
N  N53  1  0.90050533  0.07613248  0.85859638  1  0  -0.63213  0  3.104044  0  0  -0.603561  0  3.353811  0  0  -0.624733  0  3.349834  0  0  -0.557348  -0.588855  0  3.356036  0
N  N54  1  0.40050771  0.07613865  0.64140805  1  0  -0.632222  0  3.103901  0  0  -0.603648  0  3.353602  0  0  -0.624822  0  3.349631  0  0  -0.557335  -0.588941  0  3.355821  0
N  N55  1  0.09948200  0.92386467  0.14140429  1  0  -0.632095  0  3.104035  0  0  -0.603572  0  3.353691  0  0  -0.624706  0  3.349781  0  0  -0.557348  -0.58886  0  3.355909  0
O  O56  1  0.62352411  0.72820892  0.86672787  1  0  -0.465028  0  1.860845  0  0  -0.453146  0  2.103151  0  0  -0.465804  0  2.096673  0  0  -0.269288  -0.443958  0  2.107447  0
O  O57  1  0.87646549  0.27176508  0.36672809  1  0  -0.46505  0  1.860857  0  0  -0.453194  0  2.103004  0  0  -0.465853  0  2.096528  0  0  -0.269294  -0.444  0  2.107299  0
O  O58  1  0.37647425  0.27179713  0.13327204  1  0  -0.464974  0  1.860866  0  0  -0.453034  0  2.10318  0  0  -0.465694  0  2.096693  0  0  -0.269266  -0.443849  0  2.107476  0
O  O59  1  0.12353113  0.72822858  0.63327181  1  0  -0.46503  0  1.860927  0  0  -0.453177  0  2.102989  0  0  -0.465832  0  2.09651  0  0  -0.269296  -0.443994  0  2.10729  0
O  O60  1  0.75731904  0.70689763  0.01165317  1  0  -0.432094  0  1.788373  0  0  -0.421795  0  2.019027  0  0  -0.434843  0  2.015191  0  0  -0.193779  -0.412623  0  2.021838  0
O  O61  1  0.74268033  0.29309149  0.51165150  1  0  -0.431943  0  1.788427  0  0  -0.421667  0  2.018922  0  0  -0.434712  0  2.015088  0  0  -0.19372  -0.412478  0  2.021721  0
O  O62  1  0.24268091  0.29311292  0.98834521  1  0  -0.431938  0  1.788298  0  0  -0.421637  0  2.018975  0  0  -0.434686  0  2.015139  0  0  -0.193711  -0.412461  0  2.021772  0
O  O63  1  0.25732387  0.70689756  0.48835069  1  0  -0.431963  0  1.788321  0  0  -0.421779  0  2.01887  0  0  -0.434829  0  2.015038  0  0  -0.193758  -0.412577  0  2.021633  0
O  O64  1  0.27198244  0.59227752  0.87659057  1  0  -0.490947  0  1.866858  0  0  -0.485327  0  2.109082  0  0  -0.499712  0  2.103186  0  0  -0.272226  -0.475238  0  2.113248  0
O  O65  1  0.22800765  0.40772166  0.37658774  1  0  -0.491101  0  1.866948  0  0  -0.485396  0  2.109191  0  0  -0.4998  0  2.103339  0  0  -0.272245  -0.475284  0  2.113334  0
O  O66  1  0.72801723  0.40772852  0.12341086  1  0  -0.490941  0  1.866738  0  0  -0.485282  0  2.109143  0  0  -0.499661  0  2.10323  0  0  -0.272184  -0.475182  0  2.1133  0
O  O67  1  0.77199274  0.59226405  0.62340988  1  0  -0.490985  0  1.866959  0  0  -0.485284  0  2.109183  0  0  -0.499697  0  2.10336  0  0  -0.272175  -0.475181  0  2.113337  0
O  O68  1  0.14471499  0.65191980  0.01481699  1  0  -0.42835  0  1.797998  0  0  -0.427405  0  2.030121  0  0  -0.439484  0  2.024729  0  0  -0.191747  -0.419027  0  2.034034  0
O  O69  1  0.35528367  0.34807645  0.51481047  1  0  -0.428233  0  1.797838  0  0  -0.427289  0  2.030007  0  0  -0.439363  0  2.024617  0  0  -0.191745  -0.418903  0  2.033918  0
O  O70  1  0.85528734  0.34809750  0.98518138  1  0  -0.428428  0  1.797823  0  0  -0.427404  0  2.030029  0  0  -0.43948  0  2.024636  0  0  -0.191775  -0.419022  0  2.03394  0
O  O71  1  0.64471617  0.65190024  0.48518486  1  0  -0.428319  0  1.797688  0  0  -0.427378  0  2.029868  0  0  -0.439449  0  2.024474  0  0  -0.191777  -0.418995  0  2.03378  0
O  O72  1  0.69559345  0.00027362  0.03705180  1  0  -0.392358  0  1.801458  0  0  -0.380502  0  2.011633  0  0  -0.393674  0  2.008561  0  0  -0.147915  -0.371586  0  2.013955  0
O  O73  1  0.80441675  0.99971542  0.53705298  1  0  -0.392452  0  1.801295  0  0  -0.380589  0  2.011569  0  0  -0.393749  0  2.008489  0  0  -0.147945  -0.37167  0  2.0139  0
O  O74  1  0.30442181  0.99973562  0.96295038  1  0  -0.392129  0  1.801438  0  0  -0.380384  0  2.011535  0  0  -0.393568  0  2.008474  0  0  -0.147845  -0.371464  0  2.013853  0
O  O75  1  0.19559071  0.00026796  0.46294464  1  0  -0.392254  0  1.801344  0  0  -0.380495  0  2.011538  0  0  -0.393656  0  2.008455  0  0  -0.147946  -0.371572  0  2.013862  0
O  O76  1  0.75977648  0.09256746  0.19203178  1  0  -0.454152  0  1.780989  0  0  -0.442098  0  1.996579  0  0  -0.45584  0  1.990804  0  0  -0.212061  -0.432661  0  2.00048  0
O  O77  1  0.74023366  0.90742296  0.69203425  1  0  -0.454273  0  1.781074  0  0  -0.44214  0  1.996678  0  0  -0.455879  0  1.990908  0  0  -0.212063  -0.432702  0  2.000581  0
O  O78  1  0.24022426  0.90744534  0.80797041  1  0  -0.454006  0  1.781103  0  0  -0.442073  0  1.996663  0  0  -0.455804  0  1.990859  0  0  -0.212017  -0.432635  0  2.000566  0
O  O79  1  0.25976753  0.09256500  0.30796489  1  0  -0.454082  0  1.78107  0  0  -0.442066  0  1.996627  0  0  -0.455793  0  1.99082  0  0  -0.212017  -0.432624  0  2.000532  0
