# generated using pymatgen
data_Ga2FeH28(C13N)2
_symmetry_space_group_name_H-M   'P 1'
_cell_length_a   7.51910171
_cell_length_b   8.80895250
_cell_length_c   9.68184243
_cell_angle_alpha   64.22838051
_cell_angle_beta   76.38931405
_cell_angle_gamma   73.60251795
_symmetry_Int_Tables_number   1
_chemical_formula_structural   Ga2FeH28(C13N)2
_chemical_formula_sum   'Ga2 Fe1 H28 C26 N2'
_cell_volume   549.28195673
_cell_formula_units_Z   1
loop_
 _symmetry_equiv_pos_site_id
 _symmetry_equiv_pos_as_xyz
  1  'x, y, z'
loop_
 _atom_site_type_symbol
 _atom_site_label
 _atom_site_symmetry_multiplicity
 _atom_site_fract_x
 _atom_site_fract_y
 _atom_site_fract_z
 _atom_site_occupancy
 _atom_site_pbe_bader_spin_density
 _atom_site_pbe_cm5_charge
 _atom_site_pbe_ddec_charge
 _atom_site_pbe_ddec_spin_density
 _atom_site_pbe_ddec_sum_bond_order
 _atom_site_pbe_magmom
Ga  Ga0  1  0.82916474  0.84539970  0.79664536  1  0  0.262395  0.786306  0  2.942746  0
Ga  Ga1  1  0.17083880  0.15459826  0.20335116  1  0  0.262419  0.786363  0  2.942705  0
Fe  Fe2  1  0.99999973  0.99999663  0.99999979  1  0  0.531015  0.26467  0  4.008035  0
H  H3  1  0.61341482  0.02695228  0.04996413  1  0  0.102436  0.114362  0  1.027093  0
H  H4  1  0.38658337  0.97303921  0.95003381  1  0  0.102427  0.114358  0  1.027095  0
H  H5  1  0.25361252  0.72678336  0.93607692  1  0  0.107861  0.126104  0  1.005889  0
H  H6  1  0.74638188  0.27320679  0.06392534  1  0  0.107872  0.126105  0  1.005916  0
H  H7  1  0.96323991  0.65593063  0.16453143  1  0  0.104305  0.118844  0  1.020695  0
H  H8  1  0.03675239  0.34406849  0.83547390  1  0  0.104332  0.118899  0  1.020628  0
H  H9  1  0.92264956  0.85434537  0.32239229  1  0  0.095031  0.104911  0  1.048542  0
H  H10  1  0.07734928  0.14565512  0.67760822  1  0  0.095032  0.104938  0  1.048516  0
H  H11  1  0.82909280  0.16004630  0.32838458  1  0  0.071823  0.150372  0  1.067249  0
H  H12  1  0.17091258  0.83995550  0.67161733  1  0  0.071802  0.150346  0  1.067226  0
H  H13  1  0.89051359  0.35396786  0.29688068  1  0  0.069421  0.139749  0  1.095766  0
H  H14  1  0.10949042  0.64603392  0.70312251  1  0  0.069409  0.139694  0  1.095862  0
H  H15  1  0.95695309  0.16253640  0.45963878  1  0  0.07547  0.159132  0  1.074962  0
H  H16  1  0.04305775  0.83746545  0.54036005  1  0  0.07545  0.159171  0  1.074912  0
H  H17  1  0.36282343  0.29533246  0.93880421  1  0  0.073376  0.156965  0  1.075845  0
H  H18  1  0.63717512  0.70466937  0.06118757  1  0  0.07336  0.156944  0  1.07579  0
H  H19  1  0.37990096  0.38758472  0.06426415  1  0  0.074242  0.1573  0  1.068762  0
H  H20  1  0.62009729  0.61241836  0.93573132  1  0  0.074279  0.157317  0  1.068762  0
H  H21  1  0.17212148  0.45017960  0.97910373  1  0  0.074525  0.149867  0  1.075903  0
H  H22  1  0.82787297  0.54982218  0.02089088  1  0  0.074525  0.149827  0  1.075988  0
H  H23  1  0.19928330  0.37706643  0.30375826  1  0  0.114267  0.120803  0  1.041736  0
H  H24  1  0.80070496  0.62294430  0.69624016  1  0  0.114351  0.12094  0  1.041822  0
H  H25  1  0.18364980  0.56488273  0.43616038  1  0  0.107193  0.115221  0  1.008748  0
H  H26  1  0.81634269  0.43512153  0.56384703  1  0  0.107183  0.115281  0  1.008794  0
H  H27  1  0.35921172  0.45725730  0.66151961  1  0  0.107345  0.102179  0  1.013932  0
H  H28  1  0.64078575  0.54274314  0.33848529  1  0  0.107298  0.102115  0  1.01381  0
H  H29  1  0.56540361  0.16832104  0.74304260  1  0  0.107862  0.12271  0  1.065255  0
H  H30  1  0.43461056  0.83167827  0.25695248  1  0  0.107865  0.122721  0  1.065262  0
C  C31  1  0.83144110  0.04281973  0.84204799  1  0  -0.178608  -0.348024  0  4.010463  0
C  C32  1  0.16855834  0.95717818  0.15795135  1  0  -0.178588  -0.348015  0  4.010324  0
C  C33  1  0.27426846  0.91338569  0.03021103  1  0  -0.160125  -0.136016  0  4.046931  0
C  C34  1  0.72572991  0.08661094  0.96978694  1  0  -0.16018  -0.136115  0  4.047222  0
C  C35  1  0.79638444  0.21651363  0.97866915  1  0  -0.1513  -0.131899  0  3.973201  0
C  C36  1  0.20361268  0.78347653  0.02133468  1  0  -0.151389  -0.132057  0  3.973006  0
C  C37  1  0.94896491  0.25500557  0.85714076  1  0  -0.155654  -0.142983  0  3.994705  0
C  C38  1  0.05102693  0.74498968  0.14286617  1  0  -0.155564  -0.142853  0  3.994601  0
C  C39  1  0.96983594  0.14910007  0.77387650  1  0  -0.16337  -0.145053  0  4.071111  0
C  C40  1  0.03016426  0.85090041  0.22612583  1  0  -0.163377  -0.145003  0  4.071111  0
C  C41  1  0.93949319  0.21366592  0.33706249  1  0  -0.359395  -0.758526  0  3.817598  0
C  C42  1  0.06051688  0.78633335  0.66293645  1  0  -0.359316  -0.758444  0  3.817606  0
C  C43  1  0.28455786  0.34042341  0.02946065  1  0  -0.358681  -0.764769  0  3.821145  0
C  C44  1  0.71544175  0.65957970  0.97053250  1  0  -0.358718  -0.764722  0  3.821169  0
C  C45  1  0.38770940  0.16049964  0.44887747  1  0  0.131266  0.163864  0  3.978969  0
C  C46  1  0.61228689  0.83950603  0.55111425  1  0  0.131197  0.163803  0  3.979053  0
C  C47  1  0.27692425  0.33063751  0.40082460  1  0  -0.077928  -0.161981  0  3.946256  0
C  C48  1  0.72307583  0.66936930  0.59919180  1  0  -0.078023  -0.162163  0  3.945732  0
C  C49  1  0.26779645  0.43442915  0.47563835  1  0  -0.070083  -0.044391  0  3.946022  0
C  C50  1  0.73221238  0.56556374  0.52435195  1  0  -0.069976  -0.044333  0  3.945872  0
C  C51  1  0.36927202  0.37384400  0.60243131  1  0  -0.071102  -0.048286  0  3.978006  0
C  C52  1  0.63072154  0.62616152  0.39758162  1  0  -0.071098  -0.048267  0  3.978344  0
C  C53  1  0.48226967  0.21284660  0.64955378  1  0  -0.078339  -0.157373  0  3.93231  0
C  C54  1  0.51773600  0.78715396  0.35044030  1  0  -0.078393  -0.157459  0  3.932224  0
C  C55  1  0.50300597  0.89859468  0.42511307  1  0  0.131578  0.170285  0  3.978336  0
C  C56  1  0.49699109  0.10141350  0.57488992  1  0  0.131556  0.17028  0  3.978295  0
N  N57  1  0.39062034  0.05715181  0.37760154  1  0  -0.251302  -0.252034  0  3.342206  0
N  N58  1  0.60938183  0.94284614  0.62239523  1  0  -0.251262  -0.251981  0  3.341994  0
