# generated using pymatgen
data_CuH10(C6N5)2
_symmetry_space_group_name_H-M   'P 1'
_cell_length_a   7.29664693
_cell_length_b   9.29909436
_cell_length_c   9.95948554
_cell_angle_alpha   90.00070675
_cell_angle_beta   91.90955600
_cell_angle_gamma   89.99979316
_symmetry_Int_Tables_number   1
_chemical_formula_structural   CuH10(C6N5)2
_chemical_formula_sum   'Cu2 H20 C24 N20'
_cell_volume   675.39781232
_cell_formula_units_Z   2
loop_
 _symmetry_equiv_pos_site_id
 _symmetry_equiv_pos_as_xyz
  1  'x, y, z'
loop_
 _atom_site_type_symbol
 _atom_site_label
 _atom_site_symmetry_multiplicity
 _atom_site_fract_x
 _atom_site_fract_y
 _atom_site_fract_z
 _atom_site_occupancy
 _atom_site_hle17_ddec_charge
 _atom_site_hle17_ddec_spin_density
 _atom_site_hle17_ddec_sum_bond_order
 _atom_site_hle17_magmom
 _atom_site_hse06_10hf_ddec_charge
 _atom_site_hse06_10hf_ddec_spin_density
 _atom_site_hse06_10hf_ddec_sum_bond_order
 _atom_site_hse06_10hf_magmom
 _atom_site_hse06_ddec_charge
 _atom_site_hse06_ddec_spin_density
 _atom_site_hse06_ddec_sum_bond_order
 _atom_site_hse06_magmom
 _atom_site_pbe_cm5_charge
 _atom_site_pbe_ddec_charge
 _atom_site_pbe_ddec_spin_density
 _atom_site_pbe_ddec_sum_bond_order
 _atom_site_pbe_magmom
Cu  Cu0  1  0.73430903  0.55577724  0.39043369  1  0.673737  0.73844  2.085939  0.52  0.613149  0.810533  2.500798  0.624  0.69145  0.885854  2.445451  0.706  0.793801  0.56823  0.752697  2.537777  0.566
Cu  Cu1  1  0.26569112  0.05578009  0.60956517  1  0.673685  -0.738444  2.086074  -0.52  0.613104  -0.810532  2.500935  -0.624  0.691393  -0.885849  2.445611  -0.706  0.793826  0.568156  -0.7527  2.537942  -0.566
H  H2  1  0.36103941  0.40666389  0.32961653  1  0.085263  0.001399  0.970239  0.002  0.08661  0.001222  1.043317  0.002  0.088295  0.000865  1.04178  0.001  0.119157  0.085204  0.001592  1.044775  0.002
H  H3  1  0.63896059  0.90666071  0.67038133  1  0.085281  -0.0014  0.970255  -0.002  0.086634  -0.001222  1.043305  -0.002  0.088317  -0.000865  1.041768  -0.001  0.119172  0.085231  -0.001592  1.044764  -0.002
H  H4  1  0.17501375  0.35488247  0.12603059  1  0.102947  0.000503  0.987947  0.001  0.106191  0.000443  1.059509  0.001  0.108568  0.000329  1.060199  0.0  0.103634  0.104449  0.000574  1.059105  0.001
H  H5  1  0.82498921  0.85489333  0.87396876  1  0.10292  -0.000503  0.987964  -0.001  0.106191  -0.000443  1.059522  -0.001  0.108565  -0.000329  1.060218  0.0  0.103651  0.104452  -0.000574  1.059126  -0.001
H  H6  1  0.30731548  0.41186608  0.89663320  1  0.106055  0.000356  0.951229  0.0  0.107523  9.7e-05  1.024806  0.0  0.111023  4.3e-05  1.021507  0.0  0.108863  0.104465  0.000116  1.027919  0.0
H  H7  1  0.69268586  0.91188426  0.10336576  1  0.105967  -0.000357  0.951219  0.0  0.107537  -9.7e-05  1.024713  0.0  0.111039  -4.3e-05  1.021412  0.0  0.108857  0.104485  -0.000116  1.027821  0.0
H  H8  1  0.61029867  0.52662305  0.89098970  1  0.113448  0.00072  0.958116  0.001  0.118968  0.000567  1.02526  0.001  0.122259  0.00039  1.023529  0.001  0.112086  0.116485  0.000835  1.026539  0.001
H  H9  1  0.38969886  0.02663506  0.10900876  1  0.113518  -0.000718  0.958048  -0.001  0.11898  -0.000567  1.025231  -0.001  0.12227  -0.00039  1.023502  -0.001  0.112099  0.116498  -0.000835  1.026509  -0.001
H  H10  1  0.88806058  0.59370564  0.90284538  1  0.115158  0.000585  0.950641  0.001  0.124684  0.00048  1.009258  0.001  0.127267  0.000329  1.009299  0.001  0.113176  0.122791  0.000714  1.009165  0.001
H  H11  1  0.11194488  0.09372468  0.09715506  1  0.11513  -0.000585  0.950609  -0.001  0.124614  -0.000481  1.00927  -0.001  0.127222  -0.000329  1.009272  -0.001  0.113156  0.122722  -0.000714  1.009178  -0.001
H  H12  1  0.17956233  0.72485073  0.93294471  1  0.107668  0.000419  0.950636  0.0  0.112862  0.000182  1.017763  0.0  0.116085  0.000102  1.014889  0.0  0.110564  0.110352  0.000224  1.019909  0.0
H  H13  1  0.82044257  0.22486641  0.06705621  1  0.107695  -0.00042  0.950542  0.0  0.112896  -0.000182  1.017722  0.0  0.116116  -0.000102  1.014847  0.0  0.110572  0.110371  -0.000224  1.0199  0.0
H  H14  1  0.29233740  0.78896036  0.16980053  1  0.106153  0.000433  0.983307  0.0  0.110249  0.000388  1.051656  0.0  0.112555  0.000282  1.052462  0.0  0.105992  0.108509  0.000543  1.051328  0.001
H  H15  1  0.70765625  0.28896389  0.83020386  1  0.106079  -0.000432  0.983351  0.0  0.110179  -0.000388  1.051688  0.0  0.112483  -0.000281  1.052497  0.0  0.105959  0.108435  -0.000543  1.05136  -0.001
H  H16  1  0.10190502  0.71587198  0.36156338  1  0.084557  0.001096  0.956103  0.002  0.090328  0.000927  1.020197  0.001  0.091467  0.000669  1.02047  0.001  0.119629  0.089347  0.001293  1.020286  0.002
H  H17  1  0.89808072  0.21586815  0.63843595  1  0.084598  -0.001097  0.956018  -0.002  0.090356  -0.000927  1.020133  -0.001  0.091498  -0.000669  1.020391  -0.001  0.119581  0.089374  -0.001293  1.020227  -0.002
H  H18  1  0.59553549  0.21106440  0.40686586  1  0.102895  -0.000268  0.965352  0.0  0.102785  -0.000135  1.041358  0.0  0.105594  -0.000108  1.037844  0.0  0.132645  0.100568  -0.00014  1.044396  0.0
H  H19  1  0.40447084  0.71106619  0.59313293  1  0.10293  0.000268  0.96533  0.0  0.102811  0.000135  1.041352  0.0  0.105624  0.000107  1.037836  0.0  0.132655  0.100595  0.00014  1.044385  0.0
H  H20  1  0.09017161  0.44550301  0.57752906  1  0.096984  -0.000281  0.967021  0.0  0.094559  -0.000191  1.048574  0.0  0.097055  -0.000144  1.045533  0.0  0.1264  0.092483  -0.000218  1.05106  0.0
H  H21  1  0.90983645  0.94550012  0.42246544  1  0.096976  0.000281  0.967018  0.0  0.094559  0.000191  1.048562  0.0  0.097055  0.000143  1.045516  0.0  0.126414  0.092492  0.000218  1.051042  0.0
C  C22  1  0.41589436  0.42903093  0.23141681  1  0.139761  -0.006843  3.667865  -0.008  0.11139  -0.001249  3.919168  -0.003  0.12054  -0.002254  3.937981  -0.004  0.052632  0.105136  -0.000466  3.907601  -0.002
C  C23  1  0.58410417  0.92903458  0.76858127  1  0.139785  0.006857  3.668074  0.008  0.111442  0.001249  3.919354  0.003  0.120595  0.002253  3.938169  0.004  0.052723  0.10519  0.000466  3.907786  0.002
C  C24  1  0.31174611  0.39917256  0.11526372  1  -0.113969  0.008664  3.716712  0.009  -0.123217  0.004053  3.958099  0.005  -0.131202  0.003587  3.981223  0.004  -0.081788  -0.117998  0.004482  3.942613  0.005
C  C25  1  0.68825254  0.89918499  0.88473703  1  -0.114004  -0.008676  3.716832  -0.009  -0.123324  -0.004053  3.958334  -0.005  -0.131311  -0.003587  3.981462  -0.004  -0.081867  -0.118114  -0.004481  3.942859  -0.005
C  C26  1  0.38298640  0.43199007  0.99090083  1  0.006833  -0.00759  3.702399  -0.007  -0.011178  -0.002799  3.949876  -0.003  -0.006739  -0.002949  3.96681  -0.003  -0.062529  -0.014034  -0.002682  3.938666  -0.002
C  C27  1  0.61700800  0.93200398  0.00909919  1  0.0069  0.007598  3.702287  0.007  -0.011221  0.002799  3.949834  0.003  -0.006782  0.002949  3.966768  0.003  -0.062582  -0.014077  0.002682  3.938621  0.002
C  C28  1  0.55563811  0.49541750  0.98721120  1  -0.133341  0.006127  3.677225  0.006  -0.149103  0.002888  3.917655  0.003  -0.156247  0.002599  3.938258  0.003  -0.072891  -0.14399  0.003064  3.903634  0.003
C  C29  1  0.44436013  0.99543622  0.01278763  1  -0.133328  -0.006134  3.677267  -0.006  -0.149021  -0.002888  3.917727  -0.003  -0.156163  -0.0026  3.938331  -0.003  -0.072838  -0.143908  -0.003064  3.903706  -0.003
C  C30  1  0.65465284  0.52049999  0.10761453  1  0.173012  -0.002709  3.747997  -0.003  0.172039  0.000659  3.986849  0.0  0.180046  -0.000495  4.007379  -0.001  0.120264  0.166257  0.001577  3.973815  0.001
C  C31  1  0.34535158  0.02050961  0.89238403  1  0.172886  0.002713  3.748076  0.003  0.171949  -0.00066  3.986845  0.0  0.179958  0.000494  4.007372  0.001  0.120307  0.166167  -0.001577  3.973811  -0.001
C  C32  1  0.83514943  0.59028940  0.11553678  1  0.174523  -0.002406  3.7543  -0.003  0.171178  0.000445  3.998036  0.0  0.179389  -0.000481  4.017652  -0.001  0.12162  0.165719  0.001113  3.98513  0.001
C  C33  1  0.16485194  0.09030262  0.88446351  1  0.174637  0.002414  3.754103  0.003  0.171248  -0.000446  3.997896  0.0  0.179457  0.000479  4.01752  0.001  0.121553  0.165791  -0.001114  3.984993  -0.001
C  C34  1  0.93644366  0.62437894  0.00335449  1  -0.135364  0.005126  3.691603  0.005  -0.150144  0.002369  3.930927  0.003  -0.157127  0.002183  3.951146  0.002  -0.072835  -0.145116  0.002678  3.916398  0.003
C  C35  1  0.06356168  0.12439714  0.99664228  1  -0.135425  -0.005137  3.691526  -0.005  -0.150133  -0.002368  3.930856  -0.003  -0.15713  -0.002181  3.951056  -0.002  -0.072806  -0.145106  -0.002678  3.916325  -0.003
C  C36  1  0.10117078  0.69858846  0.02086350  1  0.001109  -0.00677  3.712578  -0.006  -0.015492  -0.002674  3.957404  -0.003  -0.010599  -0.002739  3.973903  -0.003  -0.06309  -0.018468  -0.002586  3.945942  -0.002
C  C37  1  0.89883287  0.19860421  0.97913709  1  0.001218  0.006781  3.712519  0.006  -0.015452  0.002674  3.957347  0.003  -0.010557  0.002739  3.97385  0.003  -0.063102  -0.018429  0.002586  3.945871  0.002
C  C38  1  0.16245663  0.73422067  0.15051557  1  -0.112189  0.007445  3.705752  0.008  -0.123119  0.00337  3.949878  0.004  -0.130685  0.003073  3.971768  0.004  -0.082567  -0.11851  0.003737  3.935664  0.004
C  C39  1  0.83754411  0.23423056  0.84948635  1  -0.112175  -0.007453  3.705983  -0.008  -0.123075  -0.003371  3.950094  -0.004  -0.130642  -0.003071  3.971982  -0.004  -0.082518  -0.118461  -0.003737  3.935871  -0.004
C  C40  1  0.05754743  0.69324764  0.25835300  1  0.144024  -0.006654  3.665448  -0.007  0.11761  -0.001695  3.917141  -0.003  0.126796  -0.002388  3.935523  -0.004  0.054939  0.111193  -0.001038  3.906054  -0.002
C  C41  1  0.94244663  0.19325260  0.74164728  1  0.143894  0.006659  3.665642  0.007  0.117499  0.001696  3.917317  0.003  0.126694  0.002386  3.935698  0.004  0.054938  0.11108  0.001038  3.90623  0.002
C  C42  1  0.56263888  0.27724780  0.49256747  1  0.16106  -0.0007  3.718401  0.001  0.118261  0.001509  3.996956  0.003  0.131555  0.000632  4.010397  0.002  0.137586  0.109662  0.001996  3.988294  0.003
C  C43  1  0.43736305  0.77724622  0.50743197  1  0.161037  0.000698  3.718307  -0.001  0.118235  -0.001511  3.996871  -0.003  0.131527  -0.000633  4.010312  -0.002  0.137581  0.109639  -0.001997  3.988208  -0.003
C  C44  1  0.04460566  0.55297715  0.60282395  1  0.142381  -0.003078  3.735963  -0.001  0.098139  0.00054  4.019822  0.002  0.109195  -0.000526  4.034041  0.0  0.126367  0.091652  0.001472  4.009862  0.003
C  C45  1  0.95539313  0.05297534  0.39717485  1  0.142368  0.003066  3.735881  0.001  0.098121  -0.000541  4.019764  -0.002  0.109177  0.000528  4.033985  0.0  0.126327  0.091622  -0.001472  4.009799  -0.003
N  N46  1  0.58434854  0.48601473  0.22772940  1  -0.294556  0.087329  3.300957  0.107  -0.250748  0.062953  3.587097  0.082  -0.28093  0.051723  3.60988  0.071  -0.332322  -0.233234  0.069455  3.574378  0.088
N  N47  1  0.41565247  0.98602317  0.77227040  1  -0.294524  -0.087333  3.301171  -0.108  -0.250686  -0.062951  3.587228  -0.082  -0.280863  -0.051723  3.610002  -0.071  -0.332379  -0.233169  -0.069452  3.574509  -0.088
N  N48  1  0.89776164  0.62347725  0.24152209  1  -0.300122  0.075051  3.303328  0.093  -0.260211  0.052983  3.60116  0.07  -0.287848  0.043733  3.620214  0.061  -0.332731  -0.244464  0.058199  3.590945  0.075
N  N49  1  0.10223411  0.12348359  0.75847543  1  -0.300088  -0.075057  3.303398  -0.093  -0.260206  -0.052982  3.601279  -0.07  -0.287849  -0.043731  3.620333  -0.061  -0.332691  -0.244452  -0.058198  3.59106  -0.075
N  N50  1  0.62104340  0.41262234  0.51417944  1  -0.271575  0.074777  3.276934  0.092  -0.235725  0.050043  3.601563  0.066  -0.263184  0.040812  3.619097  0.056  -0.268105  -0.219072  0.055196  3.590943  0.07
N  N51  1  0.37895519  0.91262385  0.48582348  1  -0.271519  -0.074767  3.276785  -0.092  -0.235682  -0.05004  3.601431  -0.066  -0.263139  -0.040818  3.618962  -0.056  -0.268068  -0.219019  -0.055194  3.590806  -0.07
N  N52  1  0.54923932  0.45554460  0.63153815  1  -0.102798  -0.003282  2.935435  -0.004  -0.088819  -0.000542  3.22978  -0.001  -0.085994  -0.001056  3.241016  -0.002  -0.105469  -0.089859  -0.000523  3.221891  -0.001
N  N53  1  0.45075909  0.95554436  0.36846324  1  -0.102794  0.003269  2.935383  0.004  -0.088814  0.000543  3.229737  0.001  -0.085988  0.001056  3.240972  0.002  -0.105467  -0.089854  0.000524  3.221845  0.001
N  N54  1  0.45095230  0.34958418  0.67791546  1  -0.099176  0.006888  2.966865  0.008  -0.083517  0.003377  3.268397  0.004  -0.083059  0.00199  3.279208  0.003  -0.100261  -0.081947  0.004622  3.259406  0.005
N  N55  1  0.54904794  0.84958199  0.32208377  1  -0.099151  -0.006884  2.966834  -0.008  -0.083498  -0.003377  3.268377  -0.004  -0.083041  -0.001991  3.27919  -0.003  -0.100237  -0.081925  -0.004621  3.259389  -0.005
N  N56  1  0.45706449  0.23616288  0.59254244  1  -0.285579  0.004866  3.185238  0.004  -0.253682  0.000382  3.505377  -0.001  -0.27286  0.000499  3.518795  -0.001  -0.252058  -0.240321  0.000587  3.49551  -0.001
N  N57  1  0.54293488  0.73616292  0.40745446  1  -0.285657  -0.004862  3.185267  -0.004  -0.253761  -0.000385  3.505423  0.001  -0.272941  -0.000491  3.518844  0.001  -0.252127  -0.240408  -0.000588  3.495562  0.001
N  N58  1  0.90764446  0.62256190  0.53619972  1  -0.257731  0.091404  3.316559  0.112  -0.226248  0.061661  3.647364  0.08  -0.255475  0.050362  3.668615  0.069  -0.269761  -0.209055  0.068392  3.63448  0.086
N  N59  1  0.09235814  0.12256005  0.46380098  1  -0.257634  -0.091395  3.316465  -0.112  -0.226164  -0.061664  3.64728  -0.08  -0.255388  -0.050366  3.668528  -0.069  -0.269731  -0.208965  -0.068396  3.634398  -0.086
N  N60  1  0.89648631  0.75424071  0.59276619  1  -0.114425  -0.002571  2.966048  -0.003  -0.098586  0.000755  3.272465  0.001  -0.097523  -9.5e-05  3.286437  -0.001  -0.109182  -0.099346  0.001249  3.26398  0.001
N  N61  1  0.10351297  0.25423915  0.40723894  1  -0.114517  0.002558  2.966045  0.003  -0.098671  -0.000752  3.272458  -0.001  -0.097608  9.1e-05  3.286429  0.001  -0.109229  -0.09943  -0.001248  3.263965  -0.001
N  N62  1  0.02275649  0.76219598  0.69030329  1  -0.1269  0.011992  2.985677  0.013  -0.123272  0.006214  3.310762  0.007  -0.125811  0.003682  3.321437  0.004  -0.113509  -0.121097  0.008413  3.30311  0.009
N  N63  1  0.97724276  0.26219511  0.30969992  1  -0.126913  -0.011985  2.985689  -0.013  -0.123275  -0.006216  3.310753  -0.007  -0.125816  -0.003679  3.32143  -0.004  -0.11349  -0.121098  -0.008413  3.303096  -0.009
N  N64  1  0.11834303  0.63702673  0.69926851  1  -0.289818  0.008918  2.974785  0.01  -0.26343  0.003633  3.270849  0.004  -0.273829  0.002537  3.283312  0.003  -0.240262  -0.255952  0.004575  3.261473  0.005
N  N65  1  0.88166088  0.13702385  0.30073038  1  -0.289796  -0.008912  2.974828  -0.01  -0.263402  -0.003634  3.270887  -0.004  -0.273801  -0.002536  3.283351  -0.003  -0.240232  -0.255922  -0.004575  3.261514  -0.005
