# generated using pymatgen
data_MnH16C24(NO2)2
_symmetry_space_group_name_H-M   'P 1'
_cell_length_a   9.71216063
_cell_length_b   16.16380033
_cell_length_c   19.62338695
_cell_angle_alpha   90.00003339
_cell_angle_beta   90.00017672
_cell_angle_gamma   91.40922893
_symmetry_Int_Tables_number   1
_chemical_formula_structural   MnH16C24(NO2)2
_chemical_formula_sum   'Mn4 H64 C96 N8 O16'
_cell_volume   3079.65399507
_cell_formula_units_Z   4
loop_
 _symmetry_equiv_pos_site_id
 _symmetry_equiv_pos_as_xyz
  1  'x, y, z'
loop_
 _atom_site_type_symbol
 _atom_site_label
 _atom_site_symmetry_multiplicity
 _atom_site_fract_x
 _atom_site_fract_y
 _atom_site_fract_z
 _atom_site_occupancy
 _atom_site_pbe_bader_charge
 _atom_site_pbe_bader_spin_density
 _atom_site_pbe_cm5_charge
 _atom_site_pbe_ddec_charge
 _atom_site_pbe_ddec_spin_density
 _atom_site_pbe_ddec_sum_bond_order
 _atom_site_pbe_magmom
Mn  Mn0  1  0.49997102  0.49999486  0.99999692  1  1.53426  4.499386  0.610292  0.938156  4.634095  2.447682  4.436
Mn  Mn1  1  0.50001385  0.00000180  0.50000479  1  1.533965  4.499465  0.610299  0.938128  4.634119  2.447675  4.436
Mn  Mn2  1  0.00000744  0.99999641  0.49999575  1  1.540163  4.514087  0.617072  0.953736  4.648055  2.405377  4.448
Mn  Mn3  1  0.99998290  0.50001086  0.00000571  1  1.53983  4.514127  0.617043  0.953687  4.648027  2.405583  4.448
H  H4  1  0.81990810  0.92874274  0.70478588  1  0.087561  0.000283  0.108934  0.114435  -3.4e-05  0.987612  0.0
H  H5  1  0.75659295  0.84000301  0.80393231  1  0.041563  0.000184  0.102181  0.101038  9.2e-05  1.004463  0.0
H  H6  1  0.53243337  0.67374688  0.66933148  1  0.096948  0.000203  0.102846  0.102051  0.000112  1.000684  0.0
H  H7  1  0.58704172  0.76770147  0.57221783  1  0.071349  0.00029  0.106044  0.106898  -6.2e-05  0.998992  0.0
H  H8  1  0.56124241  0.68855200  0.97440932  1  0.093766  0.001415  0.124168  0.093186  0.000642  0.986988  0.0
H  H9  1  0.60751944  0.78893216  0.88004493  1  0.055374  0.000792  0.108811  0.115175  0.000448  0.996519  0.0
H  H10  1  0.60418225  0.58015532  0.74202437  1  0.086961  0.000754  0.10877  0.115316  0.000425  0.998483  0.0
H  H11  1  0.54799977  0.49039340  0.84186844  1  0.078485  0.001282  0.118866  0.084508  0.000674  1.028287  0.001
H  H12  1  0.40142063  0.37657304  0.81441943  1  0.080937  0.000307  0.097454  0.097362  -8.3e-05  1.035307  0.0
H  H13  1  0.34121853  0.28745628  0.71498138  1  0.05714  0.000109  0.093526  0.092459  4.6e-05  1.030335  0.0
H  H14  1  0.95135744  0.22368021  0.80927544  1  0.067805  0.000143  0.096303  0.096856  7.2e-05  1.019096  0.0
H  H15  1  0.01179786  0.31688309  0.90661727  1  0.11184  -6.1e-05  0.105703  0.111872  -0.000579  1.018504  0.0
H  H16  1  0.26272200  0.06588670  0.58227584  1  0.152492  0.00087  0.118411  0.087971  0.000325  1.065119  0.0
H  H17  1  0.32157914  0.15453164  0.68181224  1  0.05353  0.00056  0.096047  0.097481  0.000222  1.058615  0.0
H  H18  1  0.89053577  0.21201296  0.69558859  1  0.071344  0.00058  0.094744  0.095997  0.000322  1.073986  0.0
H  H19  1  0.84975782  0.11801299  0.59598800  1  0.10965  0.001182  0.113655  0.083475  0.000317  1.033158  0.0
H  H20  1  0.18009399  0.57125954  0.20478652  1  0.087386  0.000283  0.108935  0.114464  -3.4e-05  0.987574  0.0
H  H21  1  0.24340720  0.66000560  0.30393155  1  0.041599  0.000184  0.102178  0.101043  9.2e-05  1.00453  0.0
H  H22  1  0.46755837  0.82625740  0.16932961  1  0.096779  0.000203  0.102783  0.101917  0.000112  1.000742  0.0
H  H23  1  0.41295022  0.73230023  0.07221787  1  0.071328  0.00029  0.106027  0.106885  -6.2e-05  0.999042  0.0
H  H24  1  0.43875892  0.81144561  0.47440994  1  0.093697  0.001415  0.124207  0.093227  0.000642  0.986921  0.0
H  H25  1  0.39247712  0.71106481  0.38005054  1  0.055556  0.000792  0.108792  0.115174  0.000448  0.996386  0.0
H  H26  1  0.39580829  0.91984162  0.24202701  1  0.087041  0.000754  0.108776  0.115311  0.000425  0.998436  0.0
H  H27  1  0.45199813  0.00961020  0.34186742  1  0.078511  0.001281  0.118834  0.084472  0.000673  1.028305  0.001
H  H28  1  0.59857720  0.12343178  0.31442072  1  0.076341  0.000309  0.097486  0.09744  -8.3e-05  1.035264  0.0
H  H29  1  0.65878397  0.21255023  0.21498280  1  0.05702  0.000109  0.093543  0.092499  4.6e-05  1.030336  0.0
H  H30  1  0.04864015  0.27632213  0.30927545  1  0.067728  0.000143  0.096332  0.096881  7.2e-05  1.019168  0.0
H  H31  1  0.98820472  0.18312236  0.40662019  1  0.111783  -6e-05  0.105698  0.11193  -0.000579  1.018504  0.0
H  H32  1  0.73728016  0.43411349  0.08227900  1  0.152527  0.00087  0.118448  0.088026  0.000325  1.0651  0.0
H  H33  1  0.67842386  0.34547111  0.18181527  1  0.053551  0.00056  0.096033  0.097474  0.000222  1.05866  0.0
H  H34  1  0.10946233  0.28799174  0.19559176  1  0.071242  0.00058  0.094728  0.096006  0.000322  1.073934  0.0
H  H35  1  0.15024870  0.38198900  0.09598974  1  0.109557  0.001183  0.113646  0.083412  0.000317  1.033147  0.0
H  H36  1  0.18009386  0.07126077  0.29521321  1  0.087414  0.000283  0.108952  0.114493  -3.4e-05  0.98762  0.0
H  H37  1  0.24340633  0.16000550  0.19606729  1  0.041613  0.000184  0.102155  0.10103  9.2e-05  1.004487  0.0
H  H38  1  0.46756751  0.32625603  0.33066964  1  0.096893  0.000203  0.10283  0.102003  0.000112  1.000672  0.0
H  H39  1  0.41296332  0.23230199  0.42778227  1  0.071287  0.00029  0.106011  0.106876  -6.2e-05  0.998974  0.0
H  H40  1  0.43875095  0.31144731  0.02559027  1  0.093714  0.001415  0.12419  0.093163  0.000643  0.986979  0.0
H  H41  1  0.39247906  0.21106707  0.11995211  1  0.05535  0.000792  0.108803  0.115176  0.000448  0.99645  0.0
H  H42  1  0.39582052  0.41984570  0.25797522  1  0.086952  0.000754  0.108737  0.115274  0.000425  0.998451  0.0
H  H43  1  0.45199936  0.50961325  0.15813064  1  0.078424  0.001282  0.118845  0.08445  0.000674  1.028355  0.001
H  H44  1  0.59857650  0.62343426  0.18557762  1  0.076305  0.000309  0.097474  0.097384  -8.3e-05  1.035399  0.0
H  H45  1  0.65878894  0.71255148  0.28501974  1  0.056966  0.00011  0.093538  0.092521  4.6e-05  1.030293  0.0
H  H46  1  0.04863859  0.77631411  0.19072925  1  0.068022  0.000143  0.096297  0.096855  7.2e-05  1.01907  0.0
H  H47  1  0.98820189  0.68311859  0.09338283  1  0.111824  -6.1e-05  0.105698  0.111877  -0.000579  1.018506  0.0
H  H48  1  0.73728155  0.93411121  0.41772018  1  0.152588  0.00087  0.118456  0.088038  0.000325  1.065074  0.0
H  H49  1  0.67842570  0.84546935  0.31818837  1  0.053599  0.00056  0.096061  0.097527  0.000222  1.058624  0.0
H  H50  1  0.10945533  0.78798391  0.30440998  1  0.071301  0.00058  0.094749  0.095983  0.000322  1.073999  0.0
H  H51  1  0.15025174  0.88198297  0.40401007  1  0.109588  0.001183  0.113629  0.08344  0.000317  1.033204  0.0
H  H52  1  0.81990306  0.42873475  0.79521512  1  0.087455  0.000283  0.108971  0.114482  -3.4e-05  0.987611  0.0
H  H53  1  0.75659043  0.33999550  0.69606703  1  0.041605  0.000184  0.102171  0.101046  9.2e-05  1.004457  0.0
H  H54  1  0.53242507  0.17374640  0.83066846  1  0.09691  0.000203  0.102838  0.102024  0.000112  1.000635  0.0
H  H55  1  0.58703486  0.26769859  0.92777867  1  0.071349  0.00029  0.106069  0.106946  -6.2e-05  0.998981  0.0
H  H56  1  0.56124549  0.18855043  0.52558965  1  0.093652  0.001415  0.124184  0.09315  0.000643  0.986973  0.0
H  H57  1  0.60752112  0.28893132  0.61995007  1  0.055383  0.000792  0.108809  0.115209  0.000448  0.99645  0.0
H  H58  1  0.60418650  0.08015024  0.75797411  1  0.086937  0.000754  0.108731  0.115252  0.000425  0.998429  0.0
H  H59  1  0.54800033  0.99038841  0.65812962  1  0.078442  0.001282  0.118818  0.084398  0.000674  1.028385  0.001
H  H60  1  0.40142557  0.87656924  0.68557531  1  0.080913  0.000307  0.097477  0.097357  -8.3e-05  1.03531  0.0
H  H61  1  0.34121907  0.78745389  0.78501832  1  0.057128  0.00011  0.093508  0.092416  4.6e-05  1.030331  0.0
H  H62  1  0.95136191  0.72368262  0.69072618  1  0.06787  0.000143  0.096283  0.096806  7.2e-05  1.019196  0.0
H  H63  1  0.01180649  0.81688101  0.59337940  1  0.111867  -6e-05  0.105727  0.111923  -0.000579  1.018453  0.0
H  H64  1  0.26271618  0.56588454  0.91772059  1  0.152473  0.00087  0.118441  0.088028  0.000325  1.065127  0.0
H  H65  1  0.32157767  0.65452745  0.81818942  1  0.05355  0.00056  0.096065  0.097521  0.000222  1.058627  0.0
H  H66  1  0.89054173  0.71201236  0.80441293  1  0.071336  0.00058  0.094739  0.09601  0.000322  1.073996  0.0
H  H67  1  0.84974899  0.61801272  0.90401036  1  0.109624  0.001183  0.113617  0.083394  0.000317  1.033196  0.0
C  C68  1  0.74466003  0.90763374  0.57244577  1  1.585048  0.028612  0.221202  0.581846  0.027096  4.200066  0.024
C  C69  1  0.70674128  0.85371716  0.63248939  1  -0.058347  0.004243  -0.007674  -0.02247  0.002371  3.952738  0.002
C  C70  1  0.75386332  0.87378237  0.69810960  1  -0.003127  0.004339  -0.082294  -0.095684  0.003198  3.99165  0.003
C  C71  1  0.71851189  0.82353394  0.75328352  1  -0.049001  0.001029  -0.091534  -0.13635  0.000829  3.994923  0.0
C  C72  1  0.64117314  0.74951274  0.74391758  1  0.017154  0.004199  -0.014211  0.041821  0.0033  4.014805  0.002
C  C73  1  0.59609907  0.72934204  0.67765070  1  -0.120866  0.000921  -0.087117  -0.125802  0.000713  3.987718  0.0
C  C74  1  0.62600039  0.78165339  0.62309950  1  -0.024548  0.003948  -0.079839  -0.084444  0.002832  3.977681  0.002
C  C75  1  0.57080313  0.66768576  0.92177825  1  0.527401  0.007115  0.05992  0.10808  0.005324  3.944298  0.004
C  C76  1  0.59782750  0.72298694  0.86890973  1  0.018814  0.000919  -0.084645  -0.18983  0.000427  3.955283  0.0
C  C77  1  0.61017376  0.69370947  0.80167720  1  -0.113666  0.006285  0.011353  0.10531  0.004741  4.0031  0.004
C  C78  1  0.59300973  0.60777386  0.79231538  1  0.012534  0.000975  -0.083633  -0.184658  0.000477  3.949971  0.0
C  C79  1  0.56412830  0.55696098  0.84787202  1  0.472857  0.007017  0.055737  0.100725  0.005308  3.946707  0.004
C  C80  1  0.24967450  0.40349402  0.92774583  1  1.558491  0.02728  0.218239  0.583131  0.025718  4.19818  0.023
C  C81  1  0.21075173  0.35134821  0.86696933  1  0.037271  0.002703  -0.019345  -0.040171  0.001418  3.965799  0.001
C  C82  1  0.30271965  0.34319910  0.81242428  1  -0.064202  0.005107  -0.089645  -0.088631  0.003697  3.999218  0.003
C  C83  1  0.26919234  0.29252903  0.75735729  1  -0.092405  -0.00031  -0.098135  -0.139434  -0.000435  3.994174  0.0
C  C84  1  0.14273538  0.24817478  0.75526632  1  0.000656  0.004491  -0.011251  0.059955  0.003555  4.002169  0.003
C  C85  1  0.04987766  0.25763885  0.80959785  1  -0.071979  0.000507  -0.09318  -0.130621  0.00039  3.97523  0.0
C  C86  1  0.08342434  0.30869578  0.86461132  1  -0.032813  0.004247  -0.082746  -0.080727  0.002998  3.970193  0.003
C  C87  1  0.18299445  0.09859369  0.60935776  1  0.487085  0.006775  0.047606  0.101365  0.005069  3.93314  0.004
C  C88  1  0.21522445  0.14950047  0.66438092  1  -0.092697  0.000772  -0.092715  -0.183277  0.000101  3.951756  0.0
C  C89  1  0.11090074  0.19257113  0.69753669  1  -0.040144  0.005483  0.008334  0.113575  0.004161  3.9962  0.003
C  C90  1  0.97628411  0.18004146  0.67265479  1  0.041144  0.000339  -0.095722  -0.194764  -9e-05  3.962634  0.0
C  C91  1  0.95252236  0.12810871  0.61722498  1  0.422485  0.006726  0.047075  0.101248  0.004876  3.94711  0.004
C  C92  1  0.25533690  0.59236602  0.07244500  1  1.585037  0.028628  0.221147  0.581646  0.027113  4.200127  0.024
C  C93  1  0.29326528  0.64628250  0.13248564  1  -0.058103  0.004244  -0.007555  -0.022164  0.002372  3.952837  0.002
C  C94  1  0.24614567  0.62621671  0.19810628  1  -0.002875  0.004342  -0.082376  -0.095877  0.0032  3.991701  0.003
C  C95  1  0.28148932  0.67646655  0.25328232  1  -0.049347  0.001029  -0.091596  -0.136462  0.000829  3.99519  0.0
C  C96  1  0.35881886  0.75048913  0.24391959  1  0.017263  0.004201  -0.014151  0.041922  0.003302  4.014677  0.002
C  C97  1  0.40389832  0.77065534  0.17764972  1  -0.12082  0.000921  -0.087026  -0.125607  0.000713  3.987546  0.0
C  C98  1  0.37400385  0.71834383  0.12309794  1  -0.02455  0.00395  -0.079843  -0.08453  0.002833  3.977942  0.002
C  C99  1  0.42920192  0.83231112  0.42177682  1  0.527349  0.007116  0.059926  0.108034  0.005324  3.944372  0.004
C  C100  1  0.40217620  0.77700991  0.36890926  1  0.018883  0.000919  -0.084676  -0.189794  0.000428  3.955196  0.0
C  C101  1  0.38982581  0.80629234  0.30168029  1  -0.114007  0.006285  0.011421  0.105345  0.004741  4.003087  0.004
C  C102  1  0.40699261  0.89222479  0.29231701  1  0.012689  0.000976  -0.08368  -0.184755  0.000477  3.949967  0.0
C  C103  1  0.43587270  0.94304208  0.34787371  1  0.472844  0.007018  0.055819  0.100953  0.005308  3.946327  0.004
C  C104  1  0.75031838  0.09650479  0.42774581  1  1.557813  0.027288  0.218276  0.583232  0.025724  4.197932  0.023
C  C105  1  0.78925429  0.14865219  0.36697296  1  0.037431  0.002705  -0.019444  -0.040283  0.00142  3.965703  0.001
C  C106  1  0.69728315  0.15680377  0.31242828  1  -0.059626  0.005106  -0.08969  -0.088751  0.003698  3.999515  0.003
C  C107  1  0.73080681  0.20747137  0.25735984  1  -0.092478  -0.00031  -0.098164  -0.139517  -0.000436  3.994385  0.0
C  C108  1  0.85725959  0.25182507  0.25526907  1  0.001102  0.004492  -0.011271  0.059967  0.003555  4.002245  0.003
C  C109  1  0.95012214  0.24236531  0.30959564  1  0.002031  0.000474  -0.093196  -0.13063  0.00039  3.975411  0.0
C  C110  1  0.91658209  0.19130957  0.36461057  1  -0.106857  0.004281  -0.082621  -0.080677  0.002999  3.969879  0.003
C  C111  1  0.81700767  0.40140405  0.10935695  1  0.487189  0.006776  0.047587  0.101363  0.005071  3.933249  0.004
C  C112  1  0.78477655  0.35050415  0.16438259  1  -0.068913  0.000768  -0.092693  -0.183382  0.0001  3.951792  0.0
C  C113  1  0.88910025  0.30743105  0.19754054  1  -0.06455  0.00549  0.008297  0.113703  0.004163  3.99608  0.003
C  C114  1  0.02371580  0.31996195  0.17265326  1  0.041416  0.000339  -0.095679  -0.19486  -9e-05  3.962454  0.0
C  C115  1  0.04747920  0.37189399  0.11722198  1  0.422776  0.006728  0.047107  0.101381  0.004878  3.946929  0.004
C  C116  1  0.25533729  0.09236365  0.42755484  1  1.58496  0.028609  0.221225  0.581756  0.027092  4.20048  0.024
C  C117  1  0.29326550  0.14628255  0.36751326  1  -0.058234  0.004244  -0.007572  -0.022256  0.002372  3.952686  0.002
C  C118  1  0.24614141  0.12621738  0.30189152  1  -0.002655  0.004339  -0.08237  -0.095836  0.003198  3.991646  0.003
C  C119  1  0.28149114  0.17647017  0.24671811  1  -0.049386  0.00103  -0.091557  -0.13646  0.00083  3.995095  0.0
C  C120  1  0.35882378  0.25049210  0.25608252  1  0.017259  0.004199  -0.014231  0.041888  0.0033  4.014655  0.002
C  C121  1  0.40390366  0.27065836  0.32235246  1  -0.12077  0.000921  -0.087032  -0.125693  0.000714  3.987443  0.0
C  C122  1  0.37400515  0.21834387  0.37690265  1  -0.024571  0.003948  -0.079829  -0.084474  0.002831  3.977599  0.002
C  C123  1  0.42919234  0.33231414  0.07822237  1  0.52747  0.007119  0.059959  0.108267  0.005328  3.944188  0.004
C  C124  1  0.40217296  0.27701103  0.13109037  1  0.019247  0.000918  -0.084626  -0.189803  0.000426  3.95513  0.0
C  C125  1  0.38983025  0.30629401  0.19832137  1  -0.114112  0.006289  0.011357  0.105317  0.004743  4.003023  0.004
C  C126  1  0.40699403  0.39222653  0.20768370  1  0.012104  0.000974  -0.083665  -0.184738  0.000475  3.950008  0.0
C  C127  1  0.43587273  0.44304378  0.15212911  1  0.473224  0.007024  0.05584  0.100999  0.005313  3.946457  0.004
C  C128  1  0.75031237  0.59650168  0.07225326  1  1.55819  0.027295  0.218157  0.582862  0.025734  4.19817  0.023
C  C129  1  0.78923957  0.64865113  0.13302874  1  0.037402  0.002707  -0.01938  -0.040262  0.001422  3.965955  0.001
C  C130  1  0.69727808  0.65680324  0.18757430  1  -0.059472  0.005106  -0.089638  -0.088564  0.003698  3.999619  0.003
C  C131  1  0.73080647  0.70747391  0.24263975  1  -0.092379  -0.000309  -0.098202  -0.139611  -0.000435  3.994252  0.0
C  C132  1  0.85726919  0.75182311  0.24473124  1  0.000562  0.004492  -0.011268  0.059998  0.003555  4.0021  0.003
C  C133  1  0.95012053  0.74235667  0.19040124  1  -0.072207  0.000508  -0.093194  -0.130646  0.000391  3.975356  0.0
C  C134  1  0.91657200  0.69130224  0.13538674  1  -0.032714  0.004248  -0.082678  -0.080642  0.002999  3.970047  0.003
C  C135  1  0.81701228  0.90140541  0.39064132  1  0.487287  0.006781  0.047564  0.101355  0.005075  3.933045  0.004
C  C136  1  0.78478023  0.85049866  0.33561715  1  -0.093205  0.000772  -0.092731  -0.183409  0.0001  3.951908  0.0
C  C137  1  0.88909977  0.80742745  0.30246086  1  -0.039837  0.005488  0.008362  0.113635  0.004165  3.996076  0.003
C  C138  1  0.02371428  0.81995653  0.32734379  1  0.041112  0.000338  -0.095783  -0.194747  -9.1e-05  3.962794  0.0
C  C139  1  0.04748313  0.87188793  0.38277359  1  0.422454  0.006731  0.047092  0.101202  0.004881  3.94722  0.004
C  C140  1  0.74466187  0.40763631  0.92755510  1  1.585347  0.028608  0.221236  0.581806  0.027093  4.200041  0.024
C  C141  1  0.70673646  0.35371853  0.86751344  1  -0.057974  0.004246  -0.007589  -0.022149  0.002374  3.952716  0.002
C  C142  1  0.75385278  0.37378190  0.80189178  1  -0.002431  0.004339  -0.082413  -0.095878  0.003198  3.991611  0.003
C  C143  1  0.71850887  0.32352897  0.74671727  1  -0.049879  0.001032  -0.091562  -0.136475  0.000831  3.994995  0.0
C  C144  1  0.64117917  0.24950453  0.75608103  1  0.017465  0.004199  -0.014233  0.041851  0.0033  4.014612  0.002
C  C145  1  0.59609602  0.22934334  0.82235191  1  -0.120953  0.000923  -0.087001  -0.125642  0.000715  3.987529  0.0
C  C146  1  0.62598993  0.28166043  0.87690063  1  -0.024662  0.003947  -0.079925  -0.084682  0.002831  3.977883  0.002
C  C147  1  0.57080558  0.16768487  0.57822277  1  0.527522  0.007123  0.059925  0.10821  0.005331  3.944212  0.004
C  C148  1  0.59782729  0.22298738  0.63109033  1  0.019275  0.000917  -0.084596  -0.189835  0.000425  3.955163  0.0
C  C149  1  0.61017243  0.19370380  0.69832032  1  -0.114154  0.006293  0.011362  0.10542  0.004747  4.002949  0.004
C  C150  1  0.59300579  0.10777320  0.70768411  1  0.012187  0.000973  -0.083658  -0.184762  0.000474  3.949972  0.0
C  C151  1  0.56412678  0.05695651  0.65212894  1  0.473125  0.007028  0.055882  0.101058  0.005316  3.946396  0.004
C  C152  1  0.24968424  0.90349437  0.57225430  1  1.557775  0.02729  0.218182  0.582816  0.025728  4.198119  0.023
C  C153  1  0.21075326  0.85134442  0.63302766  1  0.037467  0.002705  -0.019353  -0.040167  0.001421  3.965891  0.001
C  C154  1  0.30272071  0.84319785  0.68757183  1  -0.064299  0.005107  -0.089669  -0.08861  0.003697  3.999486  0.003
C  C155  1  0.26919725  0.79253272  0.74264078  1  -0.092601  -0.00031  -0.098158  -0.139475  -0.000435  3.994179  0.0
C  C156  1  0.14274210  0.74817535  0.74473103  1  0.001177  0.004491  -0.011245  0.05997  0.003555  4.002042  0.003
C  C157  1  0.04987889  0.75763945  0.69040446  1  -0.072297  0.000506  -0.093169  -0.130535  0.00039  3.975355  0.0
C  C158  1  0.08342084  0.80869331  0.63538902  1  -0.03274  0.004248  -0.082719  -0.080744  0.002999  3.970062  0.003
C  C159  1  0.18298965  0.59859334  0.89064264  1  0.487285  0.006777  0.047624  0.101343  0.005071  3.933055  0.004
C  C160  1  0.21522428  0.64949814  0.83561905  1  -0.068901  0.000768  -0.092779  -0.183471  0.000101  3.951685  0.0
C  C161  1  0.11090247  0.69256936  0.80246007  1  -0.064216  0.005488  0.008355  0.113737  0.004162  3.99597  0.003
C  C162  1  0.97628508  0.68004096  0.82734736  1  0.041028  0.000339  -0.095758  -0.194847  -9e-05  3.962501  0.0
C  C163  1  0.95252270  0.62810890  0.88277863  1  0.422689  0.006726  0.047155  0.101284  0.004877  3.947056  0.004
N  N164  1  0.55363089  0.58576443  0.91189664  1  -1.24934  0.049882  -0.309902  -0.229983  0.034482  3.466394  0.018
N  N165  1  0.05391139  0.08791251  0.58539697  1  -1.236121  0.047102  -0.314568  -0.235126  0.031604  3.459679  0.015
N  N166  1  0.44637220  0.91423433  0.41190088  1  -1.249334  0.049879  -0.309967  -0.230158  0.034484  3.466359  0.018
N  N167  1  0.94608565  0.41208776  0.08539890  1  -1.236102  0.047094  -0.31463  -0.235155  0.031609  3.459885  0.015
N  N168  1  0.44636885  0.41423726  0.08810142  1  -1.249341  0.049903  -0.30996  -0.230298  0.034489  3.466467  0.018
N  N169  1  0.94609941  0.91208591  0.41460161  1  -1.235914  0.047083  -0.31448  -0.235046  0.031605  3.459626  0.015
N  N170  1  0.55363216  0.08576109  0.58809922  1  -1.249303  0.049891  -0.309989  -0.230237  0.034488  3.466356  0.018
N  N171  1  0.05390740  0.58790784  0.91460069  1  -1.236112  0.047081  -0.314581  -0.235052  0.031611  3.459774  0.015
O  O172  1  0.86304984  0.94240046  0.57455152  1  -1.188027  0.068132  -0.30015  -0.552248  0.049482  2.338247  0.035
O  O173  1  0.65679997  0.91278527  0.52454877  1  -1.193801  0.056346  -0.313073  -0.574318  0.039532  2.361523  0.022
O  O174  1  0.37393081  0.43146964  0.92942505  1  -1.198443  0.072792  -0.315866  -0.577929  0.052979  2.367385  0.039
O  O175  1  0.15987622  0.41517633  0.97357119  1  -1.205333  0.056316  -0.312371  -0.572619  0.039783  2.354909  0.022
O  O176  1  0.13695111  0.55759801  0.07454393  1  -1.188068  0.068148  -0.300077  -0.552136  0.049491  2.338511  0.035
O  O177  1  0.34320601  0.58721554  0.02454915  1  -1.193749  0.056353  -0.313141  -0.57431  0.039539  2.361379  0.022
O  O178  1  0.62606403  0.06852790  0.42942585  1  -1.197849  0.072783  -0.315857  -0.577986  0.052977  2.367197  0.039
O  O179  1  0.84012647  0.08482547  0.47356977  1  -1.205302  0.056336  -0.312379  -0.572614  0.039789  2.354857  0.022
O  O180  1  0.13695782  0.05759739  0.42545317  1  -1.188062  0.068146  -0.300178  -0.552186  0.049485  2.338881  0.035
O  O181  1  0.34320718  0.08721877  0.47545490  1  -1.193735  0.056323  -0.313139  -0.574405  0.039531  2.361264  0.022
O  O182  1  0.62606208  0.56852410  0.07056894  1  -1.198406  0.072818  -0.315708  -0.57776  0.052974  2.367141  0.039
O  O183  1  0.84012706  0.58481849  0.02643350  1  -1.205201  0.056334  -0.31241  -0.572441  0.039811  2.355239  0.022
O  O184  1  0.86304565  0.44240497  0.92545719  1  -1.18805  0.06813  -0.300103  -0.552161  0.049481  2.338321  0.035
O  O185  1  0.65678328  0.41278446  0.97544840  1  -1.194051  0.056325  -0.313154  -0.574433  0.039529  2.361379  0.022
O  O186  1  0.37393869  0.93147250  0.57057579  1  -1.197789  0.07278  -0.315782  -0.577779  0.052969  2.367041  0.039
O  O187  1  0.15986715  0.91517694  0.52643441  1  -1.205321  0.056353  -0.312418  -0.572429  0.039805  2.355034  0.022
