# generated using pymatgen
data_AlH15(C5O3)6
_symmetry_space_group_name_H-M   'P 1'
_cell_length_a   4.08402715
_cell_length_b   28.89857656
_cell_length_c   28.89856911
_cell_angle_alpha   119.99999786
_cell_angle_beta   90.00021666
_cell_angle_gamma   89.99962569
_symmetry_Int_Tables_number   1
_chemical_formula_structural   AlH15(C5O3)6
_chemical_formula_sum   'Al2 H30 C60 O36'
_cell_volume   2953.73855606
_cell_formula_units_Z   2
loop_
 _symmetry_equiv_pos_site_id
 _symmetry_equiv_pos_as_xyz
  1  'x, y, z'
loop_
 _atom_site_type_symbol
 _atom_site_label
 _atom_site_symmetry_multiplicity
 _atom_site_fract_x
 _atom_site_fract_y
 _atom_site_fract_z
 _atom_site_occupancy
 _atom_site_pbe_bader_charge
 _atom_site_pbe_bader_spin_density
 _atom_site_pbe_cm5_charge
 _atom_site_pbe_ddec_charge
 _atom_site_pbe_ddec_spin_density
 _atom_site_pbe_ddec_sum_bond_order
 _atom_site_pbe_magmom
Al  Al0  1  0.99874213  0.50000077  0.49999975  1  2.509781  0  0.442659  1.613834  0  2.495299  0
Al  Al1  1  0.99873700  0.16666750  0.83333320  1  2.509694  0  0.442653  1.614242  0  2.494663  0
H  H2  1  0.53163773  0.23073213  0.64426874  1  0.121156  0  0.119339  0.12576  0  0.984473  0
H  H3  1  0.47037581  0.37563822  0.79817673  1  0.149437  0  0.122163  0.131025  0  0.969537  0
H  H4  1  0.47038165  0.29100398  0.53511764  1  0.148553  0  0.122192  0.131015  0  0.969731  0
H  H5  1  0.53162137  0.43590108  0.68903388  1  0.121629  0  0.119341  0.125499  0  0.984664  0
H  H6  1  0.49717412  0.38487470  0.72164070  1  0.059616  0  0.110247  0.110787  0  0.988845  0
H  H7  1  0.49717015  0.28175825  0.61165044  1  0.058433  0  0.110274  0.110795  0  0.988767  0
H  H8  1  0.53163106  0.91353893  0.76926776  1  0.118621  0  0.119327  0.125738  0  0.984452  0
H  H9  1  0.47040017  0.92254011  0.62436089  1  0.082826  0  0.122168  0.131014  0  0.969599  0
H  H10  1  0.47039068  0.74411581  0.70899516  1  0.082333  0  0.122159  0.130995  0  0.969724  0
H  H11  1  0.53160266  0.75313523  0.56409700  1  0.119232  0  0.11935  0.125524  0  0.984588  0
H  H12  1  0.49717951  0.83676786  0.61512430  1  0.050115  0  0.110244  0.110772  0  0.988877  0
H  H13  1  0.49716877  0.82989350  0.71824081  1  0.050179  0  0.110255  0.110784  0  0.988753  0
H  H14  1  0.53164224  0.35573058  0.08646259  1  0.114004  0  0.119344  0.125777  0  0.984465  0
H  H15  1  0.47037769  0.20182276  0.07746002  1  0.090623  0  0.122158  0.131016  0  0.969558  0
H  H16  1  0.47038134  0.46488367  0.25588523  1  0.092172  0  0.122244  0.131087  0  0.969579  0
H  H17  1  0.53161843  0.31096545  0.24686393  1  0.11535  0  0.119372  0.125568  0  0.984612  0
H  H18  1  0.49717904  0.27835972  0.16323347  1  0.059502  0  0.110233  0.11076  0  0.988886  0
H  H19  1  0.49717660  0.38834954  0.17010545  1  0.057957  0  0.110252  0.110733  0  0.98888  0
H  H20  1  0.07363777  0.29020245  0.85556909  1  0.61164  0  0.320368  0.34761  0  0.929464  0
H  H21  1  0.92537911  0.16031709  0.71699588  1  0.613341  0  0.319917  0.347159  0  0.930609  0
H  H22  1  0.92540903  0.50633212  0.61632433  1  0.614921  0  0.319886  0.347033  0  0.930659  0
H  H23  1  0.07362104  0.37645982  0.47774496  1  0.610045  0  0.320191  0.347142  0  0.929706  0
H  H24  1  0.07363612  0.06536863  0.70979779  1  0.624957  0  0.320359  0.347615  0  0.92946  0
H  H25  1  0.92538799  0.05668051  0.83968260  1  0.613776  0  0.319936  0.347166  0  0.930354  0
H  H26  1  0.92538056  0.60999550  0.49366481  1  0.613031  0  0.319902  0.347082  0  0.930601  0
H  H27  1  0.07363249  0.60128883  0.62354183  1  0.620538  0  0.320211  0.347265  0  0.929542  0
H  H28  1  0.07363970  0.14443024  0.93463218  1  0.614855  0  0.320343  0.347606  0  0.929346  0
H  H29  1  0.92537926  0.28300518  0.94332090  1  0.622712  0  0.31993  0.347202  0  0.930552  0
H  H30  1  0.92539663  0.38367233  0.39000564  1  0.62248  0  0.319844  0.346902  0  0.930809  0
H  H31  1  0.07361911  0.52225468  0.39871251  1  0.616179  0  0.320221  0.347238  0  0.929529  0
C  C32  1  0.49868890  0.46244880  0.41631755  1  1.513789  0  0.272326  0.648833  0  4.078876  0
C  C33  1  0.49869313  0.45386999  0.53755109  1  1.572547  0  0.272327  0.64884  0  4.078919  0
C  C34  1  0.49869517  0.58368206  0.54612921  1  1.577119  0  0.27231  0.648822  0  4.078889  0
C  C35  1  0.49870450  0.21278518  0.79576628  1  1.57267  0  0.27228  0.64876  0  4.078916  0
C  C36  1  0.49870491  0.08298386  0.78721409  1  1.578271  0  0.272206  0.648549  0  4.079145  0
C  C37  1  0.49870628  0.20423401  0.91701786  1  1.512336  0  0.272286  0.648732  0  4.078932  0
C  C38  1  0.49862258  0.24587041  0.76874777  1  -0.075007  0  -0.019353  -0.120678  0  3.957698  0
C  C39  1  0.52323291  0.22149307  0.71254188  1  -0.01556  0  -0.014912  -0.072536  0  4.020103  0
C  C40  1  0.51743858  0.25222691  0.68775226  1  -0.04725  0  -0.066645  -0.11718  0  3.892069  0
C  C41  1  0.49951665  0.30824136  0.71733235  1  0.004561  0  -0.002083  0.120788  0  4.044115  0
C  C42  1  0.48191411  0.33223967  0.77315322  1  -0.030305  0  -0.065859  -0.123059  0  3.89674  0
C  C43  1  0.47491959  0.30207800  0.79868562  1  0.015  0  -0.013933  -0.069192  0  4.019275  0
C  C44  1  0.49941762  0.34196579  0.69312671  1  -0.083367  0  -0.080004  -0.119758  0  3.972738  0
C  C45  1  0.49941732  0.32466729  0.64016776  1  0.025862  0  -0.080474  -0.120392  0  3.972781  0
C  C46  1  0.48191127  0.33440354  0.56014498  1  -0.031378  0  -0.065763  -0.123225  0  3.896867  0
C  C47  1  0.49951662  0.35839736  0.61596617  1  0.00461  0  -0.002259  0.120828  0  4.044511  0
C  C48  1  0.51742452  0.41441058  0.64555024  1  -0.047317  0  -0.066538  -0.116616  0  3.892162  0
C  C49  1  0.52325352  0.44515125  0.62076625  1  -0.014226  0  -0.014864  -0.072517  0  4.019521  0
C  C50  1  0.49861100  0.42077820  0.56456023  1  -0.070894  0  -0.019361  -0.120889  0  3.957122  0
C  C51  1  0.47491959  0.36456947  0.53461802  1  0.010803  0  -0.013916  -0.069156  0  4.018324  0
C  C52  1  0.49862995  0.02288046  0.75412881  1  -0.006356  0  -0.019298  -0.120469  0  3.957637  0
C  C53  1  0.52324552  0.99105128  0.77850638  1  -0.055756  0  -0.014925  -0.072728  0  4.020378  0
C  C54  1  0.51743840  0.93552766  0.74777247  1  0.052418  0  -0.066705  -0.11716  0  3.892158  0
C  C55  1  0.49952458  0.90909343  0.69175765  1  -0.033926  0  -0.002089  0.120851  0  4.043766  0
C  C56  1  0.48193305  0.94091630  0.66775937  1  0.049308  0  -0.065733  -0.122881  0  3.896489  0
C  C57  1  0.47492928  0.99661078  0.69792172  1  -0.145024  0  -0.014013  -0.069417  0  4.019568  0
C  C58  1  0.49942262  0.85116308  0.65803365  1  -0.045966  0  -0.080035  -0.119842  0  3.97279  0
C  C59  1  0.49941632  0.81550270  0.67533189  1  0.020129  0  -0.080401  -0.120358  0  3.972838  0
C  C60  1  0.48192082  0.72574290  0.66559477  1  0.049395  0  -0.065718  -0.123106  0  3.896873  0
C  C61  1  0.49951760  0.75757060  0.64160134  1  -0.002561  0  -0.002292  0.120852  0  4.04438  0
C  C62  1  0.51741892  0.73114167  0.58558744  1  0.052055  0  -0.066498  -0.116581  0  3.891822  0
C  C63  1  0.52323757  0.67561752  0.55484782  1  -0.054112  0  -0.014933  -0.072627  0  4.019653  0
C  C64  1  0.49861832  0.64378414  0.57921995  1  -0.017817  0  -0.019393  -0.120899  0  3.957335  0
C  C65  1  0.47493350  0.67005033  0.63542913  1  -0.13536  0  -0.013988  -0.069398  0  4.018523  0
C  C66  1  0.49862075  0.23125164  0.97712149  1  -0.070905  0  -0.019295  -0.120559  0  3.957797  0
C  C67  1  0.52323687  0.28745770  0.00895043  1  0.095058  0  -0.014889  -0.072594  0  4.020311  0
C  C68  1  0.51744128  0.31224679  0.06447326  1  -0.068837  0  -0.066706  -0.117222  0  3.892188  0
C  C69  1  0.49951637  0.28266660  0.09090799  1  0.06005  0  -0.002165  0.120645  0  4.044026  0
C  C70  1  0.48192185  0.22684549  0.05908465  1  -0.058838  0  -0.065741  -0.122827  0  3.896557  0
C  C71  1  0.47492126  0.20131290  0.00338970  1  0.016733  0  -0.014047  -0.069424  0  4.019481  0
C  C72  1  0.49942597  0.30687361  0.14883792  1  -0.097664  0  -0.080002  -0.119749  0  3.972795  0
C  C73  1  0.49942523  0.35983240  0.18449734  1  0.042718  0  -0.080428  -0.120335  0  3.972867  0
C  C74  1  0.48191244  0.43985557  0.27425764  1  -0.06097  0  -0.065787  -0.12329  0  3.896763  0
C  C75  1  0.49952093  0.38403353  0.24242899  1  0.002543  0  -0.002156  0.121064  0  4.044412  0
C  C76  1  0.51743075  0.35444919  0.26885679  1  -0.066777  0  -0.066704  -0.116899  0  3.892113  0
C  C77  1  0.52324624  0.37923250  0.32438263  1  0.094457  0  -0.014906  -0.072559  0  4.019492  0
C  C78  1  0.49861282  0.43543807  0.35621602  1  -0.070444  0  -0.019395  -0.120895  0  3.957313  0
C  C79  1  0.47492194  0.46538044  0.32994925  1  0.015805  0  -0.013985  -0.069347  0  4.018561  0
C  C80  1  0.44990269  0.33291326  0.85850329  1  1.540797  0  0.228694  0.556591  0  4.13464  0
C  C81  1  0.55220520  0.16222454  0.67600290  1  1.536049  0  0.228263  0.557763  0  4.132599  0
C  C82  1  0.55220935  0.50441535  0.65730962  1  1.538853  0  0.228269  0.557397  0  4.132623  0
C  C83  1  0.44986826  0.33374218  0.47480070  1  1.541244  0  0.22884  0.556933  0  4.132885  0
C  C84  1  0.44989988  0.02559219  0.66708628  1  1.549288  0  0.228714  0.556642  0  4.134587  0
C  C85  1  0.55220338  0.01378215  0.83777475  1  1.581351  0  0.228328  0.557785  0  4.132416  0
C  C86  1  0.55217689  0.65289707  0.49558150  1  1.580333  0  0.22832  0.557474  0  4.132757  0
C  C87  1  0.44989311  0.64106179  0.66625861  1  1.547544  0  0.228805  0.556953  0  4.132852  0
C  C88  1  0.44990860  0.14149464  0.97440961  1  1.545403  0  0.228763  0.556632  0  4.134613  0
C  C89  1  0.55219576  0.32399758  0.98622067  1  1.585151  0  0.228282  0.55781  0  4.132487  0
C  C90  1  0.55218695  0.34268946  0.34710424  1  1.585839  0  0.22836  0.557569  0  4.132718  0
C  C91  1  0.44987704  0.52519896  0.35894134  1  1.544814  0  0.228905  0.557097  0  4.132762  0
O  O92  1  0.73595429  0.55837922  0.55234936  1  -1.256009  0  -0.233162  -0.598447  0  2.409434  0
O  O93  1  0.73594942  0.49397240  0.44162157  1  -1.256754  0  -0.233197  -0.59848  0  2.409436  0
O  O94  1  0.73595132  0.44765070  0.50602793  1  -1.256545  0  -0.233191  -0.598464  0  2.409456  0
O  O95  1  0.26167675  0.56113204  0.51345236  1  -1.262342  0  -0.233677  -0.599115  0  2.409828  0
O  O96  1  0.26168381  0.48654711  0.54767755  1  -1.259645  0  -0.233689  -0.599168  0  2.40995  0
O  O97  1  0.26167582  0.45232221  0.43886769  1  -1.260752  0  -0.233675  -0.599146  0  2.409881  0
O  O98  1  0.73594555  0.17270631  0.89171637  1  -1.254722  0  -0.233131  -0.598494  0  2.409281  0
O  O99  1  0.73594609  0.21901259  0.82729498  1  -1.255924  0  -0.233086  -0.5985  0  2.409332  0
O  O100  1  0.73595292  0.10828489  0.78098795  1  -1.257092  0  -0.23312  -0.598331  0  2.409228  0
O  O101  1  0.26168480  0.21435249  0.89446217  1  -1.261071  0  -0.23368  -0.599203  0  2.409873  0
O  O102  1  0.26167897  0.10553817  0.81988820  1  -1.262432  0  -0.2336  -0.599177  0  2.409984  0
O  O103  1  0.26168171  0.18011171  0.78564881  1  -1.25974  0  -0.23367  -0.5992  0  2.409807  0
O  O104  1  0.23908455  0.31374454  0.88101482  1  -1.101851  0  -0.319225  -0.433956  0  2.358905  0
O  O105  1  0.61648037  0.37223217  0.88508999  1  -1.074377  0  -0.24938  -0.3965  0  2.060435  0
O  O106  1  0.76316933  0.13618985  0.69122592  1  -1.101048  0  -0.319493  -0.43451  0  2.357868  0
O  O107  1  0.39011274  0.13901314  0.63553718  1  -1.069826  0  -0.250945  -0.39899  0  2.059966  0
O  O108  1  0.76318169  0.53045400  0.64209356  1  -1.104669  0  -0.319469  -0.434283  0  2.357562  0
O  O109  1  0.39011199  0.52762447  0.69777569  1  -1.069833  0  -0.250995  -0.398825  0  2.059865  0
O  O110  1  0.23906334  0.35291835  0.45229641  1  -1.10048  0  -0.319207  -0.433517  0  2.358333  0
O  O111  1  0.61644459  0.29442013  0.44820663  1  -1.074523  0  -0.249365  -0.396671  0  2.059404  0
O  O112  1  0.23908765  0.06727220  0.68625641  1  -1.118114  0  -0.319209  -0.433937  0  2.358967  0
O  O113  1  0.61647789  0.01286076  0.62776593  1  -1.079914  0  -0.249444  -0.396575  0  2.060267  0
O  O114  1  0.76317101  0.05503887  0.86380916  1  -1.100747  0  -0.319511  -0.434527  0  2.35768  0
O  O115  1  0.39010828  0.99652827  0.86098605  1  -1.080703  0  -0.250954  -0.398908  0  2.059795  0
O  O116  1  0.76315552  0.61164342  0.46954317  1  -1.098969  0  -0.31942  -0.43423  0  2.357534  0
O  O117  1  0.39007394  0.67015423  0.47237531  1  -1.080205  0  -0.251039  -0.398889  0  2.059997  0
O  O118  1  0.23907739  0.59938165  0.64708255  1  -1.114015  0  -0.3192  -0.433635  0  2.358361  0
O  O119  1  0.61646911  0.65379078  0.70557988  1  -1.07826  0  -0.249327  -0.396605  0  2.05931  0
O  O120  1  0.23908725  0.11898501  0.93272930  1  -1.105408  0  -0.319188  -0.433902  0  2.358743  0
O  O121  1  0.61649005  0.11490894  0.98714128  1  -1.077994  0  -0.249455  -0.396555  0  2.06047  0
O  O122  1  0.76316626  0.30877508  0.94496348  1  -1.111678  0  -0.319462  -0.434541  0  2.357812  0
O  O123  1  0.39009928  0.36446251  0.00347513  1  -1.087547  0  -0.250954  -0.398951  0  2.059843  0
O  O124  1  0.76315783  0.35790527  0.38835895  1  -1.111296  0  -0.319395  -0.434089  0  2.357734  0
O  O125  1  0.39007561  0.30222548  0.32984640  1  -1.088586  0  -0.251019  -0.398912  0  2.05989  0
O  O126  1  0.23906554  0.54770267  0.40062151  1  -1.107103  0  -0.319238  -0.43363  0  2.358184  0
O  O127  1  0.61645449  0.55179344  0.34621460  1  -1.077805  0  -0.249398  -0.396728  0  2.059552  0
