# generated using pymatgen
data_Cu3H32C16S4(Cl3O2)2
_symmetry_space_group_name_H-M   'P 1'
_cell_length_a   7.91130277
_cell_length_b   9.18893405
_cell_length_c   11.02048723
_cell_angle_alpha   69.10759546
_cell_angle_beta   73.66591712
_cell_angle_gamma   75.25949408
_symmetry_Int_Tables_number   1
_chemical_formula_structural   Cu3H32C16S4(Cl3O2)2
_chemical_formula_sum   'Cu3 H32 C16 S4 Cl6 O4'
_cell_volume   707.56973408
_cell_formula_units_Z   1
loop_
 _symmetry_equiv_pos_site_id
 _symmetry_equiv_pos_as_xyz
  1  'x, y, z'
loop_
 _atom_site_type_symbol
 _atom_site_label
 _atom_site_symmetry_multiplicity
 _atom_site_fract_x
 _atom_site_fract_y
 _atom_site_fract_z
 _atom_site_occupancy
 _atom_site_pbe_cm5_charge
 _atom_site_pbe_ddec_charge
 _atom_site_pbe_ddec_spin_density
 _atom_site_pbe_ddec_sum_bond_order
 _atom_site_pbe_magmom
Cu  Cu0  1  0.02075997  0.39115203  0.65733197  1  0.448818  0.649717  0.628397  2.507336  0.478
Cu  Cu1  1  0.97923338  0.60884262  0.34267855  1  0.448771  0.649665  0.6284  2.507443  0.478
Cu  Cu2  1  0.99999988  0.49999862  0.99999913  1  0.650806  0.914458  0.777006  2.19896  0.588
H  H3  1  0.65041828  0.21724307  0.14439014  1  0.097655  0.118036  0.000686  1.024729  0.0
H  H4  1  0.34958308  0.78275732  0.85560787  1  0.09765  0.118051  0.000686  1.02475  0.0
H  H5  1  0.41998530  0.30898365  0.16545909  1  0.096251  0.129975  0.000509  1.013314  0.0
H  H6  1  0.58001534  0.69102022  0.83453436  1  0.09627  0.129994  0.000509  1.01334  0.0
H  H7  1  0.59764052  0.08683984  0.37837992  1  0.087073  0.091853  0.000385  1.009465  0.0
H  H8  1  0.40235009  0.91315460  0.62161853  1  0.08707  0.09185  0.000384  1.009503  0.0
H  H9  1  0.37611240  0.19480388  0.39608575  1  0.081182  0.087914  -6.8e-05  1.030883  0.0
H  H10  1  0.62387638  0.80519999  0.60390925  1  0.0812  0.087905  -6.8e-05  1.030841  0.0
H  H11  1  0.49032631  0.29760081  0.51744570  1  0.08654  0.092898  0.000142  1.030726  0.0
H  H12  1  0.50966982  0.70239248  0.48255468  1  0.086547  0.092884  0.000143  1.030715  0.0
H  H13  1  0.70909184  0.28545570  0.41629013  1  0.085006  0.08878  0.000476  1.018639  0.0
H  H14  1  0.29090980  0.71453642  0.58371038  1  0.085012  0.088789  0.000477  1.018666  0.0
H  H15  1  0.37784629  0.52492505  0.33337900  1  0.09225  0.114557  0.000278  1.02601  0.001
H  H16  1  0.62215289  0.47507298  0.66662019  1  0.09225  0.114527  0.000278  1.025985  0.001
H  H17  1  0.58440413  0.57015444  0.33744033  1  0.097829  0.119287  -0.000195  1.024145  0.0
H  H18  1  0.41559685  0.42984129  0.66256282  1  0.097836  0.119311  -0.000195  1.024139  0.0
H  H19  1  0.27626761  0.01943056  0.96876869  1  0.094171  0.127901  0.00031  1.033001  0.0
H  H20  1  0.72375231  0.98056285  0.03123579  1  0.094156  0.127886  0.00031  1.033013  0.0
H  H21  1  0.15623205  0.88183841  0.10514788  1  0.084461  0.116879  0.000426  1.063304  0.001
H  H22  1  0.84378799  0.11816079  0.89484753  1  0.084513  0.116973  0.000426  1.06319  0.001
H  H23  1  0.42613438  0.05939748  0.12351004  1  0.09145  0.095555  0.000392  0.995814  0.0
H  H24  1  0.57386816  0.94060428  0.87649820  1  0.091449  0.09551  0.000392  0.995909  0.0
H  H25  1  0.44872002  0.85141151  0.16764915  1  0.091694  0.102511  0.000466  0.989475  0.0
H  H26  1  0.55128976  0.14859383  0.83235920  1  0.091666  0.102573  0.000466  0.989354  0.0
H  H27  1  0.20540725  0.83970787  0.35840156  1  0.079594  0.075195  0.000327  1.03749  0.0
H  H28  1  0.79458241  0.16029840  0.64159435  1  0.079597  0.075176  0.000327  1.03751  0.0
H  H29  1  0.30330526  0.99169678  0.35991968  1  0.093899  0.097982  0.000215  0.992783  0.0
H  H30  1  0.69668454  0.00830259  0.64008922  1  0.09393  0.098047  0.000215  0.992745  0.0
H  H31  1  0.93927978  0.01692499  0.33706116  1  0.092529  0.119639  0.000184  1.012832  0.0
H  H32  1  0.06071292  0.98308602  0.66293355  1  0.092535  0.119638  0.000185  1.012881  0.0
H  H33  1  0.04094077  0.18196974  0.30993011  1  0.096627  0.140508  0.001175  1.010596  0.0
H  H34  1  0.95906307  0.81804474  0.69005759  1  0.096595  0.140506  0.001175  1.010624  0.0
C  C35  1  0.54299121  0.28279974  0.20253250  1  -0.155609  -0.263901  0.00376  3.786115  0.003
C  C36  1  0.45700906  0.71719946  0.79746610  1  -0.155619  -0.263973  0.003761  3.786061  0.003
C  C37  1  0.51721423  0.20591062  0.35436494  1  -0.16794  -0.128899  0.000771  3.873498  0.001
C  C38  1  0.48277678  0.79408852  0.64563107  1  -0.167935  -0.12882  0.000772  3.873443  0.001
C  C39  1  0.56616999  0.31303240  0.41487632  1  -0.170687  -0.136098  0.001221  3.907861  0.001
C  C40  1  0.43382963  0.68696323  0.58512170  1  -0.1707  -0.136116  0.001221  3.908018  0.001
C  C41  1  0.52213392  0.48250270  0.32699941  1  -0.152314  -0.247661  0.00486  3.820457  0.005
C  C42  1  0.47786133  0.51749536  0.67300240  1  -0.152342  -0.247688  0.00486  3.820489  0.005
C  C43  1  0.22277743  0.98450711  0.07618182  1  -0.161553  -0.271458  0.00798  3.851409  0.008
C  C44  1  0.77724049  0.01548983  0.92382108  1  -0.161578  -0.271539  0.007979  3.851509  0.008
C  C45  1  0.35113409  0.96096856  0.16427754  1  -0.167098  -0.12663  0.001717  3.903692  0.001
C  C46  1  0.64887130  0.03903197  0.83572866  1  -0.167061  -0.126582  0.001717  3.903495  0.001
C  C47  1  0.23450777  0.95921916  0.30218814  1  -0.166112  -0.12148  0.001044  3.876101  0.001
C  C48  1  0.76548481  0.04078604  0.69781474  1  -0.166176  -0.121604  0.001044  3.876144  0.001
C  C49  1  0.05711250  0.07369655  0.28432535  1  -0.15789  -0.26049  0.002277  3.774129  0.002
C  C50  1  0.94288703  0.92631330  0.71567013  1  -0.157888  -0.260499  0.002279  3.774272  0.002
S  S51  1  0.04926512  0.14448165  0.10847257  1  0.289571  0.600568  0.00676  3.853618  0.001
S  S52  1  0.95074411  0.85551865  0.89151930  1  0.289527  0.600542  0.006761  3.85373  0.001
S  S53  1  0.61414219  0.47191625  0.15953385  1  0.295336  0.61113  0.011216  3.783112  0.004
S  S54  1  0.38585608  0.52808650  0.84046407  1  0.295393  0.611192  0.011219  3.783233  0.004
Cl  Cl55  1  0.83489163  0.40655176  0.84828448  1  -0.275571  -0.496631  0.09406  1.473876  0.113
Cl  Cl56  1  0.16509775  0.59343566  0.15172092  1  -0.275559  -0.496591  0.094064  1.473809  0.113
Cl  Cl57  1  0.21646615  0.17964094  0.73020471  1  -0.286721  -0.454074  0.097393  1.268006  0.115
Cl  Cl58  1  0.78353572  0.82035721  0.26980114  1  -0.286718  -0.45406  0.09739  1.26805  0.115
Cl  Cl59  1  0.95910854  0.65350132  0.54143481  1  -0.220855  -0.384176  0.130156  1.613911  0.152
Cl  Cl60  1  0.04088672  0.34649677  0.45856880  1  -0.22087  -0.384188  0.13016  1.613925  0.152
O  O61  1  0.14934874  0.28762379  0.04839684  1  -0.365466  -0.572933  0.05819  2.342749  0.078
O  O62  1  0.85065584  0.71238005  0.95159400  1  -0.365387  -0.572868  0.058186  2.342887  0.078
O  O63  1  0.81685859  0.42355403  0.15984398  1  -0.359508  -0.573695  0.055979  2.386492  0.074
O  O64  1  0.18313931  0.57644406  0.84015909  1  -0.359555  -0.573714  0.055977  2.386583  0.074
