# generated using pymatgen
data_ZnH16C22(NO3)2
_symmetry_space_group_name_H-M   'P 1'
_cell_length_a   8.38226063
_cell_length_b   8.38226965
_cell_length_c   14.79788688
_cell_angle_alpha   78.40723111
_cell_angle_beta   78.40715467
_cell_angle_gamma   72.04305810
_symmetry_Int_Tables_number   1
_chemical_formula_structural   ZnH16C22(NO3)2
_chemical_formula_sum   'Zn2 H32 C44 N4 O12'
_cell_volume   958.07141718
_cell_formula_units_Z   2
loop_
 _symmetry_equiv_pos_site_id
 _symmetry_equiv_pos_as_xyz
  1  'x, y, z'
loop_
 _atom_site_type_symbol
 _atom_site_label
 _atom_site_symmetry_multiplicity
 _atom_site_fract_x
 _atom_site_fract_y
 _atom_site_fract_z
 _atom_site_occupancy
 _atom_site_hle17_bader_spin_density
 _atom_site_hle17_ddec_charge
 _atom_site_hle17_ddec_spin_density
 _atom_site_hle17_ddec_sum_bond_order
 _atom_site_hle17_magmom
 _atom_site_hse06_10hf_bader_spin_density
 _atom_site_hse06_10hf_ddec_charge
 _atom_site_hse06_10hf_ddec_spin_density
 _atom_site_hse06_10hf_ddec_sum_bond_order
 _atom_site_hse06_10hf_magmom
 _atom_site_hse06_bader_spin_density
 _atom_site_hse06_ddec_charge
 _atom_site_hse06_ddec_spin_density
 _atom_site_hse06_ddec_sum_bond_order
 _atom_site_hse06_magmom
 _atom_site_pbe_bader_spin_density
 _atom_site_pbe_cm5_charge
 _atom_site_pbe_ddec_charge
 _atom_site_pbe_ddec_spin_density
 _atom_site_pbe_ddec_sum_bond_order
 _atom_site_pbe_magmom
Zn  Zn0  1  0.06765741  0.93234443  0.24999858  1  0  0.962646  0  1.82684  0  0  0.779639  0  2.268362  0  0  0.830988  0  2.217687  0  0  0.674659  0.743946  0  2.302822  0
Zn  Zn1  1  0.93234070  0.06765309  0.75000186  1  0  0.962608  0  1.826833  0  0  0.779619  0  2.268346  0  0  0.830967  0  2.217675  0  0  0.674669  0.743925  0  2.302804  0
H  H2  1  0.24997875  0.23811390  0.54191871  1  0  0.111521  0  0.956513  0  0  0.122392  0  1.017943  0  0  0.126159  0  1.015078  0  0  0.102081  0.119651  0  1.020142  0
H  H3  1  0.76188884  0.75002028  0.95808239  1  0  0.111532  0  0.95645  0  0  0.122401  0  1.017876  0  0  0.126173  0  1.01501  0  0  0.102066  0.119661  0  1.020073  0
H  H4  1  0.75002036  0.76188871  0.45808107  1  0  0.111533  0  0.956436  0  0  0.122404  0  1.017871  0  0  0.126173  0  1.015002  0  0  0.102066  0.119663  0  1.02007  0
H  H5  1  0.23811255  0.24997852  0.04191823  1  0  0.111501  0  0.956487  0  0  0.122368  0  1.01793  0  0  0.126136  0  1.015063  0  0  0.102047  0.119627  0  1.020129  0
H  H6  1  0.20596053  0.97962700  0.51401032  1  0  0.105551  0  0.962109  0  0  0.11634  0  1.023625  0  0  0.119356  0  1.022059  0  0  0.100516  0.114194  0  1.024771  0
H  H7  1  0.02037539  0.79403971  0.98598891  1  0  0.105537  0  0.962097  0  0  0.116331  0  1.023611  0  0  0.11935  0  1.022041  0  0  0.100524  0.11418  0  1.024773  0
H  H8  1  0.79403893  0.02037433  0.48599023  1  0  0.105541  0  0.962098  0  0  0.116317  0  1.023639  0  0  0.119334  0  1.022072  0  0  0.100522  0.114173  0  1.024781  0
H  H9  1  0.97962687  0.20596039  0.01401013  1  0  0.105557  0  0.962094  0  0  0.116344  0  1.023612  0  0  0.119364  0  1.022039  0  0  0.100525  0.114199  0  1.024759  0
H  H10  1  0.21884490  0.71464490  0.53669113  1  0  0.072121  0  0.972302  0  0  0.079992  0  1.043376  0  0  0.080577  0  1.04459  0  0  0.101446  0.079589  0  1.04264  0
H  H11  1  0.28536106  0.78115234  0.96330795  1  0  0.072109  0  0.972311  0  0  0.079987  0  1.043388  0  0  0.080571  0  1.044604  0  0  0.101438  0.079582  0  1.042651  0
H  H12  1  0.78115456  0.28535644  0.46330875  1  0  0.072103  0  0.972322  0  0  0.079998  0  1.04337  0  0  0.080582  0  1.044585  0  0  0.101451  0.079589  0  1.04263  0
H  H13  1  0.71464036  0.21884649  0.03669064  1  0  0.072093  0  0.972335  0  0  0.079993  0  1.043365  0  0  0.080578  0  1.044579  0  0  0.101454  0.079592  0  1.042632  0
H  H14  1  0.32030617  0.54468495  0.47233954  1  0  0.106352  0  0.925153  0  0  0.115268  0  0.989343  0  0  0.117576  0  0.987498  0  0  0.117408  0.1136  0  0.99078  0
H  H15  1  0.45531797  0.67969233  0.02766036  1  0  0.106371  0  0.925119  0  0  0.115273  0  0.989343  0  0  0.11758  0  0.987496  0  0  0.117415  0.113602  0  0.990775  0
H  H16  1  0.67969485  0.45531512  0.52766098  1  0  0.106338  0  0.925164  0  0  0.115259  0  0.989361  0  0  0.117565  0  0.987516  0  0  0.11741  0.113585  0  0.990793  0
H  H17  1  0.54468235  0.32031028  0.97233928  1  0  0.106399  0  0.925106  0  0  0.11527  0  0.989345  0  0  0.117578  0  0.987498  0  0  0.117422  0.113608  0  0.990779  0
H  H18  1  0.81394702  0.79769120  0.17029420  1  0  0.084788  0  0.94482  0  0  0.092031  0  1.010565  0  0  0.094166  0  1.009444  0  0  0.119958  0.090472  0  1.011362  0
H  H19  1  0.20230734  0.18605128  0.32970612  1  0  0.08478  0  0.944835  0  0  0.092031  0  1.010558  0  0  0.094153  0  1.009471  0  0  0.119962  0.090471  0  1.011356  0
H  H20  1  0.18605194  0.20230759  0.82970668  1  0  0.084801  0  0.944797  0  0  0.092035  0  1.01055  0  0  0.094172  0  1.009426  0  0  0.119957  0.090475  0  1.011349  0
H  H21  1  0.79769320  0.81394625  0.67029405  1  0  0.084769  0  0.944838  0  0  0.09201  0  1.010584  0  0  0.09414  0  1.009474  0  0  0.119968  0.09045  0  1.011381  0
H  H22  1  0.50783139  0.91785364  0.14307385  1  0  0.119606  0  0.945285  0  0  0.129925  0  1.00084  0  0  0.13335  0  0.999822  0  0  0.113377  0.127461  0  1.001718  0
H  H23  1  0.08214493  0.49216631  0.35692667  1  0  0.119621  0  0.945279  0  0  0.129957  0  1.000813  0  0  0.133382  0  0.999793  0  0  0.113393  0.127492  0  1.001692  0
H  H24  1  0.49216880  0.08214517  0.85692623  1  0  0.119609  0  0.945287  0  0  0.129944  0  1.000826  0  0  0.13337  0  0.999807  0  0  0.113393  0.127481  0  1.001704  0
H  H25  1  0.91785562  0.50783124  0.64307282  1  0  0.119622  0  0.945268  0  0  0.129953  0  1.000811  0  0  0.133378  0  0.999794  0  0  0.11339  0.127488  0  1.001691  0
H  H26  1  0.35390439  0.21214336  0.17244895  1  0  0.105111  0  0.940141  0  0  0.115733  0  1.001839  0  0  0.118229  0  1.000138  0  0  0.115175  0.113923  0  1.003091  0
H  H27  1  0.78785744  0.64609429  0.32755037  1  0  0.105125  0  0.940161  0  0  0.115737  0  1.001868  0  0  0.118232  0  1.00017  0  0  0.11518  0.113926  0  1.003123  0
H  H28  1  0.64609459  0.78785545  0.82755058  1  0  0.105118  0  0.940153  0  0  0.115726  0  1.001852  0  0  0.118221  0  1.000154  0  0  0.115182  0.113914  0  1.003109  0
H  H29  1  0.21214395  0.35390451  0.67245025  1  0  0.105152  0  0.940171  0  0  0.115759  0  1.001872  0  0  0.118253  0  1.000175  0  0  0.115197  0.113947  0  1.003127  0
H  H30  1  0.35861376  0.48396190  0.22231860  1  0  0.116718  0  0.969633  0  0  0.123072  0  1.034873  0  0  0.12671  0  1.033464  0  0  0.106847  0.120394  0  1.036048  0
H  H31  1  0.51603848  0.64138613  0.27768208  1  0  0.116754  0  0.969577  0  0  0.123076  0  1.03486  0  0  0.126713  0  1.033452  0  0  0.106852  0.120398  0  1.036035  0
H  H32  1  0.64138690  0.51603944  0.77768183  1  0  0.116779  0  0.969543  0  0  0.123109  0  1.03482  0  0  0.126747  0  1.03341  0  0  0.106885  0.120429  0  1.035994  0
H  H33  1  0.48396169  0.35861265  0.72231935  1  0  0.11674  0  0.969588  0  0  0.12309  0  1.034833  0  0  0.126726  0  1.033426  0  0  0.10688  0.120412  0  1.036009  0
C  C34  1  0.36032156  0.13402548  0.52355845  1  0  -0.165628  0  3.770836  0  0  -0.187819  0  4.026852  0  0  -0.190718  0  4.045059  0  0  -0.110603  -0.185742  0  4.014556  0
C  C35  1  0.86597739  0.63967786  0.97644117  1  0  -0.165688  0  3.770732  0  0  -0.18786  0  4.026763  0  0  -0.190764  0  4.044974  0  0  -0.110616  -0.185783  0  4.01447  0
C  C36  1  0.63967753  0.86597712  0.47644201  1  0  -0.165648  0  3.770672  0  0  -0.187823  0  4.026708  0  0  -0.190723  0  4.044913  0  0  -0.110604  -0.185748  0  4.01442  0
C  C37  1  0.13402524  0.36032098  0.02355728  1  0  -0.165584  0  3.770668  0  0  -0.187766  0  4.026696  0  0  -0.190666  0  4.044904  0  0  -0.110569  -0.185691  0  4.014405  0
C  C38  1  0.33570887  0.98561452  0.50759843  1  0  -0.180625  0  3.791984  0  0  -0.201031  0  4.047993  0  0  -0.204447  0  4.068096  0  0  -0.115912  -0.19864  0  4.0344  0
C  C39  1  0.01438914  0.66428997  0.99240077  1  0  -0.180558  0  3.792007  0  0  -0.200982  0  4.048028  0  0  -0.2044  0  4.068132  0  0  -0.115904  -0.198594  0  4.03443  0
C  C40  1  0.66428900  0.01438807  0.49240216  1  0  -0.180565  0  3.791932  0  0  -0.200986  0  4.047953  0  0  -0.204408  0  4.068072  0  0  -0.115899  -0.198594  0  4.034357  0
C  C41  1  0.98561190  0.33571011  0.00759907  1  0  -0.180627  0  3.792003  0  0  -0.20103  0  4.048007  0  0  -0.204451  0  4.068122  0  0  -0.115911  -0.198639  0  4.034411  0
C  C42  1  0.47601183  0.85052092  0.48381646  1  0  0.243382  0  3.828426  0  0  0.233235  0  4.092161  0  0  0.242417  0  4.108924  0  0  0.065009  0.226782  0  4.080788  0
C  C43  1  0.14948260  0.52398806  0.01618193  1  0  0.243321  0  3.828395  0  0  0.233187  0  4.092135  0  0  0.242368  0  4.108899  0  0  0.064979  0.226745  0  4.080762  0
C  C44  1  0.52398603  0.14948166  0.51618481  1  0  0.243293  0  3.828457  0  0  0.233194  0  4.092169  0  0  0.242374  0  4.10893  0  0  0.064963  0.226764  0  4.080797  0
C  C45  1  0.85051967  0.47601204  0.98381643  1  0  0.243399  0  3.828408  0  0  0.233262  0  4.09213  0  0  0.24244  0  4.108895  0  0  0.065017  0.226818  0  4.080755  0
C  C46  1  0.30094246  0.68059714  0.47150304  1  0  -0.066747  0  3.659654  0  0  -0.12305  0  3.924283  0  0  -0.120076  0  3.924934  0  0  -0.069466  -0.125258  0  3.923894  0
C  C47  1  0.31940617  0.69905761  0.02849467  1  0  -0.066729  0  3.659667  0  0  -0.123071  0  3.924364  0  0  -0.120096  0  3.925008  0  0  -0.069477  -0.125252  0  3.923955  0
C  C48  1  0.69905857  0.31940293  0.52849748  1  0  -0.066723  0  3.659666  0  0  -0.123039  0  3.924305  0  0  -0.120068  0  3.924954  0  0  -0.069453  -0.125194  0  3.923881  0
C  C49  1  0.68059416  0.30094502  0.97150430  1  0  -0.066755  0  3.659679  0  0  -0.123069  0  3.924352  0  0  -0.120094  0  3.924996  0  0  -0.069479  -0.125283  0  3.923987  0
C  C50  1  0.21052530  0.78009211  0.38964938  1  0  0.627404  0  3.900358  0  0  0.5801  0  4.198707  0  0  0.612627  0  4.192971  0  0  0.186916  0.558098  0  4.201756  0
C  C51  1  0.21991344  0.78947280  0.11034972  1  0  0.627435  0  3.900299  0  0  0.580188  0  4.198585  0  0  0.612714  0  4.192851  0  0  0.186966  0.558182  0  4.201635  0
C  C52  1  0.78947572  0.21990796  0.61035114  1  0  0.627381  0  3.900352  0  0  0.580095  0  4.198696  0  0  0.612622  0  4.192962  0  0  0.186937  0.558086  0  4.201743  0
C  C53  1  0.78008689  0.21052983  0.88964858  1  0  0.627351  0  3.900424  0  0  0.580102  0  4.198715  0  0  0.612627  0  4.192982  0  0  0.186908  0.558102  0  4.201766  0
C  C54  1  0.73922190  0.92402520  0.18504390  1  0  0.147241  0  3.672266  0  0  0.113996  0  3.926889  0  0  0.122608  0  3.942673  0  0  0.06259  0.108377  0  3.916207  0
C  C55  1  0.07597445  0.26077827  0.31495752  1  0  0.147227  0  3.67225  0  0  0.113976  0  3.926891  0  0  0.122583  0  3.94267  0  0  0.062548  0.108355  0  3.916214  0
C  C56  1  0.26077829  0.07597361  0.81495550  1  0  0.147193  0  3.672201  0  0  0.113974  0  3.926817  0  0  0.122585  0  3.942604  0  0  0.062598  0.108355  0  3.916134  0
C  C57  1  0.92402572  0.73922052  0.68504324  1  0  0.147276  0  3.672211  0  0  0.114022  0  3.926855  0  0  0.122632  0  3.942636  0  0  0.062559  0.108402  0  3.916174  0
C  C58  1  0.57008066  0.99194564  0.16913383  1  0  -0.095154  0  3.696089  0  0  -0.109395  0  3.95089  0  0  -0.114974  0  3.968481  0  0  -0.073001  -0.105956  0  3.939314  0
C  C59  1  0.00805287  0.42991763  0.33086663  1  0  -0.095164  0  3.696154  0  0  -0.10941  0  3.950945  0  0  -0.114987  0  3.968534  0  0  -0.072978  -0.105971  0  3.939368  0
C  C60  1  0.42991918  0.00805445  0.83086479  1  0  -0.095171  0  3.69604  0  0  -0.109437  0  3.950831  0  0  -0.115015  0  3.968421  0  0  -0.073032  -0.105997  0  3.939253  0
C  C61  1  0.99194889  0.57007991  0.66913341  1  0  -0.095181  0  3.696044  0  0  -0.109425  0  3.950836  0  0  -0.115003  0  3.968429  0  0  -0.072973  -0.105985  0  3.93926  0
C  C62  1  0.48393446  0.15511065  0.18621068  1  0  -0.026565  0  3.645397  0  0  -0.054093  0  3.89757  0  0  -0.050364  0  3.912799  0  0  -0.050199  -0.056434  0  3.887352  0
C  C63  1  0.84489004  0.51606518  0.31378917  1  0  -0.026586  0  3.645414  0  0  -0.054095  0  3.897608  0  0  -0.050368  0  3.912839  0  0  -0.050198  -0.056437  0  3.887388  0
C  C64  1  0.51606659  0.84488944  0.81378849  1  0  -0.026543  0  3.645335  0  0  -0.054044  0  3.897487  0  0  -0.050316  0  3.912717  0  0  -0.050184  -0.056389  0  3.887275  0
C  C65  1  0.15511294  0.48393237  0.68621006  1  0  -0.026622  0  3.645419  0  0  -0.05411  0  3.8976  0  0  -0.050384  0  3.912833  0  0  -0.050222  -0.056453  0  3.887382  0
C  C66  1  0.48903614  0.42304468  0.23517618  1  0  -0.091903  0  3.68783  0  0  -0.113155  0  3.937728  0  0  -0.11678  0  3.960327  0  0  -0.081486  -0.110668  0  3.922573  0
C  C67  1  0.57695463  0.51096393  0.26482520  1  0  -0.091966  0  3.68781  0  0  -0.113192  0  3.937754  0  0  -0.116819  0  3.960356  0  0  -0.081518  -0.110704  0  3.922598  0
C  C68  1  0.51096403  0.57695412  0.76482457  1  0  -0.091953  0  3.687767  0  0  -0.1132  0  3.937692  0  0  -0.116826  0  3.960292  0  0  -0.08154  -0.11071  0  3.922534  0
C  C69  1  0.42304432  0.48903485  0.73517636  1  0  -0.091998  0  3.687807  0  0  -0.113233  0  3.93775  0  0  -0.116859  0  3.960351  0  0  -0.081541  -0.110745  0  3.922592  0
C  C70  1  0.56649973  0.25130929  0.21876752  1  0  0.033015  0  3.777738  0  0  0.049275  0  4.007801  0  0  0.047084  0  4.031561  0  0  0.005226  0.050537  0  3.991908  0
C  C71  1  0.74869045  0.43349924  0.28123318  1  0  0.033097  0  3.777646  0  0  0.049316  0  4.007761  0  0  0.047124  0  4.031525  0  0  0.005236  0.050579  0  3.991864  0
C  C72  1  0.43349887  0.74869076  0.78123327  1  0  0.033016  0  3.77774  0  0  0.049283  0  4.007767  0  0  0.047091  0  4.03153  0  0  0.005221  0.050544  0  3.991872  0
C  C73  1  0.25131009  0.56649830  0.71876699  1  0  0.03312  0  3.777603  0  0  0.049316  0  4.007745  0  0  0.047124  0  4.031508  0  0  0.005221  0.050576  0  3.991852  0
C  C74  1  0.73665437  0.17150976  0.23385571  1  0  0.127841  0  3.762901  0  0  0.120742  0  3.997856  0  0  0.124552  0  4.020703  0  0  0.118518  0.118182  0  3.982528  0
C  C75  1  0.82848972  0.26334553  0.26614484  1  0  0.127811  0  3.762934  0  0  0.120723  0  3.997902  0  0  0.124532  0  4.02075  0  0  0.118495  0.118162  0  3.982573  0
C  C76  1  0.26334581  0.82848904  0.76614436  1  0  0.127844  0  3.762944  0  0  0.120768  0  3.997874  0  0  0.124577  0  4.020723  0  0  0.118539  0.118208  0  3.982543  0
C  C77  1  0.17150924  0.73665326  0.73385605  1  0  0.127792  0  3.762938  0  0  0.120712  0  3.997904  0  0  0.124521  0  4.020753  0  0  0.118502  0.118152  0  3.982573  0
N  N78  1  0.81894575  0.01074326  0.21771006  1  0  -0.345881  0  3.294491  0  0  -0.272584  0  3.56481  0  0  -0.291592  0  3.580867  0  0  -0.320012  -0.259826  0  3.553918  0
N  N79  1  0.98925611  0.18105602  0.28229023  1  0  -0.345873  0  3.294453  0  0  -0.272564  0  3.564746  0  0  -0.29157  0  3.580802  0  0  -0.32  -0.259807  0  3.553854  0
N  N80  1  0.18105409  0.98925682  0.78228924  1  0  -0.345824  0  3.29444  0  0  -0.272558  0  3.564763  0  0  -0.291567  0  3.580822  0  0  -0.320019  -0.259801  0  3.553871  0
N  N81  1  0.01074284  0.81894277  0.71771066  1  0  -0.345888  0  3.294592  0  0  -0.272589  0  3.564898  0  0  -0.291597  0  3.580954  0  0  -0.320024  -0.259833  0  3.554007  0
O  O82  1  0.05700197  0.78096062  0.39306053  1  0  -0.626619  0  1.919323  0  0  -0.56725  0  2.156808  0  0  -0.594391  0  2.146929  0  0  -0.328786  -0.54812  0  2.16276  0
O  O83  1  0.21904039  0.94299840  0.10693819  1  0  -0.626661  0  1.919321  0  0  -0.567291  0  2.156766  0  0  -0.594435  0  2.146893  0  0  -0.328802  -0.54816  0  2.162719  0
O  O84  1  0.94299943  0.21903819  0.60693941  1  0  -0.626629  0  1.919317  0  0  -0.567274  0  2.156815  0  0  -0.594405  0  2.146916  0  0  -0.328821  -0.548132  0  2.162744  0
O  O85  1  0.78095682  0.05700678  0.89305882  1  0  -0.626622  0  1.919323  0  0  -0.56727  0  2.156775  0  0  -0.594423  0  2.14692  0  0  -0.32881  -0.548139  0  2.162727  0
O  O86  1  0.28907516  0.85586539  0.32003290  1  0  -0.614812  0  1.998124  0  0  -0.551235  0  2.241235  0  0  -0.578909  0  2.233859  0  0  -0.31711  -0.531942  0  2.245658  0
O  O87  1  0.14413954  0.71092193  0.17996569  1  0  -0.614837  0  1.998048  0  0  -0.551318  0  2.241183  0  0  -0.578995  0  2.233807  0  0  -0.317159  -0.532025  0  2.245607  0
O  O88  1  0.71092588  0.14413469  0.67996694  1  0  -0.614786  0  1.998088  0  0  -0.551244  0  2.241226  0  0  -0.578919  0  2.233849  0  0  -0.317131  -0.531953  0  2.245651  0
O  O89  1  0.85586285  0.28908197  0.82003359  1  0  -0.614788  0  1.998164  0  0  -0.551228  0  2.241232  0  0  -0.578904  0  2.233859  0  0  -0.317107  -0.531934  0  2.24565  0
O  O90  1  0.46563178  0.69834385  0.46724643  1  0  -0.268057  0  2.35753  0  0  -0.202325  0  2.596988  0  0  -0.218657  0  2.599534  0  0  -0.185796  -0.190658  0  2.59489  0
O  O91  1  0.30166018  0.53436877  0.03275178  1  0  -0.268009  0  2.357478  0  0  -0.20226  0  2.596928  0  0  -0.218587  0  2.599468  0  0  -0.185763  -0.190619  0  2.594833  0
O  O92  1  0.53436888  0.30165748  0.53275399  1  0  -0.267939  0  2.357442  0  0  -0.20224  0  2.596928  0  0  -0.218562  0  2.599464  0  0  -0.185766  -0.190639  0  2.594849  0
O  O93  1  0.69834207  0.46563130  0.96724861  1  0  -0.268034  0  2.357518  0  0  -0.202306  0  2.596977  0  0  -0.218633  0  2.599518  0  0  -0.18579  -0.190657  0  2.594893  0
