# generated using pymatgen
data_Zn4C24S4Br4N4O21
_symmetry_space_group_name_H-M   'P 1'
_cell_length_a   19.48704737
_cell_length_b   19.45216097
_cell_length_c   33.02192481
_cell_angle_alpha   79.54535316
_cell_angle_beta   79.44953107
_cell_angle_gamma   64.11917573
_symmetry_Int_Tables_number   1
_chemical_formula_structural   Zn4C24S4Br4N4O21
_chemical_formula_sum   'Zn16 C96 S16 Br16 N16 O84'
_cell_volume   10998.42508759
_cell_formula_units_Z   4
loop_
 _symmetry_equiv_pos_site_id
 _symmetry_equiv_pos_as_xyz
  1  'x, y, z'
loop_
 _atom_site_type_symbol
 _atom_site_label
 _atom_site_symmetry_multiplicity
 _atom_site_fract_x
 _atom_site_fract_y
 _atom_site_fract_z
 _atom_site_occupancy
 _atom_site_pbe_bader_charge
 _atom_site_pbe_bader_spin_density
 _atom_site_pbe_cm5_charge
 _atom_site_pbe_ddec_charge
 _atom_site_pbe_ddec_spin_density
 _atom_site_pbe_ddec_sum_bond_order
 _atom_site_pbe_magmom
Zn  Zn0  1  0.05878261  0.40265497  0.47510430  1  1.317022  0  0.675444  0.980529  0  2.314618  0
Zn  Zn1  1  0.98165359  0.48849568  0.56011098  1  1.339154  0  0.691562  1.000885  0  2.305457  0
Zn  Zn2  1  0.06331566  0.55801689  0.48273631  1  1.321396  0  0.68273  0.987806  0  2.312712  0
Zn  Zn3  1  0.89892040  0.54947919  0.48004576  1  1.327943  0  0.683099  0.990418  0  2.313957  0
Zn  Zn4  1  0.69702818  0.35179223  0.26884176  1  1.318591  0  0.675149  0.979566  0  2.31748  0
Zn  Zn5  1  0.69619328  0.18314201  0.26465567  1  1.328261  0  0.683786  0.991507  0  2.311595  0
Zn  Zn6  1  0.76435267  0.26966404  0.18886909  1  1.314485  0  0.682098  0.987774  0  2.313685  0
Zn  Zn7  1  0.84679113  0.19500972  0.27441984  1  1.333819  0  0.690983  1.00018  0  2.306717  0
Zn  Zn8  1  0.26191120  0.76885988  0.68869424  1  1.322025  0  0.690901  0.998716  0  2.304981  0
Zn  Zn9  1  0.34813669  0.69383151  0.77290032  1  1.323108  0  0.681881  0.987473  0  2.317873  0
Zn  Zn10  1  0.19783104  0.85132692  0.76905630  1  1.32031  0  0.675467  0.981864  0  2.314273  0
Zn  Zn11  1  0.19613689  0.68283530  0.76484266  1  1.328618  0  0.683879  0.991306  0  2.306888  0
Zn  Zn12  1  0.56388799  0.05767669  0.98307636  1  1.322366  0  0.682351  0.98685  0  2.314594  0
Zn  Zn13  1  0.39959504  0.05111276  0.97884668  1  1.334544  0  0.69078  1.000052  0  2.308499  0
Zn  Zn14  1  0.55825055  0.90316074  0.97521339  1  1.31957  0  0.675738  0.981373  0  2.313141  0
Zn  Zn15  1  0.47871374  0.99155738  0.06010073  1  1.327711  0  0.683526  0.990386  0  2.313963  0
C  C16  1  0.06315667  0.32223533  0.55877052  1  1.620915  0  0.227031  0.629427  0  4.185728  0
C  C17  1  0.06838024  0.56992340  0.56626177  1  1.583452  0  0.222428  0.621022  0  4.139792  0
C  C18  1  0.18577916  0.43991916  0.43671859  1  1.614565  0  0.225417  0.621986  0  4.194775  0
C  C19  1  0.93800940  0.67755458  0.44026270  1  1.615459  0  0.227549  0.62797  0  4.184663  0
C  C20  1  0.93431794  0.42856625  0.43170505  1  1.614994  0  0.222125  0.621767  0  4.148153  0
C  C21  1  0.81601673  0.55853378  0.56208704  1  1.62408  0  0.226469  0.620676  0  4.196546  0
C  C22  1  0.57251984  0.30802849  0.30767618  1  1.602264  0  0.227662  0.629398  0  4.186151  0
C  C23  1  0.68398329  0.18270887  0.18026106  1  1.590775  0  0.221254  0.619349  0  4.14632  0
C  C24  1  0.68995003  0.43589765  0.18707942  1  1.643514  0  0.226496  0.625106  0  4.192453  0
C  C25  1  0.92905834  0.19162832  0.19102981  1  1.629126  0  0.227532  0.628566  0  4.185122  0
C  C26  1  0.81530802  0.31996850  0.31812920  1  1.595666  0  0.222272  0.621233  0  4.143422  0
C  C27  1  0.81371721  0.06403850  0.31088136  1  1.605827  0  0.226561  0.621627  0  4.194847  0
C  C28  1  0.42798179  0.68971933  0.68956065  1  1.611584  0  0.226791  0.628767  0  4.185913  0
C  C29  1  0.31793410  0.81753611  0.81793979  1  1.580917  0  0.221636  0.620145  0  4.141528  0
C  C30  1  0.19051977  0.93480066  0.68705156  1  1.597471  0  0.225894  0.620776  0  4.19535  0
C  C31  1  0.07269027  0.80833826  0.80771540  1  1.616341  0  0.226995  0.628035  0  4.185919  0
C  C32  1  0.18162878  0.68166759  0.68107605  1  1.606827  0  0.221749  0.620512  0  4.146431  0
C  C33  1  0.31403868  0.56372564  0.81079204  1  1.607888  0  0.226141  0.621793  0  4.197544  0
C  C34  1  0.44021668  0.17735336  0.93982805  1  1.625403  0  0.227343  0.630383  0  4.186296  0
C  C35  1  0.43270579  0.92932162  0.93233071  1  1.58766  0  0.221895  0.620283  0  4.148849  0
C  C36  1  0.68578272  0.93953939  0.93680346  1  1.615448  0  0.224579  0.621478  0  4.194844  0
C  C37  1  0.56020823  0.82427031  0.05958741  1  1.614542  0  0.226656  0.627138  0  4.186139  0
C  C38  1  0.56895283  0.06982693  0.06676531  1  1.588631  0  0.221585  0.61911  0  4.145148  0
C  C39  1  0.31442173  0.06399457  0.06094863  1  1.622755  0  0.227085  0.62142  0  4.194603  0
C  C40  1  0.90446131  0.40107630  0.40181218  1  0.082861  0  -0.016583  -0.091471  0  3.903642  0
C  C41  1  0.84640972  0.34842780  0.34687464  1  0.071821  0  -0.017431  -0.09451  0  3.898596  0
C  C42  1  0.83384313  0.44919079  0.38625688  1  -0.064742  0  -0.015141  0.045638  0  3.91508  0
C  C43  1  0.92002531  0.30281412  0.35969111  1  -0.01957  0  -0.013724  0.045622  0  3.913516  0
C  C44  1  0.80264500  0.42088024  0.36154143  1  -0.024623  0  -0.014113  0.05182  0  3.911746  0
C  C45  1  0.94602037  0.32675283  0.38927268  1  -0.018873  0  -0.01412  0.050274  0  3.913393  0
C  C46  1  0.09811465  0.59817405  0.59578329  1  0.071108  0  -0.017837  -0.097158  0  3.896954  0
C  C47  1  0.15248518  0.65293600  0.65149373  1  0.041756  0  -0.016754  -0.090158  0  3.905272  0
C  C48  1  0.14247733  0.64078256  0.58068425  1  -0.053205  0  -0.013678  0.049355  0  3.911008  0
C  C49  1  0.10410894  0.61480937  0.66650587  1  -0.046697  0  -0.015726  0.046274  0  3.916043  0
C  C50  1  0.17362764  0.66340476  0.60837745  1  0.037182  0  -0.015411  0.043464  0  3.917413  0
C  C51  1  0.08155032  0.58298729  0.63915528  1  -0.027583  0  -0.014011  0.046128  0  3.913404  0
C  C52  1  0.31148793  0.45282024  0.40003179  1  0.344954  0  0.08058  0.033586  0  3.926305  0
C  C53  1  0.45173942  0.29092350  0.34900652  1  0.343694  0  0.080729  0.035971  0  3.928676  0
C  C54  1  0.26368265  0.41486209  0.41342224  1  -0.122363  0  -0.00102  -0.143344  0  3.877741  0
C  C55  1  0.49879170  0.32954012  0.33512084  1  -0.128755  0  -0.0037  -0.14978  0  3.884426  0
C  C56  1  0.38181779  0.33694309  0.37120540  1  -0.087834  0  -0.013092  -0.062962  0  4.076954  0
C  C57  1  0.37855541  0.40898757  0.37508203  1  -0.149832  0  -0.012913  -0.062427  0  4.08328  0
C  C58  1  0.72272198  0.57872708  0.63121931  1  0.353466  0  0.081686  0.037427  0  3.923097  0
C  C59  1  0.52088402  0.67791207  0.62050377  1  0.305407  0  0.080155  0.034645  0  3.92914  0
C  C60  1  0.74113923  0.58649048  0.58834675  1  -0.155109  0  -0.001529  -0.146742  0  3.879613  0
C  C61  1  0.50289810  0.66912000  0.66336369  1  -0.146086  0  -0.002738  -0.147742  0  3.888532  0
C  C62  1  0.60099865  0.64206625  0.60845418  1  -0.073724  0  -0.012711  -0.064156  0  4.077333  0
C  C63  1  0.64242651  0.60903930  0.64281851  1  -0.091991  0  -0.013449  -0.064205  0  4.085209  0
C  C64  1  0.07322263  0.22984630  0.62787229  1  0.24713  0  0.079765  0.035302  0  3.928046  0
C  C65  1  0.17171108  0.02738047  0.61775343  1  0.341029  0  0.081384  0.03668  0  3.922714  0
C  C66  1  0.08297518  0.24736646  0.58501445  1  -0.080769  0  -0.003499  -0.149524  0  3.885816  0
C  C67  1  0.16312217  0.00955442  0.66063615  1  -0.09504  0  -0.001934  -0.145208  0  3.87928  0
C  C68  1  0.14203871  0.10768618  0.60590847  1  -0.137226  0  -0.013535  -0.06423  0  4.083066  0
C  C69  1  0.10859184  0.14971887  0.64010433  1  -0.088219  0  -0.013072  -0.062769  0  4.077251  0
C  C70  1  0.84068108  0.79926859  0.39955726  1  0.252164  0  0.079915  0.03425  0  3.930097  0
C  C71  1  0.90679247  0.94618615  0.35566655  1  0.342923  0  0.080733  0.035665  0  3.923588  0
C  C72  1  0.90917626  0.75527382  0.41670694  1  -0.043438  0  -0.003133  -0.147237  0  3.881642  0
C  C73  1  0.83871832  0.99006291  0.33805919  1  -0.146467  0  -0.001576  -0.146822  0  3.878246  0
C  C74  1  0.90889963  0.87513027  0.37648742  1  -0.086737  0  -0.013211  -0.064115  0  4.0834  0
C  C75  1  0.84081656  0.86747960  0.37566069  1  -0.118433  0  -0.012635  -0.063915  0  4.07686  0
C  C76  1  0.65384210  0.15431759  0.15096310  1  0.025021  0  -0.017244  -0.09203  0  3.899106  0
C  C77  1  0.59914978  0.09845544  0.09591969  1  0.033699  0  -0.016886  -0.092762  0  3.900462  0
C  C78  1  0.67133925  0.16762937  0.10763124  1  -0.006173  0  -0.013961  0.04736  0  3.911812  0
C  C79  1  0.58643523  0.08043744  0.13925245  1  0.027031  0  -0.014475  0.048767  0  3.911978  0
C  C80  1  0.63968317  0.14455103  0.08040506  1  -0.026733  0  -0.014467  0.046513  0  3.914113  0
C  C81  1  0.60849576  0.11293203  0.16645545  1  -0.020835  0  -0.014647  0.046835  0  3.9128  0
C  C82  1  0.67047595  0.52905008  0.11788524  1  0.243319  0  0.080766  0.034894  0  3.925086  0
C  C83  1  0.57081076  0.73126253  0.12860495  1  0.328391  0  0.080727  0.035788  0  3.926185  0
C  C84  1  0.66188833  0.51076930  0.16074568  1  -0.078597  0  -0.001121  -0.144714  0  3.877087  0
C  C85  1  0.58043225  0.74926903  0.08578112  1  -0.104272  0  -0.003421  -0.147469  0  3.881867  0
C  C86  1  0.60651023  0.65105311  0.14058778  1  -0.19416  0  -0.013347  -0.063672  0  4.077717  0
C  C87  1  0.64019507  0.60945661  0.10624853  1  -0.03773  0  -0.013194  -0.063664  0  4.085605  0
C  C88  1  0.07903852  0.12229497  0.17926761  1  0.329266  0  0.080275  0.034355  0  3.929525  0
C  C89  1  0.16423830  0.12478488  0.07297296  1  0.320913  0  0.081424  0.036445  0  3.923876  0
C  C90  1  0.00586963  0.16144346  0.16674713  1  -0.11967  0  -0.003678  -0.148066  0  3.887062  0
C  C91  1  0.23764938  0.08649063  0.08527994  1  -0.099924  0  -0.001916  -0.146958  0  3.880691  0
C  C92  1  0.10660694  0.14081429  0.10729569  1  -0.178987  0  -0.01358  -0.064776  0  4.08853  0
C  C93  1  0.13728113  0.11169305  0.14525631  1  -0.122752  0  -0.012312  -0.063039  0  4.076409  0
C  C94  1  0.34734748  0.84618394  0.84754212  1  0.082231  0  -0.01779  -0.09468  0  3.891466  0
C  C95  1  0.40299338  0.90054463  0.90299400  1  0.100062  0  -0.01699  -0.091633  0  3.90371  0
C  C96  1  0.30298099  0.91905094  0.86173074  1  -0.008178  0  -0.012686  0.052896  0  3.905944  0
C  C97  1  0.44441773  0.82543707  0.89155993  1  -0.111335  0  -0.014454  0.050558  0  3.91324  0
C  C98  1  0.33319786  0.94833918  0.88652648  1  -0.006855  0  -0.015036  0.043158  0  3.915888  0
C  C99  1  0.42001105  0.80071685  0.86162565  1  -0.022335  0  -0.013352  0.047503  0  3.911988  0
C  C100  1  0.40742930  0.44657154  0.85582150  1  0.330121  0  0.08054  0.03503  0  3.927754  0
C  C101  1  0.34224314  0.29912266  0.89992986  1  0.267111  0  0.080709  0.035777  0  3.92935  0
C  C102  1  0.33912377  0.49019960  0.83836926  1  -0.134476  0  -0.001278  -0.146164  0  3.87887  0
C  C103  1  0.41104778  0.25531498  0.91675182  1  -0.089229  0  -0.003771  -0.149767  0  3.890746  0
C  C104  1  0.34184472  0.36759008  0.87616611  1  -0.12516  0  -0.012793  -0.065239  0  4.079353  0
C  C105  1  0.40987129  0.37548568  0.87676689  1  -0.085812  0  -0.012979  -0.063601  0  4.088108  0
C  C106  1  0.95180009  0.79110031  0.84891637  1  0.349253  0  0.080255  0.034508  0  3.927772  0
C  C107  1  0.81129949  0.95269197  0.90010164  1  0.347949  0  0.080896  0.034114  0  3.925493  0
C  C108  1  0.99877805  0.82984143  0.83507203  1  -0.13885  0  -0.001994  -0.145985  0  3.879821  0
C  C109  1  0.76365577  0.91452639  0.91349083  1  -0.129182  0  -0.001802  -0.144678  0  3.876987  0
C  C110  1  0.87837320  0.90909411  0.87506838  1  -0.139904  0  -0.012804  -0.062409  0  4.081798  0
C  C111  1  0.88183093  0.83700275  0.87113918  1  -0.089138  0  -0.013059  -0.062765  0  4.078274  0
S  S112  1  0.30177054  0.32488797  0.39616389  1  0.390241  0  0.150692  0.228374  0  2.79246  0
S  S113  1  0.45825672  0.42150270  0.35006162  1  0.401511  0  0.146528  0.225588  0  2.814469  0
S  S114  1  0.66001272  0.63246817  0.56239701  1  0.396055  0  0.153935  0.234576  0  2.788254  0
S  S115  1  0.58390463  0.61856010  0.68898687  1  0.391045  0  0.148528  0.228262  0  2.811265  0
S  S116  1  0.13371123  0.16575912  0.55963186  1  0.394989  0  0.147057  0.226163  0  2.811212  0
S  S117  1  0.11715706  0.09130647  0.68629685  1  0.384073  0  0.148488  0.225654  0  2.793531  0
S  S118  1  0.97315105  0.79805598  0.40433460  1  0.389536  0  0.150055  0.229786  0  2.808445  0
S  S119  1  0.77672874  0.94487768  0.34784055  1  0.399251  0  0.153947  0.234573  0  2.784509  0
S  S120  1  0.61534517  0.59213798  0.18663325  1  0.402901  0  0.150932  0.228941  0  2.79142  0
S  S121  1  0.63164774  0.66801773  0.06014546  1  0.400363  0  0.146363  0.225657  0  2.814933  0
S  S122  1  0.00814089  0.18379107  0.11337036  1  0.432732  0  0.148686  0.228492  0  2.812472  0
S  S123  1  0.23584122  0.06863146  0.13885809  1  0.420564  0  0.154699  0.235509  0  2.785265  0
S  S124  1  0.27735784  0.44482872  0.84849168  1  0.399114  0  0.157605  0.239434  0  2.786412  0
S  S125  1  0.47462950  0.29850826  0.90435901  1  0.407098  0  0.148462  0.228715  0  2.812377  0
S  S126  1  0.95804729  0.92175700  0.85006089  1  0.396325  0  0.147407  0.226057  0  2.810884  0
S  S127  1  0.80194484  0.82463165  0.89608620  1  0.389524  0  0.149905  0.227666  0  2.794195  0
Br  Br128  1  0.78185140  0.55409571  0.39579507  1  0.018974  0  0.054922  -0.006278  0  1.525221  0
Br  Br129  1  0.98757076  0.21128965  0.33613798  1  0.042007  0  0.068779  0.013895  0  1.560186  0
Br  Br130  1  0.69897573  0.47990535  0.35123924  1  0.011572  0  0.047833  -0.017663  0  1.506929  0
Br  Br131  1  0.03491311  0.25505903  0.41383138  1  0.007908  0  0.049885  -0.016548  0  1.505197  0
Br  Br132  1  0.15812020  0.67305676  0.52339461  1  0.026395  0  0.059336  -0.000253  0  1.550678  0
Br  Br133  1  0.06406389  0.61006192  0.72333191  1  0.01506  0  0.050829  -0.01254  0  1.516048  0
Br  Br134  1  0.24716252  0.70400394  0.58685985  1  0.029498  0  0.06315  0.005656  0  1.547847  0
Br  Br135  1  0.03344249  0.51610967  0.66213633  1  0.039415  0  0.065027  0.009891  0  1.558966  0
Br  Br136  1  0.74084000  0.21256746  0.08469082  1  0.029471  0  0.060468  0.000799  0  1.543351  0
Br  Br137  1  0.54477511  0.00797985  0.16198502  1  0.016933  0  0.05361  -0.008498  0  1.5178  0
Br  Br138  1  0.64924268  0.18027242  0.02324160  1  0.030389  0  0.059893  -0.000246  0  1.543234  0
Br  Br139  1  0.57128468  0.10467356  0.22357452  1  0.019925  0  0.054028  -0.007653  0  1.519808  0
Br  Br140  1  0.19958827  0.97767866  0.85086012  1  0.010427  0  0.050053  -0.015756  0  1.512066  0
Br  Br141  1  0.53088637  0.75406966  0.91824527  1  0.003582  0  0.046488  -0.02093  0  1.5069  0
Br  Br142  1  0.28082675  0.05346332  0.89528328  1  0.037173  0  0.065232  0.009516  0  1.543692  0
Br  Br143  1  0.48898578  0.70822007  0.83942331  1  0.032224  0  0.06141  0.004008  0  1.553193  0
N  N144  1  0.30210239  0.52624291  0.41055650  1  0.386495  0  0.059233  0.52698  0  4.214753  0
N  N145  1  0.46861065  0.21162851  0.34488190  1  0.369359  0  0.059981  0.527393  0  4.218739  0
N  N146  1  0.77418404  0.54936127  0.66337543  1  0.374699  0  0.062365  0.528969  0  4.211502  0
N  N147  1  0.46842748  0.72149594  0.58951358  1  0.374031  0  0.06087  0.526355  0  4.221639  0
N  N148  1  0.02888699  0.28243364  0.65884949  1  0.384377  0  0.060185  0.525829  0  4.224556  0
N  N149  1  0.20124043  0.97527583  0.58578548  1  0.369005  0  0.063552  0.530166  0  4.210895  0
N  N150  1  0.77237343  0.78417139  0.40548418  1  0.361129  0  0.058259  0.525773  0  4.221151  0
N  N151  1  0.96967394  0.96700477  0.35714612  1  0.399817  0  0.062874  0.530459  0  4.210507  0
N  N152  1  0.70130301  0.47708704  0.08589974  1  0.396091  0  0.060279  0.528571  0  4.216553  0
N  N153  1  0.52695588  0.78348450  0.15981033  1  0.36975  0  0.060356  0.526992  0  4.219086  0
N  N154  1  0.09906381  0.08979720  0.22107513  1  0.373479  0  0.059997  0.52598  0  4.220788  0
N  N155  1  0.14193802  0.14399201  0.03111054  1  0.38194  0  0.061509  0.528298  0  4.210945  0
N  N156  1  0.47036954  0.46741589  0.85682023  1  0.394824  0  0.060261  0.527899  0  4.214328  0
N  N157  1  0.27409819  0.28364210  0.90613729  1  0.392003  0  0.060031  0.526877  0  4.220268  0
N  N158  1  0.96861146  0.71179362  0.84485695  1  0.362341  0  0.059478  0.527272  0  4.219094  0
N  N159  1  0.80178542  0.02613416  0.91070396  1  0.390679  0  0.059976  0.527643  0  4.214707  0
O  O160  1  0.00059393  0.49942268  0.49928194  1  -1.239051  0  -0.580829  -1.048774  0  2.533346  0
O  O161  1  0.06434602  0.31904663  0.52020390  1  -1.143789  0  -0.312042  -0.540389  0  2.308459  0
O  O162  1  0.00197919  0.57000888  0.57658977  1  -1.155292  0  -0.313941  -0.546617  0  2.355305  0
O  O163  1  0.14587393  0.51136832  0.43838560  1  -1.15001  0  -0.304576  -0.522705  0  2.334013  0
O  O164  1  0.04969450  0.38054730  0.57622631  1  -1.156245  0  -0.307683  -0.534174  0  2.354516  0
O  O165  1  0.16541828  0.38537302  0.45216765  1  -1.148525  0  -0.310223  -0.532749  0  2.292692  0
O  O166  1  0.11113489  0.54783046  0.53275206  1  -1.157328  0  -0.31163  -0.54119  0  2.357561  0
O  O167  1  0.99640082  0.66134558  0.45885017  1  -1.155405  0  -0.311374  -0.538248  0  2.311342  0
O  O168  1  0.88546777  0.46683124  0.45967585  1  -1.170564  0  -0.315359  -0.547669  0  2.350779  0
O  O169  1  0.90492163  0.63465115  0.43886615  1  -1.148179  0  -0.306811  -0.533391  0  2.358744  0
O  O170  1  0.00600263  0.41158347  0.42705549  1  -1.162099  0  -0.312466  -0.541956  0  2.350651  0
O  O171  1  0.87390711  0.50677850  0.57838460  1  -1.153914  0  -0.301348  -0.518229  0  2.341832  0
O  O172  1  0.81409477  0.58900286  0.52426019  1  -1.147865  0  -0.306972  -0.527769  0  2.300663  0
O  O173  1  0.75025739  0.25021095  0.24945519  1  -1.227645  0  -0.580758  -1.048336  0  2.532665  0
O  O174  1  0.60783431  0.35019946  0.30786575  1  -1.140501  0  -0.312709  -0.540023  0  2.312008  0
O  O175  1  0.70668460  0.13854665  0.21323367  1  -1.162658  0  -0.314816  -0.547712  0  2.352721  0
O  O176  1  0.74407160  0.37867992  0.17125684  1  -1.15521  0  -0.305358  -0.524682  0  2.334499  0
O  O177  1  0.59194313  0.25315344  0.28621455  1  -1.162534  0  -0.307566  -0.532915  0  2.356706  0
O  O178  1  0.65729027  0.43720459  0.22447714  1  -1.156855  0  -0.310677  -0.533912  0  2.292004  0
O  O179  1  0.68520192  0.24859980  0.17009443  1  -1.15211  0  -0.310237  -0.538662  0  2.350709  0
O  O180  1  0.87314810  0.20850683  0.17028660  1  -1.157518  0  -0.311527  -0.539297  0  2.31195  0
O  O181  1  0.83045158  0.24847143  0.32323599  1  -1.151892  0  -0.313181  -0.544786  0  2.351802  0
O  O182  1  0.92545718  0.20026398  0.22865384  1  -1.157084  0  -0.307555  -0.535007  0  2.355471  0
O  O183  1  0.77603775  0.36901450  0.29062680  1  -1.163823  0  -0.313398  -0.543628  0  2.356289  0
O  O184  1  0.74182578  0.09658228  0.30700084  1  -1.146454  0  -0.306406  -0.527707  0  2.300199  0
O  O185  1  0.86442844  0.08748668  0.29320700  1  -1.150517  0  -0.301729  -0.519054  0  2.340164  0
O  O186  1  0.25039987  0.74985122  0.74956173  1  -1.22622  0  -0.58045  -1.048353  0  2.53099  0
O  O187  1  0.37000725  0.70145567  0.67245048  1  -1.155864  0  -0.307246  -0.534281  0  2.35709  0
O  O188  1  0.33517272  0.74566450  0.82193670  1  -1.142194  0  -0.311431  -0.540725  0  2.360225  0
O  O189  1  0.15879975  0.93669142  0.72466534  1  -1.155184  0  -0.310979  -0.534405  0  2.2954  0
O  O190  1  0.43076620  0.69084488  0.72791455  1  -1.149626  0  -0.310937  -0.539496  0  2.30954  0
O  O191  1  0.24324887  0.87698457  0.67099661  1  -1.151963  0  -0.301394  -0.51729  0  2.338369  0
O  O192  1  0.27792127  0.86697122  0.79081251  1  -1.16697  0  -0.314654  -0.546622  0  2.361033  0
O  O193  1  0.10816296  0.85028311  0.80807321  1  -1.146562  0  -0.312419  -0.540456  0  2.308502  0
O  O194  1  0.20435740  0.63762306  0.71406985  1  -1.16438  0  -0.313217  -0.545511  0  2.347443  0
O  O195  1  0.09203320  0.75360707  0.78618769  1  -1.162898  0  -0.306197  -0.53152  0  2.358633  0
O  O196  1  0.18188563  0.74799067  0.67106389  1  -1.149401  0  -0.310492  -0.540499  0  2.344368  0
O  O197  1  0.36493173  0.58622880  0.79224069  1  -1.155143  0  -0.305825  -0.524749  0  2.338889  0
O  O198  1  0.24196369  0.59668608  0.80746400  1  -1.143083  0  -0.30558  -0.525652  0  2.294623  0
O  O199  1  0.50038173  0.99984297  0.99955727  1  -1.234314  0  -0.580343  -1.048106  0  2.531737  0
O  O200  1  0.49748557  0.16131492  0.95930611  1  -1.152293  0  -0.311578  -0.539952  0  2.313355  0
O  O201  1  0.38384756  0.96898821  0.95983394  1  -1.156638  0  -0.311151  -0.540469  0  2.346544  0
O  O202  1  0.66498891  0.88519021  0.95203078  1  -1.150733  0  -0.309766  -0.532421  0  2.29162  0
O  O203  1  0.40845980  0.13388930  0.93713133  1  -1.154337  0  -0.307029  -0.535078  0  2.357562  0
O  O204  1  0.64618170  0.01097950  0.93874461  1  -1.149936  0  -0.304866  -0.522844  0  2.336283  0
O  O205  1  0.50446782  0.91215556  0.92757407  1  -1.142574  0  -0.312955  -0.544336  0  2.351159  0
O  O206  1  0.56345565  0.82047932  0.02089031  1  -1.160694  0  -0.31166  -0.540045  0  2.313887  0
O  O207  1  0.50254830  0.07025361  0.07752674  1  -1.155324  0  -0.31474  -0.547206  0  2.351968  0
O  O208  1  0.54441661  0.88297410  0.07724663  1  -1.154109  0  -0.307405  -0.531718  0  2.356917  0
O  O209  1  0.61145015  0.04747643  0.03325910  1  -1.156817  0  -0.310849  -0.53838  0  2.347802  0
O  O210  1  0.31871626  0.09524959  0.02390060  1  -1.155716  0  -0.302065  -0.519767  0  2.340359  0
O  O211  1  0.37033743  0.01554485  0.08070173  1  -1.151197  0  -0.307107  -0.527453  0  2.299042  0
O  O212  1  0.33764737  0.55874103  0.38519082  1  -0.448508  0  -0.13858  -0.333218  0  1.86217  0
O  O213  1  0.26388076  0.54960807  0.44332882  1  -0.429685  0  -0.117908  -0.303841  0  1.926982  0
O  O214  1  0.41116324  0.19882626  0.34508485  1  -0.44945  0  -0.138234  -0.333034  0  1.8575  0
O  O215  1  0.53580464  0.16305883  0.34319428  1  -0.420947  0  -0.122636  -0.306947  0  1.89803  0
O  O216  1  0.74780796  0.52457331  0.69723524  1  -0.447335  0  -0.137397  -0.331586  0  1.86275  0
O  O217  1  0.83645323  0.55395831  0.65620542  1  -0.409101  0  -0.115541  -0.301454  0  1.929753  0
O  O218  1  0.49144712  0.70026008  0.55417537  1  -0.448683  0  -0.138004  -0.332165  0  1.858661  0
O  O219  1  0.40799331  0.77657967  0.59924239  1  -0.414249  0  -0.121019  -0.302891  0  1.903547  0
O  O220  1  0.04964010  0.25955304  0.69425458  1  -0.448699  0  -0.137742  -0.332643  0  1.861332  0
O  O221  1  0.97362433  0.34255237  0.64909407  1  -0.409225  0  -0.118852  -0.3005  0  1.904694  0
O  O222  1  0.22627523  0.00125238  0.55186841  1  -0.439537  0  -0.138166  -0.332742  0  1.862612  0
O  O223  1  0.19653968  0.91297421  0.59316123  1  -0.406526  0  -0.114541  -0.299611  0  1.920178  0
O  O224  1  0.73112428  0.81306514  0.37673012  1  -0.441583  0  -0.137284  -0.331747  0  1.85697  0
O  O225  1  0.75824754  0.74756467  0.43804479  1  -0.418277  0  -0.124353  -0.308882  0  1.898921  0
O  O226  1  0.03293900  0.91131560  0.36146762  1  -0.453329  0  -0.136262  -0.329974  0  1.860648  0
O  O227  1  0.95642797  0.03527627  0.35611541  1  -0.42392  0  -0.117008  -0.303764  0  1.924988  0
O  O228  1  0.72550158  0.50380640  0.05194688  1  -0.457947  0  -0.139437  -0.334049  0  1.862646  0
O  O229  1  0.69893386  0.41365233  0.09328158  1  -0.4282  0  -0.119261  -0.306099  0  1.924995  0
O  O230  1  0.54908337  0.76090258  0.19491474  1  -0.438438  0  -0.138661  -0.33299  0  1.857854  0
O  O231  1  0.47081746  0.84312583  0.15052528  1  -0.418436  0  -0.122312  -0.306293  0  1.898964  0
O  O232  1  0.16328300  0.08226593  0.22736143  1  -0.45059  0  -0.137318  -0.331582  0  1.856941  0
O  O233  1  0.05434399  0.06965630  0.24636377  1  -0.417019  0  -0.120727  -0.303039  0  1.90196  0
O  O234  1  0.07794805  0.19885498  0.02726041  1  -0.447219  0  -0.136832  -0.331164  0  1.862319  0
O  O235  1  0.18397134  0.10432004  0.00365844  1  -0.415645  0  -0.115227  -0.300841  0  1.918822  0
O  O236  1  0.53352371  0.41178943  0.86169361  1  -0.448232  0  -0.138776  -0.3327  0  1.861473  0
O  O237  1  0.45760543  0.53582546  0.85472854  1  -0.437227  0  -0.121269  -0.308756  0  1.92878  0
O  O238  1  0.23214837  0.31303509  0.87771033  1  -0.445839  0  -0.136843  -0.331576  0  1.856358  0
O  O239  1  0.26089474  0.24629392  0.93860087  1  -0.425514  0  -0.119423  -0.301808  0  1.902244  0
O  O240  1  0.91102693  0.69884024  0.84570602  1  -0.447199  0  -0.137766  -0.332965  0  1.860233  0
O  O241  1  0.03583635  0.66331637  0.84261827  1  -0.419021  0  -0.12194  -0.306235  0  1.899828  0
O  O242  1  0.83660536  0.05913967  0.88516624  1  -0.449213  0  -0.13876  -0.332702  0  1.860035  0
O  O243  1  0.76423184  0.04898007  0.94370867  1  -0.431555  0  -0.119597  -0.3063  0  1.922703  0
