# generated using pymatgen
data_Ho2U3H26(C3O4)10
_symmetry_space_group_name_H-M   'P 1'
_cell_length_a   10.50931460
_cell_length_b   11.54022543
_cell_length_c   13.48815665
_cell_angle_alpha   66.73748322
_cell_angle_beta   77.48049068
_cell_angle_gamma   63.12809535
_symmetry_Int_Tables_number   1
_chemical_formula_structural   Ho2U3H26(C3O4)10
_chemical_formula_sum   'Ho2 U3 H26 C30 O40'
_cell_volume   1339.11478760
_cell_formula_units_Z   1
loop_
 _symmetry_equiv_pos_site_id
 _symmetry_equiv_pos_as_xyz
  1  'x, y, z'
loop_
 _atom_site_type_symbol
 _atom_site_label
 _atom_site_symmetry_multiplicity
 _atom_site_fract_x
 _atom_site_fract_y
 _atom_site_fract_z
 _atom_site_occupancy
 _atom_site_pbe_bader_charge
 _atom_site_pbe_bader_spin_density
 _atom_site_pbe_cm5_charge
 _atom_site_pbe_ddec_charge
 _atom_site_pbe_ddec_spin_density
 _atom_site_pbe_ddec_sum_bond_order
 _atom_site_pbe_magmom
Ho  Ho0  1  0.58548615  0.24552741  0.74302569  1  2.209022  0  1.519026  2.146971  0  2.037369  0
Ho  Ho1  1  0.41450316  0.75447835  0.25697574  1  2.209046  0  1.519014  2.147012  0  2.037296  0
U  U2  1  0.61738556  0.71313084  0.84293660  1  2.921172  0  2.199635  2.442832  0  4.798869  0
U  U3  1  0.38262252  0.28687937  0.15704854  1  2.921159  0  2.199713  2.442924  0  4.798793  0
U  U4  1  0.99999834  0.49999543  0.49999213  1  2.901996  0  2.158387  2.418422  0  4.704518  0
H  H5  1  0.09242549  0.36724197  0.96847154  1  0.141134  0  0.123153  0.139913  0  0.998304  0
H  H6  1  0.90756471  0.63275234  0.03153638  1  0.141518  0  0.123132  0.139842  0  0.998394  0
H  H7  1  0.15207411  0.10605640  0.73254387  1  0.116027  0  0.117259  0.130262  0  0.993805  0
H  H8  1  0.84792040  0.89394623  0.26745848  1  0.116029  0  0.117264  0.130223  0  0.993814  0
H  H9  1  0.72980635  0.00473229  0.40779109  1  0.093707  0  0.119212  0.130649  0  0.975016  0
H  H10  1  0.27020488  0.99526322  0.59220715  1  0.093633  0  0.119192  0.13062  0  0.975129  0
H  H11  1  0.65212207  0.21527640  0.53159098  1  0.672854  0  0.297194  0.395812  0  0.944748  0
H  H12  1  0.34788616  0.78472814  0.46841524  1  0.672767  0  0.297161  0.395724  0  0.944835  0
H  H13  1  0.71539891  0.06532683  0.62216596  1  0.613948  0  0.333685  0.42948  0  0.856567  0
H  H14  1  0.28462512  0.93468189  0.37783490  1  0.613774  0  0.333704  0.429486  0  0.856371  0
H  H15  1  0.55338183  0.52465488  0.59214590  1  0.649803  0  0.307627  0.395089  0  0.945571  0
H  H16  1  0.44661906  0.47534873  0.40785733  1  0.649838  0  0.307631  0.395105  0  0.945582  0
H  H17  1  0.71795465  0.41677541  0.59725281  1  0.647448  0  0.309603  0.395616  0  0.945182  0
H  H18  1  0.28204380  0.58321797  0.40275039  1  0.64741  0  0.30966  0.395729  0  0.945043  0
H  H19  1  0.38017837  0.46460726  0.57478536  1  0.646342  0  0.318955  0.419062  0  0.892148  0
H  H20  1  0.61981958  0.53539625  0.42522208  1  0.646318  0  0.318907  0.41901  0  0.892234  0
H  H21  1  0.27348747  0.40804235  0.65367669  1  0.665935  0  0.318545  0.43444  0  0.870435  0
H  H22  1  0.72651101  0.59195118  0.34632052  1  0.666072  0  0.318491  0.434327  0  0.870577  0
H  H23  1  0.49460027  0.51799174  0.78102860  1  0.65664  0  0.310312  0.412698  0  0.909418  0
H  H24  1  0.50539640  0.48200556  0.21898178  1  0.656572  0  0.310294  0.412728  0  0.90939  0
H  H25  1  0.49619442  0.40176298  0.89417203  1  0.633807  0  0.316013  0.430001  0  0.882567  0
H  H26  1  0.50380877  0.59822816  0.10583780  1  0.633903  0  0.31603  0.430029  0  0.882523  0
H  H27  1  0.73593966  0.93494427  0.86744549  1  0.650937  0  0.309846  0.411276  0  0.917495  0
H  H28  1  0.26406220  0.06504987  0.13256730  1  0.650957  0  0.30981  0.411171  0  0.917655  0
H  H29  1  0.83291303  0.01442514  0.85633589  1  0.622787  0  0.333627  0.423548  0  0.862627  0
H  H30  1  0.16709191  0.98557136  0.14366452  1  0.622775  0  0.33361  0.423509  0  0.862698  0
C  C31  1  0.98998008  0.34040513  0.86262855  1  0.021357  0  0.000118  -0.036026  0  3.941018  0
C  C32  1  0.01001415  0.65959141  0.13737208  1  0.021352  0  0.000195  -0.035814  0  3.940866  0
C  C33  1  0.10674246  0.30989018  0.91621672  1  -0.003188  0  -0.055743  -0.078669  0  3.88928  0
C  C34  1  0.89324981  0.69010632  0.08378572  1  -0.003665  0  -0.055745  -0.078718  0  3.889218  0
C  C35  1  0.24235890  0.21345821  0.89859498  1  -0.052658  0  -0.005151  -0.087085  0  3.964473  0
C  C36  1  0.75763335  0.78654770  0.10140000  1  -0.052804  0  -0.005114  -0.086915  0  3.964032  0
C  C37  1  0.25888451  0.14264572  0.82886952  1  0.015976  0  0.01073  -0.017354  0  3.9083  0
C  C38  1  0.74111531  0.85735589  0.17113231  1  0.016393  0  0.010671  -0.017535  0  3.90829  0
C  C39  1  0.13876013  0.16394020  0.78390860  1  -0.023857  0  -0.071327  -0.125598  0  3.926706  0
C  C40  1  0.86123634  0.83606254  0.21608969  1  -0.024004  0  -0.071297  -0.125477  0  3.926752  0
C  C41  1  0.00470142  0.26457509  0.79769993  1  -0.012417  0  0.018086  -0.020475  0  3.90989  0
C  C42  1  0.99529694  0.73541630  0.20230096  1  -0.012251  0  0.018089  -0.020474  0  3.909957  0
C  C43  1  0.62814768  0.00381083  0.44784197  1  0.00758  0  -0.066221  -0.109836  0  3.919113  0
C  C44  1  0.37185962  0.99618454  0.55216214  1  0.00777  0  -0.066233  -0.109877  0  3.919414  0
C  C45  1  0.62110706  0.87612273  0.50625054  1  0.028727  0  0.008635  -0.010233  0  3.914555  0
C  C46  1  0.37889699  0.12387574  0.49375310  1  0.028582  0  0.008667  -0.01018  0  3.914559  0
C  C47  1  0.49115344  0.87251783  0.55920601  1  -0.047951  0  0.008554  -0.056624  0  3.956433  0
C  C48  1  0.50884858  0.12747871  0.44079338  1  -0.047858  0  0.008527  -0.056793  0  3.956214  0
C  C49  1  0.85566148  0.46095049  0.86761756  1  1.521224  0  0.211241  0.570235  0  4.193238  0
C  C50  1  0.14434010  0.53904707  0.13238232  1  1.521036  0  0.211111  0.570026  0  4.193398  0
C  C51  1  0.36165062  0.19052189  0.95745165  1  1.574388  0  0.253059  0.655862  0  4.114025  0
C  C52  1  0.63834500  0.80947352  0.04255283  1  1.574405  0  0.252985  0.655807  0  4.114055  0
C  C53  1  0.40092293  0.04565715  0.79715717  1  1.618356  0  0.245373  0.653096  0  4.14947  0
C  C54  1  0.59907442  0.95435302  0.20283119  1  1.619416  0  0.245486  0.653258  0  4.149396  0
C  C55  1  0.88452576  0.29144305  0.73628833  1  1.631023  0  0.255857  0.672519  0  4.10498  0
C  C56  1  0.11546713  0.70855647  0.26371601  1  1.630641  0  0.255663  0.672196  0  4.1053  0
C  C57  1  0.47410550  0.74010691  0.62469296  1  1.606353  0  0.251358  0.63466  0  4.139308  0
C  C58  1  0.52589998  0.25989063  0.37530704  1  1.606415  0  0.251472  0.634897  0  4.138842  0
C  C59  1  0.75228778  0.74753674  0.51042481  1  1.556984  0  0.210914  0.56791  0  4.206499  0
C  C60  1  0.24771535  0.25246210  0.48956477  1  1.556888  0  0.210875  0.567885  0  4.206657  0
O  O61  1  0.52587756  0.63413622  0.96219201  1  -0.883059  0  -0.74431  -0.702681  0  1.857832  0
O  O62  1  0.47413360  0.36585742  0.03779943  1  -0.88343  0  -0.744406  -0.70265  0  1.858354  0
O  O63  1  0.71151430  0.79389726  0.72866607  1  -0.856025  0  -0.758182  -0.68879  0  1.816838  0
O  O64  1  0.28849113  0.20610950  0.27133395  1  -0.855727  0  -0.758138  -0.688903  0  1.816319  0
O  O65  1  0.08585050  0.48714534  0.60983690  1  -0.886696  0  -0.749275  -0.712921  0  1.859844  0
O  O66  1  0.91415561  0.51284436  0.39014919  1  -0.887207  0  -0.749438  -0.713016  0  1.860017  0
O  O67  1  0.84561392  0.53672183  0.91983340  1  -1.133792  0  -0.345068  -0.577861  0  2.169138  0
O  O68  1  0.15438017  0.46327244  0.08017540  1  -1.133714  0  -0.344968  -0.577765  0  2.169246  0
O  O69  1  0.75070082  0.49412908  0.81375724  1  -1.124947  0  -0.333761  -0.560869  0  2.26934  0
O  O70  1  0.24930755  0.50588729  0.18622736  1  -1.124685  0  -0.333705  -0.560803  0  2.269347  0
O  O71  1  0.79912899  0.23477784  0.78359190  1  -1.183598  0  -0.368856  -0.642045  0  2.260598  0
O  O72  1  0.20085801  0.76523090  0.21641340  1  -1.18342  0  -0.368742  -0.641877  0  2.260726  0
O  O73  1  0.88140768  0.36315632  0.63558187  1  -1.161903  0  -0.337525  -0.595323  0  2.380635  0
O  O74  1  0.11859721  0.63682893  0.36441771  1  -1.161544  0  -0.337507  -0.595235  0  2.380729  0
O  O75  1  0.41269163  0.92324550  0.81716482  1  -1.153297  0  -0.36997  -0.625277  0  2.272467  0
O  O76  1  0.58731046  0.07676244  0.18282941  1  -1.153543  0  -0.370064  -0.625364  0  2.272428  0
O  O77  1  0.49619809  0.08911724  0.75039881  1  -1.17533  0  -0.367142  -0.654504  0  2.342016  0
O  O78  1  0.50379751  0.91089706  0.24958850  1  -1.176298  0  -0.367132  -0.654545  0  2.342016  0
O  O79  1  0.48321110  0.17756862  0.91373312  1  -1.180758  0  -0.36658  -0.627034  0  2.322251  0
O  O80  1  0.51678169  0.82242883  0.08627190  1  -1.181137  0  -0.366636  -0.627129  0  2.322269  0
O  O81  1  0.32933018  0.18695178  0.05661435  1  -1.172717  0  -0.364818  -0.635085  0  2.352837  0
O  O82  1  0.67065893  0.81304982  0.94338919  1  -1.17274  0  -0.364748  -0.635063  0  2.352851  0
O  O83  1  0.49461121  0.68978964  0.72625245  1  -1.164483  0  -0.352122  -0.610718  0  2.31759  0
O  O84  1  0.50538949  0.31020991  0.27374990  1  -1.164463  0  -0.352223  -0.610836  0  2.31743  0
O  O85  1  0.43198795  0.68720515  0.57961400  1  -1.173872  0  -0.281593  -0.515266  0  2.205407  0
O  O86  1  0.56801176  0.31280385  0.42037954  1  -1.173807  0  -0.281609  -0.515322  0  2.205208  0
O  O87  1  0.74775309  0.62936483  0.55840055  1  -1.135373  0  -0.325713  -0.578256  0  2.288028  0
O  O88  1  0.25225429  0.37063095  0.44158784  1  -1.13545  0  -0.325691  -0.578217  0  2.287891  0
O  O89  1  0.86963023  0.75416232  0.46382188  1  -1.135225  0  -0.337143  -0.576783  0  2.206846  0
O  O90  1  0.13037413  0.24583148  0.53616467  1  -1.134758  0  -0.337083  -0.576687  0  2.206824  0
O  O91  1  0.70164211  0.16107023  0.60206971  1  -1.24954  0  -0.648504  -0.842151  0  2.032409  0
O  O92  1  0.29836837  0.83894052  0.39793341  1  -1.249323  0  -0.64851  -0.842075  0  2.032272  0
O  O93  1  0.61866321  0.43042778  0.58995296  1  -1.27662  0  -0.627641  -0.829213  0  2.07675  0
O  O94  1  0.38133076  0.56957381  0.41005055  1  -1.276635  0  -0.627717  -0.829408  0  2.076554  0
O  O95  1  0.37443916  0.39394166  0.64443015  1  -1.285356  0  -0.635071  -0.864335  0  2.035458  0
O  O96  1  0.62555588  0.60606196  0.35557402  1  -1.285451  0  -0.634962  -0.86417  0  2.035558  0
O  O97  1  0.49629970  0.42402940  0.81539907  1  -1.263447  0  -0.646016  -0.88242  0  2.050134  0
O  O98  1  0.50370327  0.57596692  0.18460840  1  -1.263496  0  -0.646003  -0.882468  0  2.050121  0
O  O99  1  0.75760718  0.01668476  0.82366206  1  -1.238321  0  -0.628994  -0.837627  0  2.066568  0
O  O100  1  0.24238886  0.98330953  0.17634568  1  -1.238364  0  -0.62896  -0.837483  0  2.066747  0
