# generated using pymatgen
data_CdH28C26(NO)4
_symmetry_space_group_name_H-M   'P 1'
_cell_length_a   9.21335275
_cell_length_b   10.72211799
_cell_length_c   13.15677836
_cell_angle_alpha   74.71276841
_cell_angle_beta   73.91243938
_cell_angle_gamma   83.09293080
_symmetry_Int_Tables_number   1
_chemical_formula_structural   CdH28C26(NO)4
_chemical_formula_sum   'Cd2 H56 C52 N8 O8'
_cell_volume   1203.06564874
_cell_formula_units_Z   2
loop_
 _symmetry_equiv_pos_site_id
 _symmetry_equiv_pos_as_xyz
  1  'x, y, z'
loop_
 _atom_site_type_symbol
 _atom_site_label
 _atom_site_symmetry_multiplicity
 _atom_site_fract_x
 _atom_site_fract_y
 _atom_site_fract_z
 _atom_site_occupancy
 _atom_site_hle17_bader_spin_density
 _atom_site_hle17_ddec_charge
 _atom_site_hle17_ddec_spin_density
 _atom_site_hle17_ddec_sum_bond_order
 _atom_site_hle17_magmom
 _atom_site_hse06_10hf_bader_spin_density
 _atom_site_hse06_10hf_ddec_charge
 _atom_site_hse06_10hf_ddec_spin_density
 _atom_site_hse06_10hf_ddec_sum_bond_order
 _atom_site_hse06_10hf_magmom
 _atom_site_hse06_bader_spin_density
 _atom_site_hse06_ddec_charge
 _atom_site_hse06_ddec_spin_density
 _atom_site_hse06_ddec_sum_bond_order
 _atom_site_hse06_magmom
 _atom_site_pbe_bader_spin_density
 _atom_site_pbe_cm5_charge
 _atom_site_pbe_ddec_charge
 _atom_site_pbe_ddec_spin_density
 _atom_site_pbe_ddec_sum_bond_order
 _atom_site_pbe_magmom
Cd  Cd0  1  0.18232139  0.38474267  0.99480585  1  0  1.099654  0  1.701227  0  0  0.901795  0  2.151898  0  0  0.96393  0  2.098977  0  0  0.761383  0.85784  0  2.188054  0
Cd  Cd1  1  0.81767826  0.61525847  0.00519370  1  0  1.099635  0  1.701243  0  0  0.901772  0  2.151909  0  0  0.963908  0  2.098988  0  0  0.761368  0.857817  0  2.188067  0
H  H2  1  0.42788379  0.65927412  0.59309952  1  0  0.111456  0  0.967494  0  0  0.119012  0  1.033258  0  0  0.122349  0  1.031584  0  0  0.11231  0.116535  0  1.034709  0
H  H3  1  0.57211712  0.34072508  0.40690172  1  0  0.111444  0  0.967476  0  0  0.118986  0  1.033261  0  0  0.122321  0  1.031588  0  0  0.112291  0.11651  0  1.034711  0
H  H4  1  0.90366815  0.11176466  0.39272223  1  0  0.110416  0  0.973234  0  0  0.115324  0  1.044519  0  0  0.119018  0  1.04234  0  0  0.111878  0.112758  0  1.046011  0
H  H5  1  0.09632810  0.88823649  0.60727648  1  0  0.110442  0  0.973206  0  0  0.115336  0  1.044493  0  0  0.119032  0  1.042309  0  0  0.111881  0.112767  0  1.045986  0
H  H6  1  0.40049993  0.61001638  0.98012322  1  0  0.092479  0  0.93741  0  0  0.098181  0  1.004525  0  0  0.100967  0  1.001971  0  0  0.121075  0.096171  0  1.00632  0
H  H7  1  0.59950215  0.38998184  0.01987647  1  0  0.092461  0  0.937364  0  0  0.098224  0  1.004414  0  0  0.101009  0  1.00186  0  0  0.121115  0.096218  0  1.006214  0
H  H8  1  0.25268643  0.50847648  0.74362442  1  0  0.080374  0  0.940999  0  0  0.09033  0  1.003507  0  0  0.092119  0  1.002353  0  0  0.118274  0.088768  0  1.00483  0
H  H9  1  0.74731553  0.49152369  0.25637488  1  0  0.080367  0  0.94104  0  0  0.090326  0  1.003547  0  0  0.092115  0  1.002392  0  0  0.118285  0.088763  0  1.00487  0
H  H10  1  0.08059361  0.26943348  0.24935259  1  0  0.083027  0  0.953807  0  0  0.092086  0  1.015092  0  0  0.094614  0  1.013233  0  0  0.11594  0.090397  0  1.0162  0
H  H11  1  0.91940379  0.73056766  0.75064817  1  0  0.083013  0  0.953783  0  0  0.092069  0  1.015074  0  0  0.094599  0  1.013215  0  0  0.115933  0.090379  0  1.01618  0
H  H12  1  0.57423233  0.76688770  0.84264490  1  0  0.1234  0  0.945146  0  0  0.131644  0  1.006753  0  0  0.135119  0  1.005258  0  0  0.113268  0.129139  0  1.00815  0
H  H13  1  0.42577204  0.23311051  0.15735737  1  0  0.123437  0  0.945144  0  0  0.131665  0  1.00676  0  0  0.135139  0  1.005265  0  0  0.113283  0.129162  0  1.008154  0
H  H14  1  0.32810263  0.67219927  0.14809825  1  0  0.089097  0  0.95112  0  0  0.102379  0  1.016613  0  0  0.104343  0  1.015986  0  0  0.089797  0.100962  0  1.017074  0
H  H15  1  0.67189719  0.32779896  0.85190264  1  0  0.089099  0  0.951138  0  0  0.102371  0  1.016642  0  0  0.104334  0  1.016019  0  0  0.089803  0.100954  0  1.017113  0
H  H16  1  0.20694526  0.81433777  0.13981417  1  0  0.065896  0  0.927787  0  0  0.083705  0  0.988131  0  0  0.084868  0  0.988066  0  0  0.083716  0.082943  0  0.988087  0
H  H17  1  0.79305326  0.18566337  0.86018485  1  0  0.065913  0  0.927829  0  0  0.083725  0  0.988166  0  0  0.084888  0  0.988104  0  0  0.083719  0.082962  0  0.988122  0
H  H18  1  0.79244830  0.99955552  0.13236531  1  0  0.12066  0  0.95403  0  0  0.12839  0  1.016588  0  0  0.132041  0  1.015289  0  0  0.110035  0.125627  0  1.017959  0
H  H19  1  0.20755152  0.00044271  0.86763483  1  0  0.120678  0  0.954031  0  0  0.128412  0  1.016581  0  0  0.132063  0  1.015285  0  0  0.110045  0.125647  0  1.017954  0
H  H20  1  0.27496161  0.48970765  0.32204819  1  0  0.080297  0  0.963242  0  0  0.093683  0  1.029731  0  0  0.095247  0  1.030048  0  0  0.084277  0.092489  0  1.029697  0
H  H21  1  0.72503697  0.51029252  0.67795178  1  0  0.080288  0  0.963227  0  0  0.093678  0  1.029715  0  0  0.095241  0  1.030033  0  0  0.084275  0.092485  0  1.029682  0
H  H22  1  0.11806571  0.50631402  0.43272673  1  0  0.057972  0  0.951236  0  0  0.071786  0  1.023109  0  0  0.07292  0  1.022567  0  0  0.079783  0.070872  0  1.023702  0
H  H23  1  0.88193286  0.49368616  0.56727325  1  0  0.057985  0  0.951243  0  0  0.071801  0  1.023117  0  0  0.072933  0  1.022576  0  0  0.079788  0.070891  0  1.023708  0
H  H24  1  0.33324646  0.93931605  0.34037439  1  0  0.060868  0  0.95859  0  0  0.075026  0  1.029618  0  0  0.075884  0  1.02944  0  0  0.083002  0.074592  0  1.029437  0
H  H25  1  0.66675334  0.06068219  0.65962499  1  0  0.060879  0  0.958605  0  0  0.075036  0  1.029627  0  0  0.075875  0  1.029468  0  0  0.083009  0.074602  0  1.029442  0
H  H26  1  0.21272036  0.97458628  0.25043842  1  0  0.063526  0  0.9472  0  0  0.080176  0  1.011629  0  0  0.080807  0  1.012865  0  0  0.081846  0.079531  0  1.011195  0
H  H27  1  0.78727936  0.02541388  0.74956209  1  0  0.063538  0  0.947192  0  0  0.08019  0  1.011615  0  0  0.08082  0  1.012847  0  0  0.081844  0.079543  0  1.011181  0
H  H28  1  0.69583675  0.86389583  0.64718179  1  0  0.074657  0  0.936868  0  0  0.084187  0  1.003459  0  0  0.087589  0  0.999539  0  0  0.119115  0.081711  0  1.006315  0
H  H29  1  0.30416411  0.13610339  0.35281565  1  0  0.074653  0  0.936915  0  0  0.084196  0  1.003485  0  0  0.087597  0  0.999568  0  0  0.119129  0.081721  0  1.006342  0
H  H30  1  0.97241417  0.16402335  0.99980227  1  0  0.085886  0  0.929073  0  0  0.094682  0  0.991541  0  0  0.09714  0  0.989404  0  0  0.119913  0.092944  0  0.992924  0
H  H31  1  0.02758710  0.83597417  0.00019893  1  0  0.085905  0  0.928993  0  0  0.09466  0  0.991505  0  0  0.097116  0  0.989372  0  0  0.119921  0.092928  0  0.992891  0
H  H32  1  0.66569588  0.89492956  0.32312472  1  0  0.083563  0  0.931247  0  0  0.091001  0  1.001386  0  0  0.095082  0  0.996395  0  0  0.121028  0.088168  0  1.004654  0
H  H33  1  0.33430157  0.10507062  0.67687624  1  0  0.083588  0  0.931217  0  0  0.091029  0  1.001359  0  0  0.095111  0  0.996367  0  0  0.121037  0.088193  0  1.004626  0
H  H34  1  0.95038997  0.54312032  0.31257870  1  0  0.096897  0  0.927451  0  0  0.113277  0  0.989345  0  0  0.115529  0  0.988026  0  0  0.09845  0.111672  0  0.990469  0
H  H35  1  0.04960749  0.45687985  0.68742302  1  0  0.096836  0  0.927414  0  0  0.113236  0  0.989303  0  0  0.11549  0  0.987985  0  0  0.098424  0.111635  0  0.990423  0
H  H36  1  0.95089658  0.68528595  0.20882289  1  0  0.113272  0  0.941562  0  0  0.126009  0  1.006524  0  0  0.128853  0  1.004596  0  0  0.097314  0.123895  0  1.008159  0
H  H37  1  0.04910653  0.31471420  0.79117770  1  0  0.113221  0  0.941609  0  0  0.125962  0  1.006566  0  0  0.128809  0  1.004638  0  0  0.097309  0.123849  0  1.008202  0
H  H38  1  0.42889754  0.94160372  0.08660055  1  0  0.10324  0  0.93287  0  0  0.118773  0  0.991224  0  0  0.121063  0  0.990064  0  0  0.096144  0.117141  0  0.992179  0
H  H39  1  0.57110120  0.05839355  0.91340000  1  0  0.10331  0  0.932861  0  0  0.118851  0  0.991194  0  0  0.121146  0  0.990029  0  0  0.096152  0.117219  0  0.992151  0
H  H40  1  0.53196210  0.94381913  0.18194553  1  0  0.084749  0  0.950258  0  0  0.098679  0  1.01638  0  0  0.100453  0  1.01571  0  0  0.088437  0.097382  0  1.017071  0
H  H41  1  0.46803756  0.05618200  0.81805478  1  0  0.084759  0  0.950267  0  0  0.098682  0  1.016403  0  0  0.100456  0  1.015735  0  0  0.088436  0.097391  0  1.017087  0
H  H42  1  0.50507195  0.73844518  0.35323729  1  0  0.066994  0  0.946885  0  0  0.080438  0  1.018391  0  0  0.082165  0  1.016796  0  0  0.082826  0.079263  0  1.019379  0
H  H43  1  0.49493109  0.26155595  0.64676159  1  0  0.066994  0  0.946862  0  0  0.080434  0  1.018375  0  0  0.082163  0  1.016781  0  0  0.082826  0.07926  0  1.019361  0
H  H44  1  0.50195477  0.62708721  0.27570818  1  0  0.066891  0  0.973031  0  0  0.083775  0  1.037402  0  0  0.084145  0  1.039337  0  0  0.084595  0.083398  0  1.036295  0
H  H45  1  0.49804497  0.37291295  0.72429384  1  0  0.06689  0  0.973038  0  0  0.083777  0  1.037412  0  0  0.084151  0  1.039346  0  0  0.084603  0.083402  0  1.036305  0
H  H46  1  0.98527962  0.83439173  0.29569532  1  0  0.057254  0  0.981091  0  0  0.0741  0  1.047188  0  0  0.073927  0  1.049491  0  0  0.08174  0.074278  0  1.045653  0
H  H47  1  0.01472105  0.16561134  0.70430362  1  0  0.057266  0  0.981126  0  0  0.074085  0  1.047254  0  0  0.073911  0  1.049559  0  0  0.081744  0.07426  0  1.045718  0
H  H48  1  0.94561605  0.71049085  0.41749045  1  0  0.067857  0  0.932671  0  0  0.085071  0  0.993711  0  0  0.085941  0  0.99419  0  0  0.084772  0.08451  0  0.993244  0
H  H49  1  0.05438589  0.28951028  0.58251017  1  0  0.067886  0  0.932653  0  0  0.085101  0  0.993683  0  0  0.08597  0  0.994164  0  0  0.084768  0.084536  0  0.993215  0
H  H50  1  0.06529357  0.89326684  0.44278570  1  0  0.033606  0  0.931999  0  0  0.047012  0  0.996558  0  0  0.047862  0  0.995991  0  0  0.084203  0.046672  0  0.996584  0
H  H51  1  0.93470842  0.10673331  0.55721588  1  0  0.033643  0  0.931935  0  0  0.047058  0  0.996494  0  0  0.047907  0  0.995926  0  0  0.084207  0.046719  0  0.996519  0
H  H52  1  0.35883256  0.54681369  0.46918551  1  0  0.032148  0  0.919914  0  0  0.050332  0  0.972495  0  0  0.050581  0  0.973266  0  0  0.085591  0.050188  0  0.972006  0
H  H53  1  0.64116597  0.45318745  0.53081503  1  0  0.03213  0  0.919855  0  0  0.050281  0  0.972435  0  0  0.05053  0  0.973207  0  0  0.085564  0.05014  0  0.971944  0
H  H54  1  0.12048589  0.66766883  0.54512135  1  0  0.057927  0  0.941293  0  0  0.076822  0  1.003248  0  0  0.077623  0  1.003586  0  0  0.082  0.076205  0  1.0031  0
H  H55  1  0.87951607  0.33233133  0.45487795  1  0  0.057922  0  0.941307  0  0  0.076823  0  1.003258  0  0  0.077624  0  1.003598  0  0  0.081996  0.076209  0  1.003109  0
H  H56  1  0.27857665  0.76484774  0.51039851  1  0  0.061345  0  0.967955  0  0  0.073805  0  1.043114  0  0  0.075125  0  1.042706  0  0  0.082807  0.07288  0  1.043421  0
H  H57  1  0.72142292  0.23515532  0.48960217  1  0  0.061353  0  0.968017  0  0  0.073805  0  1.043179  0  0  0.075127  0  1.04277  0  0  0.0828  0.072882  0  1.043488  0
C  C58  1  0.51407184  0.72695546  0.70513943  1  0  0.085222  0  3.796593  0  0  0.099523  0  4.030415  0  0  0.101269  0  4.053242  0  0  0.009658  0.098529  0  4.014969  0
C  C59  1  0.48592770  0.27304762  0.29485897  1  0  0.085217  0  3.796611  0  0  0.099434  0  4.030549  0  0  0.101176  0  4.053383  0  0  0.009623  0.098449  0  4.015101  0
C  C60  1  0.42185895  0.65218058  0.67808449  1  0  -0.135119  0  3.686553  0  0  -0.156477  0  3.935364  0  0  -0.162928  0  3.956682  0  0  -0.072589  -0.152344  0  3.921743  0
C  C61  1  0.57814067  0.34782152  0.32191639  1  0  -0.135143  0  3.686601  0  0  -0.156449  0  3.935412  0  0  -0.162903  0  3.956745  0  0  -0.072552  -0.152316  0  3.921778  0
C  C62  1  0.91554081  0.12177416  0.30643315  1  0  -0.133926  0  3.68589  0  0  -0.155634  0  3.935691  0  0  -0.162266  0  3.956802  0  0  -0.07155  -0.151527  0  3.922148  0
C  C63  1  0.08446006  0.87822505  0.69356505  1  0  -0.133903  0  3.685856  0  0  -0.155592  0  3.935647  0  0  -0.162223  0  3.956757  0  0  -0.071554  -0.151489  0  3.922103  0
C  C64  1  0.13350603  0.66409506  0.28836923  1  0  0.166925  0  3.550966  0  0  0.194663  0  3.775416  0  0  0.195351  0  3.795004  0  0  -0.017724  0.194278  0  3.761923  0
C  C65  1  0.86649365  0.33590607  0.71163184  1  0  0.16687  0  3.550991  0  0  0.194664  0  3.775368  0  0  0.195365  0  3.794916  0  0  -0.017744  0.194283  0  3.761871  0
C  C66  1  0.40754020  0.62476808  0.89367374  1  0  0.144159  0  3.659531  0  0  0.113777  0  3.911915  0  0  0.12099  0  3.929446  0  0  0.057406  0.109059  0  3.899976  0
C  C67  1  0.59246062  0.37523210  0.10632502  1  0  0.14414  0  3.659343  0  0  0.113723  0  3.911712  0  0  0.120938  0  3.929241  0  0  0.057384  0.109002  0  3.899788  0
C  C68  1  0.83146160  0.04600537  0.27343000  1  0  0.092407  0  3.788847  0  0  0.107978  0  4.019469  0  0  0.110854  0  4.041877  0  0  0.011597  0.106035  0  4.004995  0
C  C69  1  0.16853574  0.95399674  0.72656981  1  0  0.09238  0  3.788922  0  0  0.107961  0  4.019532  0  0  0.11084  0  4.041936  0  0  0.011581  0.106018  0  4.005052  0
C  C70  1  0.32608926  0.56839290  0.76094255  1  0  0.11881  0  3.727153  0  0  0.089529  0  3.980605  0  0  0.095431  0  4.000544  0  0  0.045036  0.085493  0  3.967358  0
C  C71  1  0.67391164  0.43160629  0.23905793  1  0  0.118818  0  3.727279  0  0  0.089534  0  3.980724  0  0  0.095436  0  4.00066  0  0  0.04502  0.085505  0  3.967476  0
C  C72  1  0.09447467  0.52980977  0.15933225  1  0  0.697001  0  3.855805  0  0  0.650772  0  4.151285  0  0  0.684855  0  4.144985  0  0  0.198506  0.627787  0  4.154536  0
C  C73  1  0.90552518  0.47018750  0.84066656  1  0  0.696898  0  3.855955  0  0  0.650627  0  4.151514  0  0  0.68471  0  4.145219  0  0  0.198423  0.627642  0  4.154766  0
C  C74  1  0.01325733  0.20806570  0.22781090  1  0  0.115399  0  3.720428  0  0  0.086703  0  3.971673  0  0  0.09254  0  3.991036  0  0  0.044151  0.082914  0  3.958568  0
C  C75  1  0.98674468  0.79193350  0.77218784  1  0  0.115389  0  3.720406  0  0  0.086691  0  3.971646  0  0  0.092525  0  3.991013  0  0  0.044142  0.082903  0  3.958536  0
C  C76  1  0.50555784  0.71270430  0.81560246  1  0  -0.117979  0  3.649402  0  0  -0.13837  0  3.896488  0  0  -0.144483  0  3.916186  0  0  -0.066097  -0.1343  0  3.88324  0
C  C77  1  0.49444060  0.28729877  0.18439844  1  0  -0.117956  0  3.649432  0  0  -0.138318  0  3.896563  0  0  -0.144431  0  3.91626  0  0  -0.066086  -0.134255  0  3.883323  0
C  C78  1  0.61112384  0.79589546  0.09463177  1  0  0.68472  0  3.879808  0  0  0.642334  0  4.17486  0  0  0.676  0  4.168929  0  0  0.185036  0.619437  0  4.17799  0
C  C79  1  0.38887703  0.20410375  0.90536567  1  0  0.684759  0  3.879637  0  0  0.642346  0  4.174744  0  0  0.676012  0  4.168819  0  0  0.185059  0.61945  0  4.177874  0
C  C80  1  0.36059515  0.80182345  0.24122385  1  0  0.166395  0  3.529878  0  0  0.192185  0  3.760508  0  0  0.192746  0  3.780321  0  0  -0.013257  0.191955  0  3.746741  0
C  C81  1  0.63940456  0.19817672  0.75877589  1  0  0.16638  0  3.529929  0  0  0.192177  0  3.760565  0  0  0.192739  0  3.780383  0  0  -0.013257  0.191946  0  3.7468  0
C  C82  1  0.25889493  0.73827408  0.19584104  1  0  -0.213072  0  3.580211  0  0  -0.25261  0  3.808784  0  0  -0.25585  0  3.823589  0  0  -0.162686  -0.250165  0  3.798349  0
C  C83  1  0.74110359  0.26172707  0.80415798  1  0  -0.213064  0  3.580285  0  0  -0.252597  0  3.808812  0  0  -0.255844  0  3.823624  0  0  -0.162675  -0.250152  0  3.798382  0
C  C84  1  0.85194430  0.05988029  0.16121498  1  0  -0.15177  0  3.671148  0  0  -0.169222  0  3.91457  0  0  -0.176984  0  3.935679  0  0  -0.073446  -0.164427  0  3.901001  0
C  C85  1  0.14805421  0.94012085  0.83878404  1  0  -0.15176  0  3.671109  0  0  -0.169226  0  3.914534  0  0  -0.176989  0  3.935642  0  0  -0.073427  -0.164433  0  3.90097  0
C  C86  1  0.20748860  0.55961070  0.36638335  1  0  -0.195609  0  3.623477  0  0  -0.240085  0  3.86644  0  0  -0.242353  0  3.880391  0  0  -0.168343  -0.238277  0  3.856763  0
C  C87  1  0.79251009  0.44038753  0.63361702  1  0  -0.19559  0  3.623566  0  0  -0.240098  0  3.866456  0  0  -0.242375  0  3.880426  0  0  -0.168341  -0.238293  0  3.856777  0
C  C88  1  0.26155122  0.89561337  0.30591308  1  0  -0.191969  0  3.635022  0  0  -0.235774  0  3.87898  0  0  -0.238136  0  3.89427  0  0  -0.166012  -0.234172  0  3.86859  0
C  C89  1  0.73844853  0.10438584  0.69408610  1  0  -0.19202  0  3.635032  0  0  -0.235815  0  3.878983  0  0  -0.238165  0  3.89428  0  0  -0.166041  -0.234209  0  3.868588  0
C  C90  1  0.61593449  0.81787116  0.62188504  1  0  0.097362  0  3.647052  0  0  0.065238  0  3.905573  0  0  0.072033  0  3.91685  0  0  0.08345  0.060291  0  3.898155  0
C  C91  1  0.38406522  0.18212901  0.37811546  1  0  0.097357  0  3.647129  0  0  0.06525  0  3.905662  0  0  0.072046  0  3.916941  0  0  0.083461  0.060297  0  3.898249  0
C  C92  1  0.95257094  0.14928600  0.08778122  1  0  0.135559  0  3.698474  0  0  0.105157  0  3.950052  0  0  0.112417  0  3.968588  0  0  0.052164  0.10051  0  3.937386  0
C  C93  1  0.04742776  0.85071224  0.91221990  1  0  0.135552  0  3.698302  0  0  0.105183  0  3.949889  0  0  0.112443  0  3.968423  0  0  0.052113  0.100524  0  3.937239  0
C  C94  1  0.72767775  0.95302821  0.35293518  1  0  0.092349  0  3.636762  0  0  0.057626  0  3.900739  0  0  0.063859  0  3.911523  0  0  0.084169  0.053319  0  3.893472  0
C  C95  1  0.27231956  0.04697486  0.64706595  1  0  0.092281  0  3.636717  0  0  0.057551  0  3.900693  0  0  0.063782  0  3.911479  0  0  0.084144  0.053253  0  3.893417  0
C  C96  1  0.02580271  0.60780445  0.24346413  1  0  -0.318154  0  3.652697  0  0  -0.361131  0  3.897244  0  0  -0.367706  0  3.905326  0  0  -0.163407  -0.356671  0  3.891804  0
C  C97  1  0.97419717  0.39219281  0.75653696  1  0  -0.317977  0  3.652597  0  0  -0.360983  0  3.897146  0  0  -0.367563  0  3.905237  0  0  -0.163353  -0.356528  0  3.891706  0
C  C98  1  0.48335467  0.87994492  0.14828374  1  0  -0.306027  0  3.634957  0  0  -0.348455  0  3.879225  0  0  -0.354648  0  3.887356  0  0  -0.164283  -0.344062  0  3.873416  0
C  C99  1  0.51664737  0.12005427  0.85171727  1  0  -0.30612  0  3.635047  0  0  -0.348552  0  3.879325  0  0  -0.354748  0  3.887451  0  0  -0.164296  -0.344163  0  3.873509  0
C  C100  1  0.43083381  0.69534279  0.32032574  1  0  -0.193055  0  3.61746  0  0  -0.235919  0  3.855592  0  0  -0.238448  0  3.870697  0  0  -0.167087  -0.234067  0  3.845249  0
C  C101  1  0.56916585  0.30465835  0.67967457  1  0  -0.193005  0  3.617447  0  0  -0.23592  0  3.855587  0  0  -0.238446  0  3.870667  0  0  -0.167105  -0.234069  0  3.845247  0
C  C102  1  0.03808022  0.76039335  0.35176788  1  0  -0.193336  0  3.645577  0  0  -0.236706  0  3.885548  0  0  -0.239175  0  3.901354  0  0  -0.167629  -0.234891  0  3.874529  0
C  C103  1  0.96192058  0.23960779  0.64823221  1  0  -0.193368  0  3.645568  0  0  -0.236742  0  3.885555  0  0  -0.23921  0  3.901361  0  0  -0.167628  -0.234922  0  3.874526  0
C  C104  1  0.13606467  0.82387047  0.39861756  1  0  0.043205  0  3.636382  0  0  0.04404  0  3.873731  0  0  0.043881  0  3.891135  0  0  -0.094335  0.04415  0  3.86165  0
C  C105  1  0.86393379  0.17613164  0.60138126  1  0  0.043194  0  3.636302  0  0  0.044016  0  3.873663  0  0  0.043856  0  3.891068  0  0  -0.094319  0.044121  0  3.861584  0
C  C106  1  0.30629509  0.62280860  0.41366996  1  0  0.04351  0  3.625587  0  0  0.04604  0  3.862276  0  0  0.045859  0  3.879911  0  0  -0.093334  0.046265  0  3.849982  0
C  C107  1  0.69370581  0.37719060  0.58633051  1  0  0.043466  0  3.625695  0  0  0.046128  0  3.862213  0  0  0.045945  0  3.879854  0  0  -0.093296  0.046352  0  3.849921  0
C  C108  1  0.20874165  0.71880493  0.47637426  1  0  -0.174449  0  3.657296  0  0  -0.220589  0  3.909255  0  0  -0.222563  0  3.923872  0  0  -0.168593  -0.218943  0  3.898955  0
C  C109  1  0.79125800  0.28119621  0.52362529  1  0  -0.174439  0  3.657399  0  0  -0.220623  0  3.909366  0  0  -0.222591  0  3.923967  0  0  -0.168595  -0.218983  0  3.899073  0
N  N110  1  0.03123424  0.22230382  0.12023802  1  0  -0.313778  0  3.245887  0  0  -0.239369  0  3.51087  0  0  -0.258755  0  3.529747  0  0  -0.323304  -0.226062  0  3.497798  0
N  N111  1  0.96876547  0.77769635  0.87976172  1  0  -0.313807  0  3.245896  0  0  -0.239377  0  3.510845  0  0  -0.258763  0  3.529721  0  0  -0.323273  -0.226071  0  3.497776  0
N  N112  1  0.31946242  0.55386075  0.86707938  1  0  -0.316831  0  3.238188  0  0  -0.241482  0  3.502589  0  0  -0.261339  0  3.522142  0  0  -0.322378  -0.227716  0  3.488735  0
N  N113  1  0.68053963  0.44613749  0.13291879  1  0  -0.316799  0  3.238092  0  0  -0.241455  0  3.502504  0  0  -0.261311  0  3.522056  0  0  -0.322392  -0.227689  0  3.488657  0
N  N114  1  0.61118200  0.84640151  0.52083185  1  0  -0.196212  0  3.023027  0  0  -0.168972  0  3.313895  0  0  -0.177656  0  3.330117  0  0  -0.205284  -0.162761  0  3.302462  0
N  N115  1  0.38881769  0.15359867  0.47916638  1  0  -0.196183  0  3.023021  0  0  -0.16894  0  3.313881  0  0  -0.177624  0  3.330102  0  0  -0.205282  -0.162732  0  3.302449  0
N  N116  1  0.71316082  0.93813393  0.45604145  1  0  -0.18865  0  3.036344  0  0  -0.159956  0  3.329935  0  0  -0.168239  0  3.346396  0  0  -0.202071  -0.154177  0  3.318379  0
N  N117  1  0.28683657  0.06186722  0.54395780  1  0  -0.188654  0  3.036216  0  0  -0.159959  0  3.329799  0  0  -0.168241  0  3.346261  0  0  -0.202081  -0.154182  0  3.318239  0
O  O118  1  0.21350242  0.45797527  0.16143299  1  0  -0.639649  0  1.921843  0  0  -0.582784  0  2.155095  0  0  -0.609452  0  2.147307  0  0  -0.326366  -0.564398  0  2.159502  0
O  O119  1  0.78649854  0.54202296  0.83856769  1  0  -0.639557  0  1.921846  0  0  -0.582684  0  2.155119  0  0  -0.609349  0  2.147332  0  0  -0.326318  -0.564299  0  2.159528  0
O  O120  1  0.02305561  0.53658546  0.08649024  1  0  -0.691983  0  2.091194  0  0  -0.613826  0  2.364913  0  0  -0.647829  0  2.35485  0  0  -0.346175  -0.590271  0  2.370718  0
O  O121  1  0.97694645  0.46341278  0.91350793  1  0  -0.692013  0  2.091321  0  0  -0.613806  0  2.364992  0  0  -0.647808  0  2.35493  0  0  -0.346153  -0.590253  0  2.370799  0
O  O122  1  0.73395125  0.77682846  0.12452225  1  0  -0.673891  0  1.890581  0  0  -0.619615  0  2.127324  0  0  -0.646708  0  2.11777  0  0  -0.349874  -0.600499  0  2.133367  0
O  O123  1  0.26605100  0.22316591  0.87547518  1  0  -0.673841  0  1.89052  0  0  -0.619557  0  2.127276  0  0  -0.646651  0  2.117729  0  0  -0.349833  -0.600436  0  2.133313  0
O  O124  1  0.58850231  0.74393797  0.02344821  1  0  -0.662962  0  1.940566  0  0  -0.600077  0  2.184  0  0  -0.629879  0  2.175199  0  0  -0.340856  -0.579233  0  2.189456  0
O  O125  1  0.41149727  0.25606414  0.97654963  1  0  -0.663049  0  1.940467  0  0  -0.600152  0  2.183899  0  0  -0.62995  0  2.17509  0  0  -0.340917  -0.579305  0  2.189352  0
