# generated using pymatgen
data_CuH12C24N6(ClO3)2
_symmetry_space_group_name_H-M   'P 1'
_cell_length_a   11.78405932
_cell_length_b   11.78421708
_cell_length_c   12.68869959
_cell_angle_alpha   103.64763554
_cell_angle_beta   103.64705151
_cell_angle_gamma   104.15168425
_symmetry_Int_Tables_number   1
_chemical_formula_structural   CuH12C24N6(ClO3)2
_chemical_formula_sum   'Cu2 H24 C48 N12 Cl4 O12'
_cell_volume   1577.64278246
_cell_formula_units_Z   2
loop_
 _symmetry_equiv_pos_site_id
 _symmetry_equiv_pos_as_xyz
  1  'x, y, z'
loop_
 _atom_site_type_symbol
 _atom_site_label
 _atom_site_symmetry_multiplicity
 _atom_site_fract_x
 _atom_site_fract_y
 _atom_site_fract_z
 _atom_site_occupancy
 _atom_site_hle17_ddec_charge
 _atom_site_hle17_ddec_spin_density
 _atom_site_hle17_ddec_sum_bond_order
 _atom_site_hle17_magmom
 _atom_site_hse06_10hf_ddec_charge
 _atom_site_hse06_10hf_ddec_spin_density
 _atom_site_hse06_10hf_ddec_sum_bond_order
 _atom_site_hse06_10hf_magmom
 _atom_site_hse06_ddec_charge
 _atom_site_hse06_ddec_spin_density
 _atom_site_hse06_ddec_sum_bond_order
 _atom_site_hse06_magmom
 _atom_site_pbe_cm5_charge
 _atom_site_pbe_ddec_charge
 _atom_site_pbe_ddec_spin_density
 _atom_site_pbe_ddec_sum_bond_order
 _atom_site_pbe_magmom
Cu  Cu0  1  0.43731526  0.56268317  0.75000371  1  0.679982  0.638517  1.966047  0.464  0.650747  0.751248  2.383505  0.597  0.741939  0.827315  2.320653  0.695  0.58883  0.598939  0.701601  2.426889  0.539
Cu  Cu1  1  0.56268191  0.43732018  0.24999935  1  0.680051  0.638521  1.965802  0.464  0.650724  0.751218  2.383278  0.597  0.742043  0.827331  2.320446  0.695  0.588816  0.598952  0.701586  2.426658  0.539
H  H2  1  0.71082828  0.17670088  0.95775659  1  0.152433  0.000221  0.914751  0.0  0.163873  0.000215  0.970028  0.0  0.167996  0.000158  0.96742  0.0  0.120025  0.160982  0.000267  0.97188  0.0
H  H3  1  0.82329810  0.28915973  0.54223303  1  0.152424  0.000225  0.914758  0.0  0.163919  0.000216  0.969993  0.0  0.168045  0.000158  0.967378  0.0  0.12002  0.161028  0.000267  0.971846  0.0
H  H4  1  0.28918041  0.82331435  0.04223809  1  0.152324  0.000223  0.914719  0.0  0.163813  0.000216  0.969967  0.0  0.167934  0.000158  0.967365  0.0  0.120034  0.160924  0.000267  0.971815  0.0
H  H5  1  0.17669881  0.71083443  0.45777037  1  0.152335  0.000223  0.914737  0.0  0.1638  0.000216  0.970007  0.0  0.167923  0.000158  0.967399  0.0  0.12  0.16091  0.000267  0.97186  0.0
H  H6  1  0.62793346  0.79357394  0.93626110  1  0.12833  0.000432  0.973899  0.002  0.132192  0.000609  1.041472  0.002  0.137018  0.000365  1.036389  0.001  0.109417  0.128761  0.000843  1.045157  0.002
H  H7  1  0.20642036  0.37206989  0.56374752  1  0.128398  0.00043  0.973953  0.002  0.132316  0.000608  1.04146  0.002  0.13714  0.000364  1.036377  0.001  0.109452  0.128884  0.000843  1.045145  0.002
H  H8  1  0.37207131  0.20642301  0.06374458  1  0.128291  0.000429  0.973856  0.002  0.132197  0.000609  1.041402  0.002  0.137025  0.000364  1.036314  0.001  0.109404  0.128766  0.000843  1.045085  0.002
H  H9  1  0.79357702  0.62792878  0.43624592  1  0.128391  0.000429  0.97411  0.002  0.132294  0.000608  1.041644  0.002  0.13712  0.000364  1.036559  0.001  0.109462  0.128865  0.000843  1.045325  0.002
H  H10  1  0.56890645  0.63978457  0.58894408  1  0.119617  0.000462  0.981668  0.001  0.123087  0.0007  1.054022  0.001  0.126488  0.000451  1.050792  0.001  0.108318  0.120512  0.000925  1.056615  0.001
H  H11  1  0.36020889  0.43109939  0.91106276  1  0.119675  0.000463  0.981611  0.001  0.12316  0.0007  1.05396  0.001  0.126562  0.000452  1.050728  0.001  0.108355  0.120586  0.000926  1.056554  0.001
H  H12  1  0.43109693  0.36019679  0.41106348  1  0.119575  0.00046  0.981753  0.001  0.123083  0.0007  1.054058  0.001  0.12649  0.000451  1.050822  0.001  0.108319  0.120506  0.000925  1.056656  0.001
H  H13  1  0.63980277  0.56890854  0.08893650  1  0.119551  0.000464  0.981816  0.001  0.123105  0.0007  1.054092  0.001  0.126506  0.000452  1.050859  0.001  0.108317  0.120496  0.000926  1.056731  0.001
H  H14  1  0.57519901  0.97358180  0.57686204  1  0.145613  -5e-06  0.93903  0.0  0.153879  -6e-06  1.000268  0.0  0.157727  -2e-06  0.998194  0.0  0.116616  0.151056  3e-06  1.002013  0.0
H  H15  1  0.02641652  0.42479420  0.92313797  1  0.145495  -7e-06  0.939042  0.0  0.15379  -5e-06  1.000271  0.0  0.157641  -3e-06  0.998196  0.0  0.11659  0.150968  3e-06  1.002015  0.0
H  H16  1  0.42479322  0.02641418  0.42313917  1  0.145484  -4e-06  0.938977  0.0  0.153772  -6e-06  1.000214  0.0  0.157622  -2e-06  0.998139  0.0  0.116575  0.15095  3e-06  1.001955  0.0
H  H17  1  0.97359570  0.57521556  0.07686023  1  0.14555  -5e-06  0.938987  0.0  0.153872  -6e-06  1.000178  0.0  0.15772  -3e-06  0.998107  0.0  0.11662  0.151049  3e-06  1.001919  0.0
H  H18  1  0.46502369  0.34430773  0.57849931  1  0.112592  -0.000248  0.961267  0.0  0.112966  -0.000103  1.039917  0.0  0.11718  -0.000145  1.036351  0.0  0.114573  0.109979  -5.1e-05  1.042624  0.0
H  H19  1  0.65568533  0.53496847  0.92148447  1  0.112456  -0.000244  0.96156  0.0  0.112957  -0.000103  1.040095  0.0  0.117178  -0.000144  1.036533  0.0  0.114581  0.109976  -5.1e-05  1.042803  0.0
H  H20  1  0.53496123  0.65569558  0.42150111  1  0.11252  -0.000247  0.961406  0.0  0.112992  -0.000104  1.039933  0.0  0.117209  -0.000145  1.03636  0.0  0.114575  0.110005  -5.1e-05  1.042639  0.0
H  H21  1  0.34431169  0.46503750  0.07850336  1  0.112492  -0.000244  0.961436  0.0  0.112972  -0.000104  1.039972  0.0  0.117189  -0.000144  1.036397  0.0  0.114573  0.109982  -5.1e-05  1.04268  0.0
H  H22  1  0.93459778  0.96771822  0.55910568  1  0.147121  -8e-06  0.94428  0.0  0.153135  2e-05  1.00903  0.0  0.157613  1.1e-05  1.005891  0.0  0.115416  0.149884  1.1e-05  1.011567  0.0
H  H23  1  0.03227953  0.06540516  0.94089731  1  0.147179  -9e-06  0.944268  0.0  0.153196  2e-05  1.009002  0.0  0.157675  1.1e-05  1.005859  0.0  0.115446  0.149945  1.1e-05  1.011539  0.0
H  H24  1  0.06539830  0.03227876  0.44090446  1  0.14719  -9e-06  0.944192  0.0  0.153255  2e-05  1.008885  0.0  0.157734  1e-05  1.005739  0.0  0.115445  0.150002  1.1e-05  1.011426  0.0
H  H25  1  0.96772713  0.93460363  0.05909714  1  0.147206  -5e-06  0.944148  0.0  0.153266  2e-05  1.008846  0.0  0.157746  1.1e-05  1.005701  0.0  0.115472  0.150015  1.1e-05  1.011384  0.0
C  C26  1  0.80386180  0.19679071  0.95161211  1  -0.259954  3.8e-05  3.688302  0.0  -0.301403  3.7e-05  3.943988  0.0  -0.30808  2.2e-05  3.960819  0.0  -0.096143  -0.296766  0.000222  3.932478  0.0
C  C27  1  0.80320653  0.19613184  0.54838343  1  -0.259958  1.2e-05  3.687959  0.0  -0.301459  3.7e-05  3.943697  0.0  -0.308137  2.9e-05  3.960527  0.0  -0.096177  -0.296819  0.000222  3.932188  0.0
C  C28  1  0.19614221  0.80320976  0.04837525  1  -0.259752  -6e-06  3.688361  0.0  -0.301267  3.7e-05  3.944136  0.0  -0.307942  2.3e-05  3.960968  0.0  -0.096116  -0.296631  0.000222  3.93263  0.0
C  C29  1  0.19679507  0.80386882  0.45162710  1  -0.259827  -3e-06  3.688321  0.0  -0.301303  2.9e-05  3.944053  0.0  -0.307977  2.9e-05  3.960884  0.0  -0.096132  -0.296663  0.000221  3.932539  0.0
C  C30  1  0.86647315  0.11107942  0.95187094  1  0.310644  0.000269  3.781491  0.0  0.304771  0.00022  4.04844  0.0  0.314977  0.00013  4.065165  0.0  0.087182  0.297782  0.000306  4.037193  0.0
C  C31  1  0.88892513  0.13352062  0.54813005  1  0.310751  0.00029  3.781337  0.0  0.304826  0.000221  4.048397  0.0  0.315026  0.000124  4.065128  0.0  0.087248  0.297837  0.000306  4.037154  0.0
C  C32  1  0.13353001  0.88892382  0.04811919  1  0.31057  0.000308  3.781435  0.0  0.304661  0.000216  4.048461  0.0  0.314858  0.00013  4.0652  0.0  0.087159  0.297675  0.000306  4.03721  0.0
C  C33  1  0.11107648  0.86648006  0.45188206  1  0.310522  0.000308  3.781439  0.0  0.304672  0.000219  4.048435  0.0  0.314872  0.000125  4.065169  0.0  0.087155  0.297688  0.000306  4.037184  0.0
C  C34  1  0.74172913  0.90483834  0.85953565  1  0.423913  0.006967  3.803317  0.008  0.398926  0.003513  4.078873  0.004  0.415206  0.003082  4.086603  0.004  0.22596  0.387496  0.0039  4.073907  0.005
C  C35  1  0.09516012  0.25826285  0.64047141  1  0.424038  0.006966  3.803482  0.008  0.399144  0.003513  4.078892  0.004  0.415424  0.003078  4.086622  0.004  0.226038  0.387701  0.003901  4.073944  0.005
C  C36  1  0.25827154  0.09515949  0.14046619  1  0.423843  0.006953  3.803773  0.008  0.398905  0.00351  4.079235  0.004  0.415182  0.003084  4.086964  0.004  0.226031  0.387475  0.003899  4.07427  0.005
C  C37  1  0.90484660  0.74174601  0.35952936  1  0.423866  0.00696  3.803463  0.008  0.39892  0.003515  4.07897  0.004  0.415218  0.003084  4.086672  0.004  0.225886  0.387478  0.003903  4.074021  0.005
C  C38  1  0.65329776  0.80142948  0.86056747  1  -0.044511  -0.010874  3.631819  -0.008  -0.086078  -0.00267  3.893552  -0.002  -0.083226  -0.004589  3.908861  -0.003  0.031516  -0.088128  -0.001169  3.884499  -0.001
C  C39  1  0.19857005  0.34670481  0.63943333  1  -0.044593  -0.010871  3.631715  -0.008  -0.086278  -0.002658  3.893469  -0.002  -0.083424  -0.004598  3.908776  -0.003  0.031486  -0.088324  -0.001171  3.884421  -0.001
C  C40  1  0.34670846  0.19856655  0.13943753  1  -0.044484  -0.010849  3.631757  -0.008  -0.086155  -0.002671  3.893533  -0.002  -0.083293  -0.004592  3.908842  -0.003  0.031501  -0.088203  -0.001171  3.88448  -0.001
C  C41  1  0.80142419  0.65329207  0.36056535  1  -0.044473  -0.01086  3.63139  -0.008  -0.08617  -0.002671  3.89325  -0.002  -0.083316  -0.004599  3.908559  -0.003  0.031578  -0.088215  -0.001173  3.884199  -0.001
C  C42  1  0.61897748  0.71642403  0.66656411  1  -0.044258  -0.007395  3.633917  -0.005  -0.08564  -0.001296  3.894242  -0.001  -0.083391  -0.003399  3.911097  -0.002  0.029605  -0.087383  0.000144  3.884244  0.0
C  C43  1  0.28357430  0.38102673  0.83344279  1  -0.044349  -0.007385  3.633849  -0.005  -0.085745  -0.001296  3.894189  -0.001  -0.083495  -0.003399  3.911048  -0.002  0.029572  -0.08749  0.000144  3.884187  0.0
C  C44  1  0.38102790  0.28356374  0.33344131  1  -0.044274  -0.007361  3.634085  -0.005  -0.085723  -0.001299  3.894515  -0.001  -0.083472  -0.00341  3.911378  -0.002  0.029564  -0.087467  0.000143  3.884516  0.0
C  C45  1  0.71642165  0.61896735  0.16655093  1  -0.044145  -0.007373  3.633854  -0.005  -0.085582  -0.001299  3.894171  -0.001  -0.083329  -0.003408  3.911036  -0.002  0.029629  -0.087302  0.000141  3.884189  0.0
C  C46  1  0.70356113  0.82461388  0.66974787  1  0.421795  0.006825  3.795511  0.007  0.399352  0.003376  4.066919  0.004  0.415068  0.003046  4.074977  0.004  0.224719  0.388196  0.003683  4.061845  0.004
C  C47  1  0.17538106  0.29643742  0.83025881  1  0.421652  0.006819  3.795455  0.007  0.399114  0.003373  4.066931  0.004  0.414818  0.00305  4.075001  0.004  0.224536  0.387966  0.003685  4.061846  0.004
C  C48  1  0.29644331  0.17537935  0.33025222  1  0.421726  0.006807  3.795319  0.007  0.399258  0.003374  4.066761  0.004  0.414958  0.003055  4.074832  0.004  0.22464  0.388114  0.003683  4.061675  0.004
C  C49  1  0.82463006  0.70356871  0.16974547  1  0.42176  0.006815  3.79504  0.007  0.399226  0.00338  4.066565  0.004  0.414928  0.003056  4.074636  0.004  0.224661  0.388081  0.003688  4.06147  0.004
C  C50  1  0.75128294  0.95819884  0.56464124  1  0.317964  0.000144  3.777402  0.0  0.311489  0.000184  4.044692  0.0  0.321752  9.8e-05  4.061272  0.0  0.089132  0.304304  0.000261  4.03349  0.0
C  C51  1  0.04180010  0.24871733  0.93536796  1  0.317981  0.00012  3.777223  0.0  0.311311  0.00018  4.044727  0.0  0.321559  0.000103  4.061326  0.0  0.089075  0.304127  0.000261  4.033524  0.0
C  C52  1  0.24871313  0.04179814  0.43536810  1  0.31791  0.00016  3.777434  0.0  0.311405  0.000177  4.04474  0.0  0.321651  0.000104  4.06134  0.0  0.089077  0.304225  0.000261  4.033533  0.0
C  C53  1  0.95820746  0.75129425  0.06463043  1  0.317871  0.000163  3.777143  0.0  0.311347  0.000181  4.044484  0.0  0.321595  0.000106  4.06108  0.0  0.089088  0.304164  0.000262  4.033283  0.0
C  C54  1  0.66290969  0.01799503  0.56728012  1  -0.272754  4.1e-05  3.701704  0.0  -0.316386  -1.3e-05  3.966943  0.0  -0.323026  -1.4e-05  3.983787  0.0  -0.104287  -0.311815  0.0001  3.955915  0.0
C  C55  1  0.98200443  0.33708910  0.93272072  1  -0.272571  6.2e-05  3.701464  0.0  -0.316209  -1.2e-05  3.966794  0.0  -0.322849  -1.7e-05  3.983647  0.0  -0.104247  -0.311643  0.0001  3.955771  0.0
C  C56  1  0.33708343  0.98200097  0.43272365  1  -0.272581  2.4e-05  3.701403  0.0  -0.316217  -2.2e-05  3.966656  0.0  -0.322857  -1.4e-05  3.983506  0.0  -0.104232  -0.311644  0.0001  3.955623  0.0
C  C57  1  0.01800602  0.66292063  0.06727473  1  -0.272575  2.3e-05  3.701096  0.0  -0.316247  -2e-05  3.966357  0.0  -0.322888  -2e-05  3.983206  0.0  -0.104286  -0.311678  0.0001  3.955335  0.0
C  C58  1  0.69089279  0.13632213  0.55900323  1  0.317595  -0.000101  3.790091  0.0  0.310994  -6.3e-05  4.057179  0.0  0.321368  -7.6e-05  4.073441  0.0  0.089282  0.303812  -1e-05  4.046182  0.0
C  C59  1  0.86367244  0.30910041  0.94099117  1  0.317545  -0.000126  3.790197  0.0  0.310932  -6.6e-05  4.057266  0.0  0.321301  -6.7e-05  4.073531  0.0  0.089265  0.303752  -1e-05  4.046262  0.0
C  C60  1  0.30910357  0.86367299  0.44100420  1  0.317615  -8.1e-05  3.790312  0.0  0.310964  -4.7e-05  4.05744  0.0  0.321336  -7.7e-05  4.0737  0.0  0.089275  0.303791  -1e-05  4.046448  0.0
C  C61  1  0.13633478  0.69090191  0.05899807  1  0.317485  -7.6e-05  3.790172  0.0  0.310846  -5.4e-05  4.057291  0.0  0.32122  -6.7e-05  4.073549  0.0  0.089271  0.303659  -1e-05  4.046295  0.0
C  C62  1  0.61640095  0.28341870  0.65597907  1  0.432218  0.001647  3.802064  0.001  0.410336  0.001133  4.068804  0.001  0.428769  0.000884  4.074482  0.001  0.226003  0.397632  0.001386  4.064707  0.001
C  C63  1  0.71656527  0.38358169  0.84400815  1  0.432288  0.001644  3.801884  0.001  0.410503  0.001133  4.06848  0.001  0.428923  0.000892  4.074175  0.001  0.226055  0.397802  0.001385  4.064375  0.001
C  C64  1  0.38359010  0.71657358  0.34401952  1  0.432227  0.001664  3.801789  0.001  0.410267  0.001126  4.068603  0.001  0.428684  0.000886  4.074303  0.001  0.225943  0.397573  0.001385  4.064509  0.001
C  C65  1  0.28342542  0.61640959  0.15598148  1  0.432104  0.001661  3.801921  0.001  0.41026  0.001132  4.068582  0.001  0.428688  0.000882  4.074263  0.001  0.225958  0.397553  0.001384  4.064482  0.001
C  C66  1  0.53859085  0.35624128  0.65429988  1  -0.047037  0.000604  3.666298  0.0  -0.087983  -0.000376  3.936351  0.0  -0.087495  -0.000919  3.950416  -0.001  0.027492  -0.088184  6.7e-05  3.927236  0.0
C  C67  1  0.64374673  0.46139694  0.84569098  1  -0.046962  0.000603  3.666347  0.0  -0.088078  -0.000369  3.936346  0.0  -0.087604  -0.00094  3.950423  -0.001  0.027494  -0.088291  6.6e-05  3.927247  0.0
C  C68  1  0.46139783  0.64375463  0.34569425  1  -0.047144  0.000579  3.666659  0.0  -0.088129  -0.00036  3.936702  0.0  -0.087637  -0.000935  3.950779  -0.001  0.027448  -0.088326  6.6e-05  3.927586  0.0
C  C69  1  0.35624692  0.53859809  0.15430718  1  -0.047003  0.000578  3.666417  0.0  -0.088066  -0.000374  3.936476  0.0  -0.087574  -0.000918  3.950543  -0.001  0.027473  -0.088267  6.6e-05  3.927366  0.0
C  C70  1  0.86538373  0.01430914  0.55573012  1  -0.262542  0.000699  3.686661  0.001  -0.30613  0.000411  3.95212  0.0  -0.312414  0.000286  3.968084  0.0  -0.101543  -0.301857  0.000285  3.941743  0.0
C  C71  1  0.98568968  0.13461602  0.94427824  1  -0.262505  0.000718  3.68666  0.001  -0.30606  0.000414  3.952121  0.0  -0.312339  0.000283  3.968087  0.0  -0.1015  -0.301786  0.000285  3.941743  0.0
C  C72  1  0.13461412  0.98569340  0.44428473  1  -0.262559  0.000685  3.686586  0.001  -0.306248  0.000422  3.952064  0.0  -0.31253  0.000284  3.968033  0.0  -0.101578  -0.301977  0.000285  3.941688  0.0
C  C73  1  0.01431439  0.86539002  0.05571742  1  -0.262508  0.000678  3.686476  0.001  -0.306169  0.000419  3.951947  0.0  -0.312449  0.000279  3.967916  0.0  -0.101598  -0.301898  0.000285  3.941571  0.0
N  N74  1  0.59186941  0.70963863  0.76257892  1  -0.183727  0.078244  3.338073  0.098  -0.127697  0.06128  3.614261  0.082  -0.15583  0.04811  3.64464  0.07  -0.304549  -0.111469  0.069077  3.596886  0.088
N  N75  1  0.29035798  0.40813380  0.73742989  1  -0.183684  0.07826  3.338055  0.098  -0.127643  0.061285  3.614255  0.082  -0.155781  0.048123  3.644643  0.07  -0.304568  -0.111415  0.069088  3.596879  0.088
N  N76  1  0.40814210  0.29035470  0.23743217  1  -0.1836  0.078223  3.337912  0.098  -0.127533  0.061278  3.614109  0.082  -0.155704  0.04811  3.644526  0.07  -0.304518  -0.111319  0.06907  3.596746  0.088
N  N77  1  0.70964550  0.59186486  0.26256170  1  -0.183694  0.078263  3.338279  0.098  -0.127672  0.061298  3.614572  0.082  -0.155847  0.048122  3.644998  0.07  -0.304624  -0.111451  0.069097  3.597192  0.088
N  N78  1  0.76433779  0.91786852  0.76498175  1  -0.437966  -0.007736  3.086204  -0.007  -0.407316  -0.003531  3.3387  -0.003  -0.419397  -0.00409  3.349419  -0.003  -0.311952  -0.39926  -0.00306  3.332044  -0.002
N  N79  1  0.08213235  0.23565818  0.73502111  1  -0.437991  -0.007731  3.086427  -0.007  -0.407326  -0.003535  3.338895  -0.003  -0.419408  -0.004084  3.349618  -0.003  -0.311958  -0.399266  -0.003059  3.332239  -0.002
N  N80  1  0.23566578  0.08211919  0.23501697  1  -0.437955  -0.007722  3.086313  -0.007  -0.407341  -0.003524  3.338815  -0.003  -0.419417  -0.004101  3.349539  -0.003  -0.312002  -0.399289  -0.003061  3.332158  -0.002
N  N81  1  0.91787356  0.76434520  0.26498462  1  -0.4381  -0.007717  3.086718  -0.007  -0.407401  -0.00353  3.339208  -0.003  -0.41949  -0.004088  3.349928  -0.003  -0.312038  -0.399338  -0.003058  3.332547  -0.002
N  N82  1  0.70357969  0.29640260  0.74999554  1  -0.456522  -0.001117  3.086265  -0.001  -0.423718  -0.000802  3.335161  -0.001  -0.436939  -0.000918  3.344901  -0.001  -0.317435  -0.414571  -0.000745  3.328682  -0.001
N  N83  1  0.29640464  0.70359055  0.24999943  1  -0.456388  -0.00114  3.085703  -0.001  -0.423508  -0.000804  3.334609  -0.001  -0.436721  -0.000902  3.344344  -0.001  -0.317313  -0.414361  -0.000745  3.328132  -0.001
N  N84  1  0.55542571  0.44456286  0.74999224  1  -0.222134  0.0007  3.372095  0.003  -0.170481  0.006619  3.659158  0.01  -0.187454  0.004568  3.681768  0.009  -0.321342  -0.15962  0.008264  3.645392  0.012
N  N85  1  0.44456704  0.55543490  0.25000237  1  -0.222024  0.000718  3.372402  0.003  -0.170407  0.006609  3.659491  0.01  -0.187409  0.004563  3.682128  0.009  -0.3213  -0.159552  0.008255  3.645729  0.012
Cl  Cl86  1  0.44922251  0.65212495  0.93612738  1  -0.539263  0.107802  0.881704  0.128  -0.550237  0.056009  1.141189  0.073  -0.577353  0.039629  1.117676  0.057  -0.34241  -0.533568  0.065929  1.158346  0.081
Cl  Cl87  1  0.34787537  0.55077324  0.56387719  1  -0.539282  0.107795  0.88168  0.128  -0.550265  0.056004  1.14113  0.073  -0.577381  0.039624  1.117615  0.057  -0.34241  -0.533593  0.065923  1.158287  0.081
Cl  Cl88  1  0.55076380  0.34788566  0.06386782  1  -0.539307  0.107802  0.881692  0.128  -0.550245  0.05602  1.141144  0.073  -0.577395  0.039632  1.117644  0.057  -0.342394  -0.533579  0.065939  1.158302  0.081
Cl  Cl89  1  0.65211978  0.44923750  0.43613096  1  -0.539321  0.107795  0.881622  0.128  -0.550249  0.056015  1.141031  0.073  -0.5774  0.039626  1.117532  0.057  -0.342401  -0.533588  0.065932  1.158193  0.081
O  O90  1  0.80478512  0.99676445  0.96056511  1  -0.312809  0.001148  2.278591  0.001  -0.245057  0.000735  2.494253  0.001  -0.263064  0.000634  2.493022  0.001  -0.144386  -0.232144  0.000941  2.494931  0.001
O  O91  1  0.00323861  0.19520312  0.53943680  1  -0.312821  0.001149  2.278863  0.001  -0.24507  0.000739  2.49449  0.001  -0.263071  0.000632  2.493256  0.001  -0.144362  -0.232152  0.000942  2.495171  0.001
O  O92  1  0.19521518  0.00324620  0.03943310  1  -0.312711  0.001146  2.278819  0.001  -0.244857  0.000734  2.494375  0.001  -0.262855  0.000635  2.493143  0.001  -0.144296  -0.231945  0.000941  2.495051  0.001
O  O93  1  0.99675275  0.80479286  0.46056502  1  -0.312684  0.001146  2.278831  0.001  -0.244904  0.000737  2.494425  0.001  -0.262905  0.000634  2.493181  0.001  -0.144257  -0.23199  0.000942  2.495107  0.001
O  O94  1  0.72328934  0.83719132  0.57016936  1  -0.314673  0.001496  2.280523  0.002  -0.247448  0.000895  2.501143  0.001  -0.26613  0.000702  2.501553  0.001  -0.144466  -0.233868  0.001182  2.500564  0.002
O  O95  1  0.16281192  0.27671172  0.92983881  1  -0.314572  0.001494  2.280564  0.002  -0.247176  0.000894  2.501161  0.001  -0.265848  0.000701  2.501575  0.001  -0.144252  -0.233599  0.001182  2.500578  0.002
O  O96  1  0.27670670  0.16280285  0.42983465  1  -0.314601  0.001493  2.280468  0.002  -0.247266  0.000893  2.501026  0.001  -0.265931  0.000701  2.501435  0.001  -0.144306  -0.233691  0.001182  2.500444  0.002
O  O97  1  0.83719798  0.72329620  0.07016008  1  -0.314521  0.001496  2.28057  0.002  -0.247187  0.000896  2.501166  0.001  -0.265856  0.0007  2.501582  0.001  -0.144189  -0.233611  0.001183  2.500583  0.002
O  O98  1  0.60102476  0.19550167  0.55753819  1  -0.311077  0.000262  2.323426  0.0  -0.241998  0.000184  2.542427  0.0  -0.260618  0.000143  2.542369  0.0  -0.140612  -0.228433  0.000197  2.541995  0.0
O  O99  1  0.80449105  0.39896776  0.94245024  1  -0.311174  0.000263  2.323357  0.0  -0.242081  0.000183  2.542306  0.0  -0.260681  0.000143  2.54223  0.0  -0.140699  -0.228505  0.000197  2.541853  0.0
O  O100  1  0.39896713  0.80449612  0.44245940  1  -0.311162  0.000265  2.323543  0.0  -0.242018  0.000186  2.54255  0.0  -0.260632  0.000141  2.542494  0.0  -0.14067  -0.228489  0.000197  2.542141  0.0
O  O101  1  0.19551297  0.60103548  0.05753930  1  -0.311078  0.000265  2.323463  0.0  -0.241964  0.000186  2.542424  0.0  -0.260579  0.000141  2.542364  0.0  -0.1407  -0.228382  0.000197  2.541973  0.0
