# generated using pymatgen
data_Sr2H4C10O9
_symmetry_space_group_name_H-M   'P 1'
_cell_length_a   7.74101835
_cell_length_b   8.23231573
_cell_length_c   9.54016615
_cell_angle_alpha   64.44240382
_cell_angle_beta   86.79216016
_cell_angle_gamma   82.55445377
_symmetry_Int_Tables_number   1
_chemical_formula_structural   Sr2H4C10O9
_chemical_formula_sum   'Sr4 H8 C20 O18'
_cell_volume   543.84921343
_cell_formula_units_Z   2
loop_
 _symmetry_equiv_pos_site_id
 _symmetry_equiv_pos_as_xyz
  1  'x, y, z'
loop_
 _atom_site_type_symbol
 _atom_site_label
 _atom_site_symmetry_multiplicity
 _atom_site_fract_x
 _atom_site_fract_y
 _atom_site_fract_z
 _atom_site_occupancy
 _atom_site_pbe_bader_spin_density
 _atom_site_pbe_cm5_charge
 _atom_site_pbe_ddec_charge
 _atom_site_pbe_ddec_spin_density
 _atom_site_pbe_ddec_sum_bond_order
 _atom_site_pbe_magmom
Sr  Sr0  1  0.75005438  0.22101261  0.55785780  1  0  1.009929  1.504069  0  1.512617  0
Sr  Sr1  1  0.24994563  0.77898876  0.44214358  1  0  1.009933  1.504098  0  1.512576  0
Sr  Sr2  1  0.25001454  0.16720998  0.66574923  1  0  0.988866  1.461103  0  1.439068  0
Sr  Sr3  1  0.74998433  0.83279163  0.33425054  1  0  0.988859  1.461134  0  1.439028  0
H  H4  1  0.33565680  0.91533859  0.05066091  1  0  0.305053  0.390298  0  0.939319  0
H  H5  1  0.16433358  0.03411157  0.05073453  1  0  0.305206  0.390926  0  0.938621  0
H  H6  1  0.66434138  0.08465859  0.94933788  1  0  0.305063  0.390328  0  0.939272  0
H  H7  1  0.83566559  0.96588727  0.94926531  1  0  0.305201  0.390917  0  0.938632  0
H  H8  1  0.08607531  0.74817101  0.04989655  1  0  0.113994  0.106207  0  1.050476  0
H  H9  1  0.41413767  0.20190599  0.04979445  1  0  0.113618  0.105865  0  1.051464  0
H  H10  1  0.91392485  0.25183263  0.95010118  1  0  0.113984  0.106184  0  1.050472  0
H  H11  1  0.58586021  0.79809082  0.95020742  1  0  0.113627  0.105891  0  1.051448  0
C  C12  1  0.05473222  0.85067931  0.75493441  1  0  0.233517  0.627777  0  4.179753  0
C  C13  1  0.44526762  0.39458365  0.75480186  1  0  0.232806  0.626495  0  4.182518  0
C  C14  1  0.94526520  0.14932531  0.24506369  1  0  0.233495  0.627707  0  4.179941  0
C  C15  1  0.55473300  0.60541218  0.24519964  1  0  0.232879  0.626588  0  4.18227  0
C  C16  1  0.02182796  0.66688841  0.87449270  1  0  0.005741  -0.028523  0  3.91525  0
C  C17  1  0.47819751  0.45869097  0.87445378  1  0  0.005566  -0.028513  0  3.918868  0
C  C18  1  0.97817091  0.33311424  0.12550603  1  0  0.005723  -0.028605  0  3.915381  0
C  C19  1  0.52180052  0.54130602  0.12554655  1  0  0.005619  -0.028538  0  3.91877  0
C  C20  1  0.04543844  0.63984263  0.02738329  1  0  -0.072971  -0.118515  0  3.946545  0
C  C21  1  0.45470920  0.33273404  0.02730555  1  0  -0.072631  -0.119084  0  3.947162  0
C  C22  1  0.95456157  0.36016082  0.97261598  1  0  -0.072937  -0.118428  0  3.94651  0
C  C23  1  0.54529028  0.66726099  0.97269540  1  0  -0.072666  -0.119117  0  3.947129  0
C  C24  1  0.97551408  0.52446908  0.84566060  1  0  0.000453  -0.046407  0  3.925447  0
C  C25  1  0.52438435  0.62993672  0.84568881  1  0  0.000969  -0.045405  0  3.924798  0
C  C26  1  0.02448608  0.47553456  0.15433713  1  0  0.000468  -0.04636  0  3.925391  0
C  C27  1  0.47561626  0.37005911  0.15431268  1  0  0.000976  -0.045368  0  3.924746  0
C  C28  1  0.94044957  0.54093291  0.68581852  1  0  0.23543  0.621227  0  4.201776  0
C  C29  1  0.55944702  0.77340410  0.68587230  1  0  0.235547  0.622812  0  4.199083  0
C  C30  1  0.05955059  0.45907073  0.31417921  1  0  0.235513  0.621276  0  4.201528  0
C  C31  1  0.44055489  0.22659271  0.31412821  1  0  0.235538  0.62277  0  4.199222  0
O  O32  1  0.96317675  0.98733541  0.76404832  1  0  -0.379104  -0.662346  0  2.253966  0
O  O33  1  0.53684982  0.24889941  0.76376236  1  0  -0.3788  -0.661307  0  2.254057  0
O  O34  1  0.03682197  0.01266706  0.23595195  1  0  -0.379056  -0.662277  0  2.254  0
O  O35  1  0.46314935  0.75109630  0.23624063  1  0  -0.378878  -0.661364  0  2.253873  0
O  O36  1  0.25005190  0.01069837  0.97896142  1  0  -0.602018  -0.794329  0  1.963344  0
O  O37  1  0.74994727  0.98930151  0.02103736  1  0  -0.602022  -0.794347  0  1.963327  0
O  O38  1  0.18317983  0.87032954  0.66221076  1  0  -0.40056  -0.65557  0  2.282313  0
O  O39  1  0.31673627  0.46768036  0.66216676  1  0  -0.400998  -0.655415  0  2.282297  0
O  O40  1  0.81681888  0.12967398  0.33778845  1  0  -0.400563  -0.655557  0  2.282392  0
O  O41  1  0.68326549  0.53231941  0.33783214  1  0  -0.401007  -0.655419  0  2.282279  0
O  O42  1  0.94146982  0.69835277  0.57270503  1  0  -0.401113  -0.680694  0  2.30098  0
O  O43  1  0.55838205  0.72919856  0.57267607  1  0  -0.401858  -0.682381  0  2.299875  0
O  O44  1  0.05852843  0.30165647  0.42729251  1  0  -0.401142  -0.680662  0  2.300915  0
O  O45  1  0.44161857  0.27079831  0.42732438  1  0  -0.401875  -0.682378  0  2.299875  0
O  O46  1  0.91140286  0.39930047  0.67423089  1  0  -0.338564  -0.639314  0  2.218315  0
O  O47  1  0.58857716  0.92653747  0.67436717  1  0  -0.338096  -0.639048  0  2.217545  0
O  O48  1  0.08860104  0.60070699  0.32576436  1  0  -0.338618  -0.63936  0  2.218097  0
O  O49  1  0.41142878  0.07345622  0.32563512  1  0  -0.338097  -0.639039  0  2.217662  0
