# generated using pymatgen
data_KH22C17(NO2)3
_symmetry_space_group_name_H-M   'P 1'
_cell_length_a   7.36325066
_cell_length_b   8.21682546
_cell_length_c   14.99397134
_cell_angle_alpha   92.71027134
_cell_angle_beta   90.00002253
_cell_angle_gamma   89.99992429
_symmetry_Int_Tables_number   1
_chemical_formula_structural   KH22C17(NO2)3
_chemical_formula_sum   'K2 H44 C34 N6 O12'
_cell_volume   906.15868165
_cell_formula_units_Z   2
loop_
 _symmetry_equiv_pos_site_id
 _symmetry_equiv_pos_as_xyz
  1  'x, y, z'
loop_
 _atom_site_type_symbol
 _atom_site_label
 _atom_site_symmetry_multiplicity
 _atom_site_fract_x
 _atom_site_fract_y
 _atom_site_fract_z
 _atom_site_occupancy
 _atom_site_hle17_bader_spin_density
 _atom_site_hle17_ddec_charge
 _atom_site_hle17_ddec_spin_density
 _atom_site_hle17_ddec_sum_bond_order
 _atom_site_hle17_magmom
 _atom_site_hse06_10hf_bader_spin_density
 _atom_site_hse06_10hf_ddec_charge
 _atom_site_hse06_10hf_ddec_spin_density
 _atom_site_hse06_10hf_ddec_sum_bond_order
 _atom_site_hse06_10hf_magmom
 _atom_site_hse06_bader_spin_density
 _atom_site_hse06_ddec_charge
 _atom_site_hse06_ddec_spin_density
 _atom_site_hse06_ddec_sum_bond_order
 _atom_site_hse06_magmom
 _atom_site_pbe_bader_spin_density
 _atom_site_pbe_cm5_charge
 _atom_site_pbe_ddec_charge
 _atom_site_pbe_ddec_spin_density
 _atom_site_pbe_ddec_sum_bond_order
 _atom_site_pbe_magmom
K  K0  1  0.72553587  0.03871245  0.90987858  1  0  0.920799  0  0.408373  0  0  0.885486  0  0.566906  0  0  0.897462  0  0.546289  0  0  0.686521  0.876071  0  0.582109  0
K  K1  1  0.22553287  0.96129201  0.09012355  1  0  0.920794  0  0.40838  0  0  0.885491  0  0.566889  0  0  0.897463  0  0.546276  0  0  0.686514  0.876078  0  0.582095  0
H  H2  1  0.70473771  0.43853898  0.94928623  1  0  0.368699  0  0.931133  0  0  0.341554  0  1.006287  0  0  0.352841  0  0.993298  0  0  0.289169  0.333574  0  1.015419  0
H  H3  1  0.20473799  0.56146063  0.05071376  1  0  0.368714  0  0.931111  0  0  0.341565  0  1.006271  0  0  0.352853  0  0.993282  0  0  0.289172  0.333584  0  1.015403  0
H  H4  1  0.54763411  0.88566051  0.68650394  1  0  0.331835  0  0.954201  0  0  0.293321  0  1.060198  0  0  0.303823  0  1.047141  0  0  0.283396  0.285801  0  1.069435  0
H  H5  1  0.04763390  0.11433929  0.31349536  1  0  0.331842  0  0.954167  0  0  0.293327  0  1.060166  0  0  0.30383  0  1.047109  0  0  0.283402  0.285807  0  1.069404  0
H  H6  1  0.08249057  0.73726847  0.92004515  1  0  0.413442  0  0.893938  0  0  0.385484  0  0.953885  0  0  0.395653  0  0.938936  0  0  0.284848  0.378291  0  0.964456  0
H  H7  1  0.58248986  0.26273372  0.07995489  1  0  0.413511  0  0.893827  0  0  0.385584  0  0.953758  0  0  0.395749  0  0.938811  0  0  0.284885  0.37839  0  0.96433  0
H  H8  1  0.90801323  0.72134857  0.97830514  1  0  0.413036  0  0.893282  0  0  0.382456  0  0.958297  0  0  0.392425  0  0.94362  0  0  0.285459  0.375402  0  0.968684  0
H  H9  1  0.40801389  0.27865202  0.02169425  1  0  0.413061  0  0.893244  0  0  0.382497  0  0.958235  0  0  0.392466  0  0.943553  0  0  0.285471  0.375441  0  0.968623  0
H  H10  1  0.40820270  0.73789645  0.93521453  1  0  0.41616  0  0.891244  0  0  0.387118  0  0.952555  0  0  0.397745  0  0.936903  0  0  0.283467  0.3796  0  0.96362  0
H  H11  1  0.90820469  0.26210292  0.06478550  1  0  0.416074  0  0.891345  0  0  0.387078  0  0.952594  0  0  0.397707  0  0.936937  0  0  0.283457  0.37956  0  0.963655  0
H  H12  1  0.57856363  0.72859051  0.99648023  1  0  0.409496  0  0.898391  0  0  0.3784  0  0.963987  0  0  0.388516  0  0.94912  0  0  0.283033  0.371268  0  0.974467  0
H  H13  1  0.07856429  0.27140803  0.00351904  1  0  0.409555  0  0.898317  0  0  0.378457  0  0.963916  0  0  0.388573  0  0.949047  0  0  0.283073  0.371323  0  0.974397  0
H  H14  1  0.84656777  0.30972576  0.78572784  1  0  0.034217  0  0.941479  0  0  0.050358  0  1.007197  0  0  0.049752  0  1.008237  0  0  0.097165  0.050787  0  1.00648  0
H  H15  1  0.34656662  0.69027490  0.21427221  1  0  0.0342  0  0.941474  0  0  0.050351  0  1.007186  0  0  0.049746  0  1.008226  0  0  0.097158  0.050781  0  1.006468  0
H  H16  1  0.92572293  0.47359239  0.85622068  1  0  0.038871  0  0.964326  0  0  0.052853  0  1.032942  0  0  0.052394  0  1.03348  0  0  0.096734  0.053053  0  1.032729  0
H  H17  1  0.42572469  0.52640818  0.14377871  1  0  0.038884  0  0.964379  0  0  0.052878  0  1.032972  0  0  0.052418  0  1.033511  0  0  0.096746  0.053079  0  1.032758  0
H  H18  1  0.57163742  0.48901057  0.74940063  1  0  0.069613  0  0.965447  0  0  0.084719  0  1.032292  0  0  0.083993  0  1.033724  0  0  0.1039  0.085189  0  1.031348  0
H  H19  1  0.07163792  0.51098920  0.25059868  1  0  0.069554  0  0.965375  0  0  0.084662  0  1.032245  0  0  0.083934  0  1.033678  0  0  0.103871  0.085129  0  1.031309  0
H  H20  1  0.68050228  0.65224262  0.80787655  1  0  0.085294  0  0.936358  0  0  0.098512  0  1.002293  0  0  0.099982  0  1.000154  0  0  0.115543  0.09732  0  1.003994  0
H  H21  1  0.18050570  0.34775824  0.19212347  1  0  0.085303  0  0.936334  0  0  0.098521  0  1.00228  0  0  0.099992  0  1.000139  0  0  0.11555  0.097329  0  1.00398  0
H  H22  1  0.90516227  0.97482551  0.65875025  1  0  0.049792  0  0.938142  0  0  0.064012  0  1.00377  0  0  0.062973  0  1.005476  0  0  0.096194  0.064671  0  1.002686  0
H  H23  1  0.40516221  0.02517508  0.34124981  1  0  0.049812  0  0.938141  0  0  0.064029  0  1.003766  0  0  0.062991  0  1.005472  0  0  0.096199  0.064688  0  1.002683  0
H  H24  1  0.76307292  0.84313899  0.59264521  1  0  0.047225  0  0.933166  0  0  0.059604  0  1.005199  0  0  0.059534  0  1.004436  0  0  0.09747  0.059491  0  1.005917  0
H  H25  1  0.26307136  0.15686177  0.40735483  1  0  0.04724  0  0.933189  0  0  0.059613  0  1.005223  0  0  0.059542  0  1.004466  0  0  0.09747  0.059503  0  1.005936  0
H  H26  1  0.04274581  0.71041823  0.65795234  1  0  0.07241  0  0.955217  0  0  0.085717  0  1.025127  0  0  0.084917  0  1.026629  0  0  0.10654  0.086229  0  1.024133  0
H  H27  1  0.54274527  0.28958036  0.34204759  1  0  0.072413  0  0.955205  0  0  0.085681  0  1.025157  0  0  0.08488  0  1.026661  0  0  0.106523  0.086193  0  1.024163  0
H  H28  1  0.95259805  0.75135892  0.76582510  1  0  0.084635  0  0.931602  0  0  0.100488  0  0.996321  0  0  0.101116  0  0.995769  0  0  0.116128  0.099939  0  0.996861  0
H  H29  1  0.45259893  0.24864040  0.23417494  1  0  0.084624  0  0.931607  0  0  0.100482  0  0.996318  0  0  0.10111  0  0.995766  0  0  0.116128  0.099934  0  0.996857  0
H  H30  1  0.98830511  0.61545476  0.53458498  1  0  0.09486  0  0.998832  0  0  0.1046  0  1.062354  0  0  0.106523  0  1.064323  0  0  0.09807  0.10321  0  1.061141  0
H  H31  1  0.48830462  0.38454208  0.46541500  1  0  0.094854  0  0.998864  0  0  0.104623  0  1.062348  0  0  0.106545  0  1.06432  0  0  0.09808  0.103235  0  1.061129  0
H  H32  1  0.00008270  0.41560623  0.40903151  1  0  0.09761  0  0.972418  0  0  0.105884  0  1.038592  0  0  0.108589  0  1.03714  0  0  0.103048  0.103904  0  1.039657  0
H  H33  1  0.50008329  0.58439362  0.59096978  1  0  0.097676  0  0.972461  0  0  0.105946  0  1.038624  0  0  0.108651  0  1.037169  0  0  0.103066  0.103964  0  1.039691  0
H  H34  1  0.65127772  0.09319038  0.54812694  1  0  0.103198  0  0.967355  0  0  0.106572  0  1.039444  0  0  0.109142  0  1.037111  0  0  0.106612  0.104646  0  1.041167  0
H  H35  1  0.15127917  0.90680808  0.45187368  1  0  0.103184  0  0.96736  0  0  0.10657  0  1.039424  0  0  0.109137  0  1.037092  0  0  0.106617  0.104644  0  1.041148  0
H  H36  1  0.64023767  0.28567736  0.67613699  1  0  0.105428  0  0.974651  0  0  0.116238  0  1.033929  0  0  0.119015  0  1.034191  0  0  0.108265  0.114233  0  1.033941  0
H  H37  1  0.14023522  0.71432111  0.32386429  1  0  0.105415  0  0.974744  0  0  0.11626  0  1.033971  0  0  0.119037  0  1.034236  0  0  0.108282  0.114256  0  1.033981  0
H  H38  1  0.78142529  0.07199029  0.22717227  1  0  0.112734  0  0.942632  0  0  0.12378  0  0.998941  0  0  0.127613  0  0.996513  0  0  0.114746  0.120948  0  1.000917  0
H  H39  1  0.28142968  0.92800923  0.77282707  1  0  0.112743  0  0.942608  0  0  0.123796  0  0.998915  0  0  0.127628  0  0.996487  0  0  0.11474  0.120964  0  1.000892  0
H  H40  1  0.77764915  0.86750621  0.10005085  1  0  0.093507  0  0.959977  0  0  0.107365  0  1.016586  0  0  0.110514  0  1.014899  0  0  0.118184  0.105067  0  1.017895  0
H  H41  1  0.27765209  0.13249331  0.89994849  1  0  0.093483  0  0.960043  0  0  0.107344  0  1.016647  0  0  0.110489  0  1.014959  0  0  0.118172  0.105046  0  1.017956  0
H  H42  1  0.73541952  0.48008987  0.28148627  1  0  0.098308  0  0.955726  0  0  0.105496  0  1.024062  0  0  0.109371  0  1.020689  0  0  0.10276  0.102653  0  1.026602  0
H  H43  1  0.23541767  0.51990848  0.71851369  1  0  0.098269  0  0.955743  0  0  0.105486  0  1.024048  0  0  0.109359  0  1.020675  0  0  0.102782  0.102645  0  1.026584  0
H  H44  1  0.72999382  0.68564882  0.41058312  1  0  0.100186  0  0.970491  0  0  0.107889  0  1.038186  0  0  0.11091  0  1.037705  0  0  0.099495  0.105737  0  1.03859  0
H  H45  1  0.22999489  0.31435076  0.58941688  1  0  0.100187  0  0.970481  0  0  0.107893  0  1.038174  0  0  0.110915  0  1.037693  0  0  0.099499  0.10574  0  1.038578  0
C  C46  1  0.80246083  0.41632680  0.82768237  1  0  0.125356  0  3.683341  0  0  0.067735  0  3.960744  0  0  0.074656  0  3.967487  0  0  -0.085682  0.063116  0  3.9558  0
C  C47  1  0.30246252  0.58367391  0.17231700  1  0  0.125332  0  3.683362  0  0  0.067709  0  3.960775  0  0  0.074628  0  3.96752  0  0  -0.085701  0.063089  0  3.955826  0
C  C48  1  0.70519117  0.53755139  0.76952327  1  0  -0.050715  0  3.64537  0  0  -0.1129  0  3.902873  0  0  -0.107996  0  3.914416  0  0  -0.068017  -0.116044  0  3.894848  0
C  C49  1  0.20519309  0.46244944  0.23047676  1  0  -0.050621  0  3.645162  0  0  -0.112838  0  3.902717  0  0  -0.107934  0  3.914263  0  0  -0.067993  -0.115982  0  3.894687  0
C  C50  1  0.81115495  0.87094901  0.66128418  1  0  0.121759  0  3.65026  0  0  0.064605  0  3.926824  0  0  0.0717  0  3.933059  0  0  -0.079984  0.05988  0  3.922354  0
C  C51  1  0.31115473  0.12905169  0.33871586  1  0  0.121704  0  3.650328  0  0  0.064561  0  3.926872  0  0  0.071656  0  3.933105  0  0  -0.079988  0.059835  0  3.922405  0
C  C52  1  0.91544869  0.72579355  0.69550736  1  0  -0.048389  0  3.656973  0  0  -0.114182  0  3.92267  0  0  -0.109654  0  3.935556  0  0  -0.064061  -0.117048  0  3.913601  0
C  C53  1  0.41544823  0.27420581  0.30449267  1  0  -0.048357  0  3.657003  0  0  -0.114124  0  3.922698  0  0  -0.109595  0  3.935583  0  0  -0.064043  -0.116992  0  3.91363  0
C  C54  1  0.81824857  0.46710823  0.61862327  1  0  0.217532  0  3.785588  0  0  0.205323  0  4.030771  0  0  0.220305  0  4.050992  0  0  0.116364  0.195254  0  4.01691  0
C  C55  1  0.31824915  0.53289125  0.38137741  1  0  0.21762  0  3.785534  0  0  0.205385  0  4.030754  0  0  0.220369  0  4.050973  0  0  0.116384  0.195316  0  4.016892  0
C  C56  1  0.91702011  0.50046142  0.54000465  1  0  -0.18448  0  3.747075  0  0  -0.200254  0  3.998589  0  0  -0.210966  0  4.02193  0  0  -0.106957  -0.193158  0  3.982834  0
C  C57  1  0.41701808  0.49953794  0.45999604  1  0  -0.184556  0  3.747164  0  0  -0.200348  0  3.998678  0  0  -0.211061  0  4.02202  0  0  -0.107016  -0.19325  0  3.982925  0
C  C58  1  0.92365446  0.38808345  0.46859979  1  0  -0.097914  0  3.755248  0  0  -0.120234  0  4.009908  0  0  -0.116701  0  4.030668  0  0  -0.083615  -0.122267  0  3.995774  0
C  C59  1  0.42365504  0.61191469  0.53140154  1  0  -0.097897  0  3.755294  0  0  -0.120204  0  4.009928  0  0  -0.116667  0  4.030684  0  0  -0.083582  -0.122238  0  3.995796  0
C  C60  1  0.83167753  0.23804927  0.47032043  1  0  0.119888  0  3.865264  0  0  0.118203  0  4.122741  0  0  0.110528  0  4.149362  0  0  0.069477  0.122938  0  4.105011  0
C  C61  1  0.33167789  0.76194897  0.52967888  1  0  0.119809  0  3.865266  0  0  0.118116  0  4.122761  0  0  0.110439  0  4.149379  0  0  0.069442  0.122852  0  4.105029  0
C  C62  1  0.72712729  0.20655032  0.54683848  1  0  -0.09215  0  3.740447  0  0  -0.111267  0  3.987895  0  0  -0.107391  0  4.008168  0  0  -0.081599  -0.11354  0  3.974137  0
C  C63  1  0.22712755  0.79344926  0.45316151  1  0  -0.092119  0  3.740467  0  0  -0.111214  0  3.987886  0  0  -0.107354  0  4.008202  0  0  -0.081609  -0.113485  0  3.974125  0
C  C64  1  0.72104976  0.31635908  0.61871105  1  0  -0.168985  0  3.730822  0  0  -0.18401  0  3.980557  0  0  -0.194395  0  4.003054  0  0  -0.094648  -0.17714  0  3.965428  0
C  C65  1  0.22104876  0.68364173  0.38128898  1  0  -0.169018  0  3.730866  0  0  -0.18407  0  3.980616  0  0  -0.194457  0  4.003108  0  0  -0.09466  -0.1772  0  3.965488  0
C  C66  1  0.76325477  0.89031098  0.32746626  1  0  0.173418  0  3.840307  0  0  0.176891  0  4.092088  0  0  0.179207  0  4.113652  0  0  0.09163  0.175098  0  4.077745  0
C  C67  1  0.26325484  0.10968856  0.67253308  1  0  0.173347  0  3.84035  0  0  0.176867  0  4.092085  0  0  0.179184  0  4.11365  0  0  0.091614  0.175074  0  4.077743  0
C  C68  1  0.77343905  0.94231111  0.23918792  1  0  -0.146795  0  3.719908  0  0  -0.163067  0  3.96378  0  0  -0.166158  0  3.9831  0  0  -0.081435  -0.161116  0  3.951024  0
C  C69  1  0.27343792  0.05768842  0.76081075  1  0  -0.146824  0  3.719909  0  0  -0.163128  0  3.963793  0  0  -0.16622  0  3.983112  0  0  -0.081433  -0.161179  0  3.951038  0
C  C70  1  0.77039290  0.82757969  0.16818376  1  0  -0.064446  0  3.755691  0  0  -0.087955  0  4.00281  0  0  -0.086868  0  4.021015  0  0  -0.07313  -0.088521  0  3.990556  0
C  C71  1  0.27039301  0.17241862  0.83181621  1  0  -0.064431  0  3.755746  0  0  -0.087939  0  4.002864  0  0  -0.086846  0  4.021063  0  0  -0.073149  -0.088505  0  3.990614  0
C  C72  1  0.75966000  0.66029271  0.18312969  1  0  -0.078844  0  3.769513  0  0  -0.061632  0  4.016609  0  0  -0.067927  0  4.036529  0  0  -0.018278  -0.057766  0  4.003458  0
C  C73  1  0.25965850  0.33970562  0.81687028  1  0  -0.078797  0  3.769464  0  0  -0.061568  0  4.016546  0  0  -0.067863  0  4.03646  0  0  -0.018222  -0.057705  0  4.003402  0
C  C74  1  0.74542722  0.61003440  0.27099784  1  0  -0.065892  0  3.756404  0  0  -0.090741  0  4.010287  0  0  -0.089035  0  4.02722  0  0  -0.085577  -0.091802  0  3.999031  0
C  C75  1  0.24542150  0.38996395  0.72900279  1  0  -0.065866  0  3.756392  0  0  -0.090728  0  4.010253  0  0  -0.089029  0  4.02721  0  0  -0.085646  -0.091788  0  3.998997  0
C  C76  1  0.74321755  0.72345675  0.34229156  1  0  -0.13111  0  3.717393  0  0  -0.150508  0  3.966787  0  0  -0.154017  0  3.986564  0  0  -0.086744  -0.148264  0  3.95373  0
C  C77  1  0.24321737  0.27654160  0.65770841  1  0  -0.131111  0  3.717343  0  0  -0.15053  0  3.966739  0  0  -0.154043  0  3.986517  0  0  -0.086747  -0.148286  0  3.953683  0
C  C78  1  0.75709054  0.53455362  0.10790397  1  0  0.66181  0  3.885552  0  0  0.598942  0  4.196051  0  0  0.633928  0  4.185311  0  0  0.219516  0.575235  0  4.20283  0
C  C79  1  0.25708756  0.46544593  0.89209603  1  0  0.661876  0  3.885478  0  0  0.598965  0  4.196024  0  0  0.633956  0  4.185282  0  0  0.219526  0.575258  0  4.202804  0
N  N80  1  0.81217240  0.57404450  0.69089018  1  0  -0.153471  0  3.413727  0  0  -0.060205  0  3.638231  0  0  -0.085666  0  3.66814  0  0  -0.271172  -0.042636  0  3.61712  0
N  N81  1  0.31217308  0.42595499  0.30910916  1  0  -0.153507  0  3.413707  0  0  -0.060214  0  3.638195  0  0  -0.085676  0  3.668105  0  0  -0.271174  -0.042645  0  3.617084  0
N  N82  1  0.84677689  0.13036619  0.39651586  1  0  -0.18311  0  3.121758  0  0  -0.140177  0  3.396192  0  0  -0.135396  0  3.401418  0  0  -0.158566  -0.143072  0  3.392502  0
N  N83  1  0.34677715  0.86963326  0.60348482  1  0  -0.183088  0  3.121649  0  0  -0.140157  0  3.3961  0  0  -0.135374  0  3.401326  0  0  -0.158551  -0.143051  0  3.39241  0
N  N84  1  0.76348288  0.99426659  0.40367542  1  0  -0.193425  0  3.01806  0  0  -0.17196  0  3.302111  0  0  -0.172091  0  3.307816  0  0  -0.177241  -0.171437  0  3.297983  0
N  N85  1  0.26348169  0.00573174  0.59632389  1  0  -0.193388  0  3.018009  0  0  -0.171938  0  3.302057  0  0  -0.172068  0  3.307763  0  0  -0.177234  -0.171417  0  3.297931  0
O  O86  1  0.68654741  0.36226048  0.89580740  1  0  -0.612055  0  2.102716  0  0  -0.562217  0  2.343929  0  0  -0.580451  0  2.333286  0  0  -0.496832  -0.548745  0  2.350753  0
O  O87  1  0.18654762  0.63774037  0.10419263  1  0  -0.61206  0  2.102693  0  0  -0.562216  0  2.343894  0  0  -0.580446  0  2.333248  0  0  -0.496818  -0.548758  0  2.350753  0
O  O88  1  0.66172909  0.91649164  0.71838254  1  0  -0.586901  0  2.067295  0  0  -0.533579  0  2.3079  0  0  -0.549485  0  2.296308  0  0  -0.443559  -0.521925  0  2.315617  0
O  O89  1  0.16172754  0.08350680  0.28161742  1  0  -0.586898  0  2.067269  0  0  -0.533584  0  2.307876  0  0  -0.549486  0  2.296277  0  0  -0.443569  -0.52193  0  2.315592  0
O  O90  1  0.74852632  0.58321908  0.02768685  1  0  -0.661753  0  2.04385  0  0  -0.583346  0  2.257859  0  0  -0.609737  0  2.24657  0  0  -0.304933  -0.565201  0  2.265473  0
O  O91  1  0.24852212  0.41678292  0.97231255  1  0  -0.661751  0  2.043824  0  0  -0.583333  0  2.257843  0  0  -0.609733  0  2.24656  0  0  -0.304911  -0.565197  0  2.265484  0
O  O92  1  0.75885754  0.38525845  0.12701112  1  0  -0.644789  0  1.974222  0  0  -0.580026  0  2.195614  0  0  -0.604026  0  2.183341  0  0  -0.314177  -0.563415  0  2.203746  0
O  O93  1  0.25885568  0.61474110  0.87298755  1  0  -0.644834  0  1.974212  0  0  -0.580033  0  2.195597  0  0  -0.604031  0  2.183325  0  0  -0.314176  -0.563422  0  2.203732  0
O  O94  1  0.97869390  0.80109800  0.94518208  1  0  -0.901999  0  1.744735  0  0  -0.860528  0  1.907283  0  0  -0.878534  0  1.878064  0  0  -0.687069  -0.847535  0  1.927749  0
O  O95  1  0.47869470  0.19890251  0.05481799  1  0  -0.902072  0  1.744629  0  0  -0.860657  0  1.907088  0  0  -0.878654  0  1.877878  0  0  -0.687107  -0.847663  0  1.927559  0
O  O96  1  0.49466176  0.80769687  0.97067446  1  0  -0.913895  0  1.753069  0  0  -0.870859  0  1.916541  0  0  -0.888662  0  1.885989  0  0  -0.71046  -0.858001  0  1.937859  0
O  O97  1  0.99466382  0.19230240  0.02932491  1  0  -0.913884  0  1.75313  0  0  -0.870873  0  1.916529  0  0  -0.888684  0  1.885989  0  0  -0.710499  -0.858013  0  1.937854  0
