# generated using pymatgen
data_ZnH16C24N2(ClO)2
_symmetry_space_group_name_H-M   'P 1'
_cell_length_a   8.98449280
_cell_length_b   10.76242486
_cell_length_c   12.22332170
_cell_angle_alpha   65.01130847
_cell_angle_beta   89.69719334
_cell_angle_gamma   83.42406416
_symmetry_Int_Tables_number   1
_chemical_formula_structural   ZnH16C24N2(ClO)2
_chemical_formula_sum   'Zn2 H32 C48 N4 Cl4 O4'
_cell_volume   1063.02628087
_cell_formula_units_Z   2
loop_
 _symmetry_equiv_pos_site_id
 _symmetry_equiv_pos_as_xyz
  1  'x, y, z'
loop_
 _atom_site_type_symbol
 _atom_site_label
 _atom_site_symmetry_multiplicity
 _atom_site_fract_x
 _atom_site_fract_y
 _atom_site_fract_z
 _atom_site_occupancy
 _atom_site_pbe_bader_spin_density
 _atom_site_pbe_cm5_charge
 _atom_site_pbe_ddec_charge
 _atom_site_pbe_ddec_spin_density
 _atom_site_pbe_ddec_sum_bond_order
 _atom_site_pbe_magmom
Zn  Zn0  1  0.89795710  0.65582741  0.62436058  1  0  0.564056  0.675797  0  2.652994  0
Zn  Zn1  1  0.10204250  0.34417223  0.37563958  1  0  0.56406  0.675824  0  2.652934  0
H  H2  1  0.95128088  0.09503918  0.16671713  1  0  0.094731  0.100973  0  1.033818  0
H  H3  1  0.04872011  0.90495839  0.83328380  1  0  0.094747  0.10096  0  1.033796  0
H  H4  1  0.98248384  0.24508611  0.94960804  1  0  0.093971  0.094355  0  1.049443  0
H  H5  1  0.01751924  0.75491249  0.05039413  1  0  0.093945  0.0943  0  1.049508  0
H  H6  1  0.83235939  0.22705543  0.79072622  1  0  0.091444  0.094823  0  1.034664  0
H  H7  1  0.16764439  0.77294627  0.20927478  1  0  0.091464  0.094834  0  1.034682  0
H  H8  1  0.64615654  0.05488546  0.84730296  1  0  0.09623  0.089785  0  1.022248  0
H  H9  1  0.35384501  0.94511624  0.15269560  1  0  0.096216  0.089766  0  1.022283  0
H  H10  1  0.62257118  0.89789470  0.06169670  1  0  0.100359  0.101016  0  1.041436  0
H  H11  1  0.37743078  0.10210390  0.93830220  1  0  0.100343  0.101002  0  1.041442  0
H  H12  1  0.95588979  0.89733328  0.37527969  1  0  0.122342  0.134687  0  1.000515  0
H  H13  1  0.04410967  0.10266738  0.62471845  1  0  0.122349  0.134733  0  1.000445  0
H  H14  1  0.40574401  0.73015618  0.33797105  1  0  0.106042  0.107916  0  1.014123  0
H  H15  1  0.59425657  0.26984449  0.66202954  1  0  0.106047  0.107914  0  1.01411  0
H  H16  1  0.76767331  0.44680873  0.57539535  1  0  0.094716  0.104049  0  1.053839  0
H  H17  1  0.23232838  0.55319193  0.42460441  1  0  0.094722  0.104067  0  1.053838  0
H  H18  1  0.21326739  0.56566858  0.82843048  1  0  0.094536  0.102048  0  1.044601  0
H  H19  1  0.78673110  0.43433105  0.17156887  1  0  0.094518  0.102013  0  1.044585  0
H  H20  1  0.05968417  0.41452140  0.98701212  1  0  0.099444  0.096168  0  1.019124  0
H  H21  1  0.94031419  0.58547926  0.01298684  1  0  0.09945  0.096183  0  1.01913  0
H  H22  1  0.17902774  0.19962621  0.15589203  1  0  0.093629  0.092788  0  1.027367  0
H  H23  1  0.82097061  0.80037446  0.84410693  1  0  0.093587  0.092718  0  1.027348  0
H  H24  1  0.45622945  0.13376121  0.16298848  1  0  0.097048  0.093117  0  1.008509  0
H  H25  1  0.54376891  0.86623945  0.83701048  1  0  0.097039  0.093103  0  1.008495  0
H  H26  1  0.61090255  0.28438308  0.00717540  1  0  0.098919  0.101126  0  1.033321  0
H  H27  1  0.38909580  0.71561759  0.99282438  1  0  0.098913  0.101107  0  1.033329  0
H  H28  1  0.75476940  0.43141878  0.84206687  1  0  0.118821  0.123864  0  1.037818  0
H  H29  1  0.24522923  0.56857982  0.15793368  1  0  0.118826  0.123863  0  1.037785  0
H  H30  1  0.29809545  0.84609522  0.55865383  1  0  0.096103  0.113278  0  1.038001  0
H  H31  1  0.70190527  0.15390442  0.44134633  1  0  0.096101  0.113259  0  1.038036  0
H  H32  1  0.75914936  0.91314439  0.59193337  1  0  0.089573  0.099383  0  1.071012  0
H  H33  1  0.24084899  0.08685629  0.40806886  1  0  0.089555  0.099325  0  1.070962  0
C  C34  1  0.78556377  0.98524016  0.12872298  1  0  -0.013087  0.029511  0  4.05024  0
C  C35  1  0.21443611  0.01475740  0.87127631  1  0  -0.013102  0.029577  0  4.050083  0
C  C36  1  0.88580482  0.08527849  0.09651477  1  0  -0.083399  -0.105627  0  3.935974  0
C  C37  1  0.11419714  0.91472011  0.90348576  1  0  -0.08341  -0.105657  0  3.93597  0
C  C38  1  0.90162638  0.17062995  0.97537315  1  0  -0.092538  -0.081574  0  4.00474  0
C  C39  1  0.09837545  0.82936969  0.02462700  1  0  -0.092504  -0.081445  0  4.004615  0
C  C40  1  0.81632919  0.15991920  0.88501684  1  0  -0.093888  -0.090167  0  4.009151  0
C  C41  1  0.18367362  0.84008146  0.11498292  1  0  -0.093881  -0.090174  0  4.009065  0
C  C42  1  0.71376030  0.06384358  0.91684508  1  0  -0.093422  -0.084479  0  4.031151  0
C  C43  1  0.28624237  0.93615812  0.08315430  1  0  -0.093446  -0.084501  0  4.031038  0
C  C44  1  0.69877318  0.97610832  0.03769192  1  0  -0.087659  -0.114001  0  3.951309  0
C  C45  1  0.30122851  0.02389234  0.96230621  1  0  -0.087637  -0.114  0  3.951126  0
C  C46  1  0.77885852  0.88711596  0.25349331  1  0  0.087844  0.166802  0  3.937325  0
C  C47  1  0.22114428  0.11288470  0.74650481  1  0  0.08785  0.16675  0  3.937348  0
C  C48  1  0.86361841  0.85042537  0.35787013  1  0  0.006044  -0.074724  0  3.922839  0
C  C49  1  0.13638008  0.14957427  0.64213086  1  0  0.006032  -0.074738  0  3.92276  0
C  C50  1  0.69691469  0.70744867  0.39965510  1  0  0.225203  0.343278  0  3.937957  0
C  C51  1  0.30308491  0.29255096  0.60034424  1  0  0.225196  0.343321  0  3.937935  0
C  C52  1  0.59784529  0.60129133  0.45154607  1  0  -0.007393  -0.002604  0  4.021029  0
C  C53  1  0.40215543  0.39870831  0.54845491  1  0  -0.007354  -0.002573  0  4.020921  0
C  C54  1  0.44701268  0.62878887  0.40839063  1  0  -0.08207  -0.099167  0  3.941021  0
C  C55  1  0.55298706  0.37120974  0.59160991  1  0  -0.082097  -0.0992  0  3.940961  0
C  C56  1  0.65010910  0.47068952  0.54355186  1  0  -0.081581  -0.0902  0  3.941217  0
C  C57  1  0.34989148  0.52931114  0.45644791  1  0  -0.08161  -0.090256  0  3.941209  0
C  C58  1  0.42249471  0.43529568  0.90692627  1  0  -0.016143  0.026076  0  4.056325  0
C  C59  1  0.57750378  0.56470395  0.09307307  1  0  -0.01614  0.026087  0  4.056394  0
C  C60  1  0.26653107  0.47141719  0.90194971  1  0  -0.08713  -0.106704  0  3.939574  0
C  C61  1  0.73346715  0.52858451  0.09804887  1  0  -0.087136  -0.10673  0  3.939555  0
C  C62  1  0.18053535  0.38589179  0.99131526  1  0  -0.092299  -0.078324  0  4.002902  0
C  C63  1  0.81946286  0.61410991  0.00868332  1  0  -0.092311  -0.078342  0  4.002974  0
C  C64  1  0.24727937  0.26438719  0.08538331  1  0  -0.090396  -0.074708  0  3.987187  0
C  C65  1  0.75271787  0.73561347  0.91461566  1  0  -0.090364  -0.07465  0  3.987073  0
C  C66  1  0.40232582  0.22797298  0.08972188  1  0  -0.096703  -0.088526  0  4.03169  0
C  C67  1  0.59767142  0.77202769  0.91027790  1  0  -0.096694  -0.088492  0  4.031609  0
C  C68  1  0.48983198  0.31243676  0.00166288  1  0  -0.087005  -0.113825  0  3.948323  0
C  C69  1  0.51016651  0.68756288  0.99833729  1  0  -0.086966  -0.113767  0  3.9484  0
C  C70  1  0.51633437  0.52513138  0.81977791  1  0  0.090591  0.168414  0  3.945417  0
C  C71  1  0.48366398  0.47486929  0.18022187  1  0  0.090552  0.168425  0  3.945526  0
C  C72  1  0.66652669  0.51635945  0.79943716  1  0  0.004373  -0.084103  0  3.949617  0
C  C73  1  0.33347305  0.48363915  0.20056338  1  0  0.004406  -0.084102  0  3.949658  0
C  C74  1  0.56591847  0.72016712  0.67299897  1  0  0.220684  0.32664  0  3.968987  0
C  C75  1  0.43408086  0.27983459  0.32700205  1  0  0.220675  0.326636  0  3.968934  0
C  C76  1  0.53302300  0.86203818  0.58445167  1  0  -0.013217  -0.010405  0  4.044782  0
C  C77  1  0.46697647  0.13796250  0.41554974  1  0  -0.013194  -0.010377  0  4.044619  0
C  C78  1  0.38654438  0.91321636  0.53279231  1  0  -0.08538  -0.099396  0  3.93864  0
C  C79  1  0.61345482  0.08678638  0.46720751  1  0  -0.085381  -0.099376  0  3.938539  0
C  C80  1  0.64577174  0.95043117  0.55113393  1  0  -0.088295  -0.099369  0  3.950597  0
C  C81  1  0.35422912  0.04956744  0.44886906  1  0  -0.08829  -0.0993  0  3.950561  0
N  N82  1  0.81103303  0.73744991  0.44840928  1  0  -0.343039  -0.310601  0  3.561189  0
N  N83  1  0.18896658  0.26254973  0.55159089  1  0  -0.343046  -0.310653  0  3.561195  0
N  N84  1  0.69555804  0.63931702  0.70721872  1  0  -0.348266  -0.319281  0  3.582129  0
N  N85  1  0.30444156  0.36068262  0.29278145  1  0  -0.34828  -0.319288  0  3.582148  0
Cl  Cl86  1  0.02851765  0.80814899  0.64880199  1  0  -0.30636  -0.490974  0  1.200839  0
Cl  Cl87  1  0.97148209  0.19184961  0.35119856  1  0  -0.306365  -0.490979  0  1.200813  0
Cl  Cl88  1  0.01230039  0.44110013  0.69313176  1  0  -0.30849  -0.48163  0  1.267328  0
Cl  Cl89  1  0.98769907  0.55890053  0.30686720  1  0  -0.308499  -0.481638  0  1.26729  0
O  O90  1  0.67143191  0.79688366  0.28139510  1  0  -0.097375  -0.14847  0  2.548958  0
O  O91  1  0.32856881  0.20311597  0.71860423  1  0  -0.097346  -0.148467  0  2.548969  0
O  O92  1  0.45241055  0.65442705  0.73745561  1  0  -0.091559  -0.13703  0  2.544933  0
O  O93  1  0.54758794  0.34557259  0.26254455  1  0  -0.091545  -0.13706  0  2.545017  0
