# generated using pymatgen
data_ZnH14C18N4O9F4
_symmetry_space_group_name_H-M   'P 1'
_cell_length_a   8.06415256
_cell_length_b   11.88288424
_cell_length_c   12.20281420
_cell_angle_alpha   85.84528901
_cell_angle_beta   70.70614492
_cell_angle_gamma   77.32537404
_symmetry_Int_Tables_number   1
_chemical_formula_structural   ZnH14C18N4O9F4
_chemical_formula_sum   'Zn2 H28 C36 N8 O18 F8'
_cell_volume   1076.77080361
_cell_formula_units_Z   2
loop_
 _symmetry_equiv_pos_site_id
 _symmetry_equiv_pos_as_xyz
  1  'x, y, z'
loop_
 _atom_site_type_symbol
 _atom_site_label
 _atom_site_symmetry_multiplicity
 _atom_site_fract_x
 _atom_site_fract_y
 _atom_site_fract_z
 _atom_site_occupancy
 _atom_site_hle17_bader_spin_density
 _atom_site_hle17_ddec_charge
 _atom_site_hle17_ddec_spin_density
 _atom_site_hle17_ddec_sum_bond_order
 _atom_site_hle17_magmom
 _atom_site_hse06_10hf_bader_spin_density
 _atom_site_hse06_10hf_ddec_charge
 _atom_site_hse06_10hf_ddec_spin_density
 _atom_site_hse06_10hf_ddec_sum_bond_order
 _atom_site_hse06_10hf_magmom
 _atom_site_hse06_bader_spin_density
 _atom_site_hse06_ddec_charge
 _atom_site_hse06_ddec_spin_density
 _atom_site_hse06_ddec_sum_bond_order
 _atom_site_hse06_magmom
 _atom_site_pbe_bader_spin_density
 _atom_site_pbe_cm5_charge
 _atom_site_pbe_ddec_charge
 _atom_site_pbe_ddec_spin_density
 _atom_site_pbe_ddec_sum_bond_order
 _atom_site_pbe_magmom
Zn  Zn0  1  0.57294621  0.24998974  0.85448183  1  0  1.069514  0  1.826372  0  0  0.880582  0  2.30753  0  0  0.924212  0  2.252995  0  0  0.723228  0.85023  0  2.345035  0
Zn  Zn1  1  0.42705230  0.75001035  0.14551708  1  0  1.069512  0  1.826369  0  0  0.880558  0  2.307529  0  0  0.924188  0  2.252997  0  0  0.723218  0.850201  0  2.34503  0
H  H2  1  0.46992516  0.08804095  0.54011815  1  0  0.396298  0  0.901116  0  0  0.363809  0  0.98093  0  0  0.377278  0  0.962037  0  0  0.300919  0.354389  0  0.992309  0
H  H3  1  0.98972540  0.41204983  0.54018105  1  0  0.395931  0  0.899867  0  0  0.363444  0  0.980953  0  0  0.376836  0  0.962281  0  0  0.301125  0.35404  0  0.990965  0
H  H4  1  0.53007378  0.91195913  0.45988296  1  0  0.396303  0  0.901075  0  0  0.363812  0  0.980917  0  0  0.377282  0  0.962024  0  0  0.300916  0.354391  0  0.992272  0
H  H5  1  0.01027713  0.58795111  0.45981486  1  0  0.396006  0  0.899723  0  0  0.36353  0  0.980801  0  0  0.376927  0  0.96214  0  0  0.301158  0.354115  0  0.990829  0
H  H6  1  0.49302801  0.17791941  0.07261608  1  0  0.446404  0  0.847906  0  0  0.411845  0  0.914978  0  0  0.423186  0  0.898488  0  0  0.294346  0.403816  0  0.92664  0
H  H7  1  0.43426038  0.32196602  0.07262113  1  0  0.447029  0  0.846847  0  0  0.411801  0  0.914916  0  0  0.423173  0  0.898395  0  0  0.294551  0.403742  0  0.926618  0
H  H8  1  0.50697099  0.82208240  0.92738311  1  0  0.446361  0  0.847964  0  0  0.411801  0  0.915039  0  0  0.423139  0  0.898553  0  0  0.294323  0.403772  0  0.926701  0
H  H9  1  0.56573943  0.67803578  0.92737725  1  0  0.447047  0  0.84683  0  0  0.411817  0  0.914905  0  0  0.42319  0  0.89838  0  0  0.294554  0.403756  0  0.926609  0
H  H10  1  0.66755784  0.99454540  0.78147283  1  0  0.301303  0  0.94987  0  0  0.273532  0  1.022787  0  0  0.283845  0  1.014418  0  0  0.310858  0.266302  0  1.028663  0
H  H11  1  0.55111438  0.50536281  0.78146190  1  0  0.301701  0  0.949521  0  0  0.273662  0  1.023048  0  0  0.283893  0  1.014827  0  0  0.311026  0.266484  0  1.028815  0
H  H12  1  0.33244067  0.00545469  0.21852608  1  0  0.301279  0  0.949883  0  0  0.273517  0  1.022823  0  0  0.283831  0  1.014456  0  0  0.310866  0.266287  0  1.028698  0
H  H13  1  0.44888679  0.49463727  0.21853565  1  0  0.301637  0  0.949578  0  0  0.273594  0  1.023097  0  0  0.283819  0  1.014877  0  0  0.311016  0.266417  0  1.028861  0
H  H14  1  0.99776183  0.22836899  0.71738080  1  0  0.125102  0  0.948136  0  0  0.131995  0  1.0137  0  0  0.134946  0  1.01009  0  0  0.128639  0.129765  0  1.016367  0
H  H15  1  0.28466252  0.27153957  0.71775386  1  0  0.123604  0  0.947535  0  0  0.131047  0  1.012667  0  0  0.13391  0  1.00915  0  0  0.12794  0.128876  0  1.015223  0
H  H16  1  0.00223712  0.77163109  0.28262031  1  0  0.125063  0  0.948161  0  0  0.131957  0  1.013725  0  0  0.134909  0  1.010115  0  0  0.128632  0.129727  0  1.016391  0
H  H17  1  0.71533719  0.72846051  0.28224120  1  0  0.123624  0  0.947468  0  0  0.131061  0  1.012605  0  0  0.133927  0  1.009088  0  0  0.127945  0.128887  0  1.015165  0
H  H18  1  0.02345648  0.78992836  0.68302507  1  0  0.136243  0  0.962029  0  0  0.148875  0  1.034295  0  0  0.151713  0  1.031999  0  0  0.097171  0.146846  0  1.035948  0
H  H19  1  0.29382824  0.71005067  0.68287708  1  0  0.13631  0  0.96245  0  0  0.14908  0  1.03432  0  0  0.151914  0  1.032033  0  0  0.097391  0.147074  0  1.035959  0
H  H20  1  0.97654470  0.21007172  0.31697248  1  0  0.136268  0  0.961979  0  0  0.148858  0  1.034306  0  0  0.151697  0  1.03201  0  0  0.097143  0.14683  0  1.035958  0
H  H21  1  0.70616755  0.28995028  0.31712429  1  0  0.136274  0  0.962442  0  0  0.149041  0  1.034316  0  0  0.151879  0  1.032024  0  0  0.097381  0.147036  0  1.035957  0
H  H22  1  0.05821035  0.83792956  0.53829788  1  0  0.138743  0  0.944313  0  0  0.156781  0  1.00518  0  0  0.158792  0  1.0048  0  0  0.100716  0.155366  0  1.00544  0
H  H23  1  0.40380071  0.66177325  0.53823731  1  0  0.138441  0  0.942988  0  0  0.156379  0  1.00403  0  0  0.158355  0  1.003683  0  0  0.100341  0.154987  0  1.004278  0
H  H24  1  0.94178946  0.16206966  0.46170131  1  0  0.138777  0  0.944263  0  0  0.156799  0  1.005143  0  0  0.15881  0  1.004762  0  0  0.100725  0.155385  0  1.005405  0
H  H25  1  0.59619356  0.33822857  0.46176267  1  0  0.138437  0  0.942952  0  0  0.156372  0  1.004002  0  0  0.158348  0  1.003657  0  0  0.100351  0.154981  0  1.004254  0
H  H26  1  0.83646142  0.83239958  0.63289621  1  0  0.13224  0  0.91681  0  0  0.155441  0  0.967538  0  0  0.157848  0  0.966087  0  0  0.102333  0.153702  0  0.968608  0
H  H27  1  0.53094676  0.66729301  0.63284775  1  0  0.133211  0  0.915801  0  0  0.156016  0  0.966928  0  0  0.158403  0  0.9655  0  0  0.102715  0.154284  0  0.967997  0
H  H28  1  0.16354025  0.16759963  0.36710245  1  0  0.13225  0  0.916813  0  0  0.155456  0  0.967531  0  0  0.157863  0  0.966081  0  0  0.102351  0.153717  0  0.9686  0
H  H29  1  0.46905017  0.33270881  0.36715087  1  0  0.133191  0  0.915813  0  0  0.155996  0  0.966933  0  0  0.158385  0  0.965505  0  0  0.10271  0.154275  0  0.967991  0
C  C30  1  0.94193092  0.97152510  0.66575674  1  0  0.302529  0  3.661758  0  0  0.278298  0  3.936254  0  0  0.292412  0  3.952553  0  0  0.129187  0.269175  0  3.924909  0
C  C31  1  0.39212635  0.52838683  0.66592312  1  0  0.306843  0  3.660301  0  0  0.282187  0  3.93453  0  0  0.2963  0  3.95076  0  0  0.130842  0.273061  0  3.923249  0
C  C32  1  0.05806840  0.02847498  0.33424135  1  0  0.302437  0  3.661693  0  0  0.278236  0  3.936212  0  0  0.292349  0  3.952512  0  0  0.129157  0.269108  0  3.924868  0
C  C33  1  0.60787140  0.47161499  0.33407468  1  0  0.306859  0  3.660278  0  0  0.282131  0  3.934555  0  0  0.296264  0  3.950789  0  0  0.130842  0.273001  0  3.923278  0
C  C34  1  0.06096526  0.04764529  0.64616154  1  0  -0.269356  0  3.782295  0  0  -0.255502  0  4.046037  0  0  -0.274769  0  4.069301  0  0  -0.040586  -0.243013  0  4.030327  0
C  C35  1  0.29245815  0.45230135  0.64653266  1  0  -0.271775  0  3.784745  0  0  -0.256801  0  4.047697  0  0  -0.27596  0  4.0708  0  0  -0.04223  -0.244376  0  4.032083  0
C  C36  1  0.93903716  0.95235220  0.35383822  1  0  -0.269346  0  3.782376  0  0  -0.255479  0  4.046093  0  0  -0.274741  0  4.069349  0  0  -0.040546  -0.242989  0  4.030383  0
C  C37  1  0.70754411  0.54769786  0.35346407  1  0  -0.271796  0  3.784741  0  0  -0.256794  0  4.047738  0  0  -0.276017  0  4.070916  0  0  -0.042217  -0.244369  0  4.032122  0
C  C38  1  0.95921073  0.14813287  0.71011439  1  0  0.090438  0  3.654163  0  0  0.034709  0  3.92821  0  0  0.047745  0  3.940098  0  0  0.038938  0.026456  0  3.919887  0
C  C39  1  0.33038329  0.35181533  0.71048288  1  0  0.091568  0  3.653223  0  0  0.034903  0  3.926932  0  0  0.047985  0  3.938863  0  0  0.040209  0.026635  0  3.918563  0
C  C40  1  0.04079104  0.85186462  0.28988206  1  0  0.090515  0  3.654205  0  0  0.034802  0  3.928213  0  0  0.047836  0  3.940098  0  0  0.038947  0.026546  0  3.919886  0
C  C41  1  0.66962163  0.64818387  0.28951249  1  0  0.091563  0  3.653197  0  0  0.034899  0  3.92689  0  0  0.047995  0  3.938838  0  0  0.040204  0.026631  0  3.918513  0
C  C42  1  0.96608060  0.85163465  0.62722356  1  0  -0.371215  0  3.695581  0  0  -0.453781  0  3.94557  0  0  -0.457635  0  3.950717  0  0  -0.235092  -0.450903  0  3.941771  0
C  C43  1  0.40690350  0.64817857  0.62720633  1  0  -0.372664  0  3.694602  0  0  -0.454519  0  3.944719  0  0  -0.458317  0  3.949896  0  0  -0.235082  -0.451658  0  3.940832  0
C  C44  1  0.03391763  0.14836630  0.37277535  1  0  -0.371259  0  3.695491  0  0  -0.45378  0  3.945508  0  0  -0.457633  0  3.950652  0  0  -0.235087  -0.450901  0  3.941716  0
C  C45  1  0.59309343  0.35182324  0.37279229  1  0  -0.372618  0  3.694542  0  0  -0.454446  0  3.944661  0  0  -0.458257  0  3.949856  0  0  -0.235078  -0.451592  0  3.94077  0
C  C46  1  0.25123274  0.02553471  0.57920042  1  0  0.689459  0  3.839377  0  0  0.635075  0  4.141033  0  0  0.670739  0  4.131825  0  0  0.234043  0.610857  0  4.146873  0
C  C47  1  0.16923602  0.47442563  0.57948973  1  0  0.687404  0  3.837096  0  0  0.63246  0  4.139066  0  0  0.668098  0  4.129857  0  0  0.232231  0.608254  0  4.144901  0
C  C48  1  0.74876821  0.97446279  0.42079684  1  0  0.689393  0  3.83947  0  0  0.635032  0  4.141095  0  0  0.670695  0  4.131888  0  0  0.234025  0.610813  0  4.146936  0
C  C49  1  0.83076623  0.52557617  0.42050618  1  0  0.687428  0  3.83699  0  0  0.632424  0  4.139058  0  0  0.668081  0  4.129853  0  0  0.232256  0.608219  0  4.144894  0
C  C50  1  0.74849220  0.45994276  0.88666611  1  0  0.713236  0  3.856251  0  0  0.654657  0  4.165804  0  0  0.690236  0  4.153973  0  0  0.22258  0.630526  0  4.173194  0
C  C51  1  0.36511817  0.03980599  0.88671846  1  0  0.714892  0  3.857626  0  0  0.657232  0  4.165571  0  0  0.69283  0  4.153755  0  0  0.224075  0.633072  0  4.172966  0
C  C52  1  0.25150875  0.54005817  0.11333668  1  0  0.713258  0  3.856138  0  0  0.654709  0  4.165639  0  0  0.690286  0  4.153804  0  0  0.22255  0.630574  0  4.173034  0
C  C53  1  0.63487620  0.96019496  0.11328566  1  0  0.71483  0  3.857689  0  0  0.657149  0  4.165681  0  0  0.692752  0  4.153862  0  0  0.224101  0.632986  0  4.173074  0
C  C54  1  0.87667742  0.48121151  0.94567846  1  0  -0.214627  0  3.752351  0  0  -0.219455  0  4.023362  0  0  -0.225455  0  4.037813  0  0  -0.025887  -0.21563  0  4.014042  0
C  C55  1  0.17793173  0.01847974  0.94579390  1  0  -0.218845  0  3.752367  0  0  -0.22257  0  4.022818  0  0  -0.228698  0  4.037416  0  0  -0.028628  -0.218646  0  4.01339  0
C  C56  1  0.12332163  0.51878770  0.05432679  1  0  -0.214691  0  3.752326  0  0  -0.21954  0  4.02335  0  0  -0.225538  0  4.037805  0  0  -0.025876  -0.215708  0  4.014025  0
C  C57  1  0.82206471  0.98152120  0.05421079  1  0  -0.218863  0  3.752474  0  0  -0.22258  0  4.022969  0  0  -0.228703  0  4.037559  0  0  -0.028681  -0.21865  0  4.013546  0
C  C58  1  0.89785565  0.41757455  0.04274703  1  0  0.210852  0  3.774941  0  0  0.17192  0  4.07859  0  0  0.181645  0  4.086663  0  0  0.094847  0.164965  0  4.073688  0
C  C59  1  0.05972777  0.08210246  0.04289655  1  0  0.211525  0  3.772638  0  0  0.171833  0  4.077686  0  0  0.181533  0  4.085852  0  0  0.094803  0.164883  0  4.072722  0
C  C60  1  0.10214530  0.58242121  0.95725740  1  0  0.210819  0  3.774894  0  0  0.171867  0  4.07859  0  0  0.181587  0  4.086662  0  0  0.094812  0.164909  0  4.073689  0
C  C61  1  0.94026965  0.91789675  0.95711034  1  0  0.211484  0  3.772656  0  0  0.171762  0  4.07776  0  0  0.181461  0  4.085927  0  0  0.094821  0.164794  0  4.072817  0
C  C62  1  0.01829504  0.43608575  0.09576828  1  0  0.197345  0  3.790973  0  0  0.161297  0  4.097772  0  0  0.170565  0  4.106976  0  0  0.090596  0.154606  0  4.09214  0
C  C63  1  0.88601680  0.06392335  0.09578901  1  0  0.199487  0  3.785775  0  0  0.161797  0  4.094038  0  0  0.171179  0  4.103205  0  0  0.091227  0.155037  0  4.088414  0
C  C64  1  0.98170667  0.56391086  0.90423643  1  0  0.197396  0  3.790967  0  0  0.161331  0  4.097789  0  0  0.170608  0  4.106981  0  0  0.090619  0.154642  0  4.092158  0
C  C65  1  0.11398236  0.93607156  0.90421485  1  0  0.199517  0  3.785654  0  0  0.161845  0  4.093912  0  0  0.171229  0  4.103081  0  0  0.091286  0.155089  0  4.088296  0
N  N66  1  0.79134970  0.13469574  0.76467061  1  0  -0.261195  0  3.229186  0  0  -0.199675  0  3.53588  0  0  -0.216018  0  3.548711  0  0  -0.257171  -0.188698  0  3.527077  0
N  N67  1  0.44396066  0.36524766  0.76483524  1  0  -0.258623  0  3.227357  0  0  -0.19632  0  3.533294  0  0  -0.212671  0  3.54616  0  0  -0.254784  -0.185336  0  3.524469  0
N  N68  1  0.20865087  0.86530433  0.23532886  1  0  -0.26125  0  3.229177  0  0  -0.199701  0  3.535918  0  0  -0.216044  0  3.548749  0  0  -0.257191  -0.188723  0  3.52711  0
N  N69  1  0.55604051  0.63475242  0.23516232  1  0  -0.258669  0  3.227422  0  0  -0.196355  0  3.533302  0  0  -0.212704  0  3.546164  0  0  -0.254785  -0.18537  0  3.524472  0
N  N70  1  0.78381500  0.02782975  0.73624918  1  0  -0.203019  0  3.411688  0  0  -0.148227  0  3.64879  0  0  -0.162348  0  3.66554  0  0  -0.270107  -0.138929  0  3.637478  0
N  N71  1  0.47992889  0.47209512  0.73632602  1  0  -0.206644  0  3.410994  0  0  -0.152511  0  3.649373  0  0  -0.166571  0  3.666159  0  0  -0.272881  -0.143253  0  3.638042  0
N  N72  1  0.21618509  0.97217119  0.26374919  1  0  -0.202889  0  3.411491  0  0  -0.148212  0  3.648744  0  0  -0.162333  0  3.665493  0  0  -0.270092  -0.138914  0  3.637428  0
N  N73  1  0.52007022  0.52790497  0.26367096  1  0  -0.20657  0  3.411  0  0  -0.15237  0  3.649318  0  0  -0.16642  0  3.666092  0  0  -0.272899  -0.143114  0  3.637986  0
O  O74  1  0.76021458  0.35700130  0.86119051  1  0  -0.623111  0  2.015891  0  0  -0.566046  0  2.280203  0  0  -0.591957  0  2.266223  0  0  -0.309164  -0.547894  0  2.289171  0
O  O75  1  0.37865655  0.14275838  0.86113747  1  0  -0.623207  0  2.013776  0  0  -0.566949  0  2.277913  0  0  -0.592775  0  2.263811  0  0  -0.308963  -0.548832  0  2.286926  0
O  O76  1  0.23978800  0.64299963  0.13881064  1  0  -0.623088  0  2.015806  0  0  -0.566016  0  2.280122  0  0  -0.591927  0  2.266143  0  0  -0.309127  -0.547863  0  2.289088  0
O  O77  1  0.62133685  0.85724430  0.13886444  1  0  -0.623192  0  2.013874  0  0  -0.56692  0  2.278017  0  0  -0.592746  0  2.263913  0  0  -0.308964  -0.548809  0  2.287041  0
O  O78  1  0.63968838  0.54772373  0.86598929  1  0  -0.611182  0  1.988943  0  0  -0.556788  0  2.206994  0  0  -0.581529  0  2.194881  0  0  -0.304844  -0.539546  0  2.214882  0
O  O79  1  0.49476109  0.95211337  0.86606172  1  0  -0.610358  0  1.990471  0  0  -0.557365  0  2.208892  0  0  -0.582102  0  2.1967  0  0  -0.304864  -0.540116  0  2.216837  0
O  O80  1  0.36031621  0.45227805  0.13401353  1  0  -0.611185  0  1.988935  0  0  -0.556814  0  2.206989  0  0  -0.581549  0  2.194871  0  0  -0.304839  -0.539577  0  2.214881  0
O  O81  1  0.50523464  0.04789103  0.13393994  1  0  -0.61031  0  1.990534  0  0  -0.557304  0  2.208984  0  0  -0.582057  0  2.196801  0  0  -0.304886  -0.540056  0  2.21693  0
O  O82  1  0.33304588  0.10895903  0.58551479  1  0  -0.547001  0  2.085319  0  0  -0.49403  0  2.301425  0  0  -0.516998  0  2.28295  0  0  -0.325089  -0.478094  0  2.312362  0
O  O83  1  0.08100760  0.39108141  0.58572828  1  0  -0.545442  0  2.082729  0  0  -0.492306  0  2.299777  0  0  -0.51522  0  2.281457  0  0  -0.323374  -0.476396  0  2.30963  0
O  O84  1  0.66695573  0.89104105  0.41448497  1  0  -0.54698  0  2.085341  0  0  -0.494021  0  2.30145  0  0  -0.516993  0  2.282982  0  0  -0.325091  -0.478085  0  2.312366  0
O  O85  1  0.91899254  0.60891867  0.41426899  1  0  -0.545507  0  2.082681  0  0  -0.492371  0  2.299745  0  0  -0.515282  0  2.28143  0  0  -0.323406  -0.476456  0  2.309617  0
O  O86  1  0.32918758  0.93471184  0.52182065  1  0  -0.567417  0  1.961483  0  0  -0.513178  0  2.166952  0  0  -0.536037  0  2.156492  0  0  -0.289251  -0.497609  0  2.17348  0
O  O87  1  0.14892943  0.56519529  0.52199185  1  0  -0.566692  0  1.96101  0  0  -0.512175  0  2.16649  0  0  -0.535017  0  2.156098  0  0  -0.28941  -0.496591  0  2.17271  0
O  O88  1  0.67081060  0.06528738  0.47818019  1  0  -0.567391  0  1.961429  0  0  -0.513166  0  2.166896  0  0  -0.536025  0  2.156435  0  0  -0.289269  -0.497598  0  2.173432  0
O  O89  1  0.85108533  0.43480130  0.47799973  1  0  -0.566673  0  1.960878  0  0  -0.512123  0  2.166379  0  0  -0.534962  0  2.155981  0  0  -0.289429  -0.496546  0  2.172598  0
O  O90  1  0.48749406  0.24996313  0.02534335  1  0  -0.858222  0  1.944111  0  0  -0.786491  0  2.180853  0  0  -0.8087  0  2.141089  0  0  -0.588044  -0.770932  0  2.208514  0
O  O91  1  0.51250863  0.75003867  0.97465476  1  0  -0.858193  0  1.94414  0  0  -0.786457  0  2.18088  0  0  -0.808667  0  2.14112  0  0  -0.588015  -0.770898  0  2.208541  0
F  F92  1  0.79649552  0.33849059  0.08902186  1  0  -0.163083  0  1.285487  0  0  -0.106203  0  1.452488  0  0  -0.114751  0  1.443396  0  0  -0.078754  -0.100064  0  1.458781  0
F  F93  1  0.11494749  0.16105453  0.08926319  1  0  -0.162705  0  1.286818  0  0  -0.105138  0  1.453843  0  0  -0.113681  0  1.444784  0  0  -0.077797  -0.099002  0  1.460112  0
F  F94  1  0.20350707  0.66150516  0.91098092  1  0  -0.16308  0  1.285473  0  0  -0.106179  0  1.452476  0  0  -0.114727  0  1.443386  0  0  -0.078738  -0.10004  0  1.458768  0
F  F95  1  0.88504776  0.83894815  0.91073819  1  0  -0.162635  0  1.286717  0  0  -0.105098  0  1.453799  0  0  -0.113642  0  1.444741  0  0  -0.077785  -0.098956  0  1.460075  0
F  F96  1  0.02861733  0.37476201  0.19213102  1  0  -0.155348  0  1.268037  0  0  -0.112436  0  1.447555  0  0  -0.121297  0  1.439009  0  0  -0.077361  -0.106068  0  1.453484  0
F  F97  1  0.77946294  0.12525310  0.19218506  1  0  -0.155971  0  1.266523  0  0  -0.112209  0  1.446221  0  0  -0.121083  0  1.437649  0  0  -0.07753  -0.10584  0  1.452168  0
F  F98  1  0.97138726  0.62523718  0.80787262  1  0  -0.155355  0  1.268051  0  0  -0.112435  0  1.447574  0  0  -0.121298  0  1.439024  0  0  -0.077347  -0.106067  0  1.453505  0
F  F99  1  0.22053383  0.87474871  0.80781770  1  0  -0.15594  0  1.266445  0  0  -0.112179  0  1.446135  0  0  -0.121055  0  1.437563  0  0  -0.077546  -0.10581  0  1.452083  0
