# generated using pymatgen
data_ZnH12(C2N)10
_symmetry_space_group_name_H-M   'P 1'
_cell_length_a   7.52833286
_cell_length_b   9.58644983
_cell_length_c   14.43629619
_cell_angle_alpha   101.07006701
_cell_angle_beta   89.98512016
_cell_angle_gamma   113.11124808
_symmetry_Int_Tables_number   1
_chemical_formula_structural   ZnH12(C2N)10
_chemical_formula_sum   'Zn2 H24 C40 N20'
_cell_volume   937.16027574
_cell_formula_units_Z   2
loop_
 _symmetry_equiv_pos_site_id
 _symmetry_equiv_pos_as_xyz
  1  'x, y, z'
loop_
 _atom_site_type_symbol
 _atom_site_label
 _atom_site_symmetry_multiplicity
 _atom_site_fract_x
 _atom_site_fract_y
 _atom_site_fract_z
 _atom_site_occupancy
 _atom_site_hle17_bader_spin_density
 _atom_site_hle17_ddec_charge
 _atom_site_hle17_ddec_spin_density
 _atom_site_hle17_ddec_sum_bond_order
 _atom_site_hle17_magmom
 _atom_site_hse06_10hf_bader_spin_density
 _atom_site_hse06_10hf_ddec_charge
 _atom_site_hse06_10hf_ddec_spin_density
 _atom_site_hse06_10hf_ddec_sum_bond_order
 _atom_site_hse06_10hf_magmom
 _atom_site_hse06_bader_spin_density
 _atom_site_hse06_ddec_charge
 _atom_site_hse06_ddec_spin_density
 _atom_site_hse06_ddec_sum_bond_order
 _atom_site_hse06_magmom
 _atom_site_pbe_bader_spin_density
 _atom_site_pbe_cm5_charge
 _atom_site_pbe_ddec_charge
 _atom_site_pbe_ddec_spin_density
 _atom_site_pbe_ddec_sum_bond_order
 _atom_site_pbe_magmom
Zn  Zn0  1  0.38456771  0.00014195  0.25004029  1  0  1.063743  0  1.965993  0  0  0.887688  0  2.43972  0  0  0.93084  0  2.388524  0  0  0.741482  0.858327  0  2.473924  0
Zn  Zn1  1  0.61543448  0.99985993  0.74996083  1  0  1.063772  0  1.965994  0  0  0.887728  0  2.439724  0  0  0.930882  0  2.388526  0  0  0.741483  0.858367  0  2.47395  0
H  H2  1  0.17866437  0.65554587  0.50374934  1  0  0.083042  0  0.957391  0  0  0.086869  0  1.028176  0  0  0.089608  0  1.026513  0  0  0.113632  0.084882  0  1.029421  0
H  H3  1  0.52338046  0.34448221  0.99617870  1  0  0.083586  0  0.957091  0  0  0.087508  0  1.027592  0  0  0.090265  0  1.025888  0  0  0.113737  0.085503  0  1.028914  0
H  H4  1  0.82134272  0.34445251  0.49624719  1  0  0.083073  0  0.9574  0  0  0.086876  0  1.028226  0  0  0.089615  0  1.026561  0  0  0.113652  0.08489  0  1.029469  0
H  H5  1  0.47661145  0.65551505  0.00382323  1  0  0.08359  0  0.95707  0  0  0.087525  0  1.027566  0  0  0.090281  0  1.025863  0  0  0.113734  0.085518  0  1.028891  0
H  H6  1  0.31717147  0.89197753  0.43173728  1  0  0.084342  0  0.954982  0  0  0.092553  0  1.019753  0  0  0.094751  0  1.018115  0  0  0.115797  0.090742  0  1.021456  0
H  H7  1  0.42492898  0.10814100  0.06831270  1  0  0.084681  0  0.955982  0  0  0.092581  0  1.020791  0  0  0.09477  0  1.019208  0  0  0.11604  0.090757  0  1.022555  0
H  H8  1  0.68282956  0.10802203  0.56826286  1  0  0.084352  0  0.954976  0  0  0.092561  0  1.01975  0  0  0.094757  0  1.018112  0  0  0.115793  0.090754  0  1.021447  0
H  H9  1  0.57506069  0.89185974  0.93169174  1  0  0.084662  0  0.956018  0  0  0.092524  0  1.020864  0  0  0.094718  0  1.019273  0  0  0.116058  0.090697  0  1.022628  0
H  H10  1  0.24498281  0.70321023  0.10685821  1  0  0.108803  0  0.979128  0  0  0.118403  0  1.042681  0  0  0.121004  0  1.041509  0  0  0.104326  0.116837  0  1.042946  0
H  H11  1  0.54196040  0.29716368  0.39313363  1  0  0.109094  0  0.979449  0  0  0.118904  0  1.042854  0  0  0.121546  0  1.041623  0  0  0.104457  0.117366  0  1.043048  0
H  H12  1  0.75502153  0.29679859  0.89314032  1  0  0.108877  0  0.979171  0  0  0.118437  0  1.042752  0  0  0.121036  0  1.041585  0  0  0.104359  0.116874  0  1.043013  0
H  H13  1  0.45803816  0.70283358  0.60687038  1  0  0.109063  0  0.979496  0  0  0.118891  0  1.04288  0  0  0.121534  0  1.041648  0  0  0.104472  0.117359  0  1.043074  0
H  H14  1  0.00054762  0.20632204  0.07756665  1  0  0.086569  0  0.985485  0  0  0.094487  0  1.051862  0  0  0.096433  0  1.052294  0  0  0.097882  0.093395  0  1.051078  0
H  H15  1  0.79460091  0.79401789  0.42226105  1  0  0.08699  0  0.985182  0  0  0.094778  0  1.051781  0  0  0.096729  0  1.052212  0  0  0.097527  0.093624  0  1.051095  0
H  H16  1  0.99945149  0.79367633  0.92242780  1  0  0.086636  0  0.985469  0  0  0.09456  0  1.051825  0  0  0.096506  0  1.052256  0  0  0.097911  0.09347  0  1.051038  0
H  H17  1  0.20540013  0.20598168  0.57774047  1  0  0.087  0  0.985302  0  0  0.094789  0  1.051885  0  0  0.096741  0  1.052315  0  0  0.097506  0.093632  0  1.051198  0
H  H18  1  0.12670960  0.43749301  0.00535327  1  0  0.093577  0  0.964176  0  0  0.101695  0  1.029325  0  0  0.104141  0  1.028913  0  0  0.101154  0.099836  0  1.029756  0
H  H19  1  0.68967670  0.56292532  0.49453760  1  0  0.093678  0  0.964469  0  0  0.101819  0  1.029289  0  0  0.104312  0  1.028831  0  0  0.101235  0.099961  0  1.029723  0
H  H20  1  0.87329167  0.56251232  0.99464344  1  0  0.093619  0  0.964112  0  0  0.101751  0  1.029233  0  0  0.10419  0  1.028838  0  0  0.101191  0.099893  0  1.029656  0
H  H21  1  0.31032376  0.43707309  0.50546516  1  0  0.093658  0  0.964479  0  0  0.101817  0  1.029297  0  0  0.104315  0  1.028832  0  0  0.101224  0.099963  0  1.029723  0
H  H22  1  0.99644848  0.23780644  0.25358848  1  0  0.098392  0  0.959617  0  0  0.10927  0  1.021956  0  0  0.111013  0  1.021864  0  0  0.101392  0.107891  0  1.022215  0
H  H23  1  0.75873345  0.76237697  0.24626131  1  0  0.099253  0  0.96064  0  0  0.110524  0  1.022332  0  0  0.112263  0  1.022189  0  0  0.101792  0.109193  0  1.022535  0
H  H24  1  0.00355254  0.76219311  0.74640889  1  0  0.098432  0  0.95963  0  0  0.109325  0  1.021939  0  0  0.11107  0  1.021844  0  0  0.101394  0.107951  0  1.022194  0
H  H25  1  0.24126476  0.23762490  0.75373773  1  0  0.099249  0  0.960683  0  0  0.110507  0  1.02239  0  0  0.112243  0  1.022249  0  0  0.101808  0.109177  0  1.022598  0
C  C26  1  0.19280205  0.62128818  0.23744647  1  0  0.169402  0  3.741181  0  0  0.170405  0  3.972954  0  0  0.173642  0  3.996528  0  0  0.114673  0.167823  0  3.957314  0
C  C27  1  0.57160801  0.37894037  0.26251473  1  0  0.167266  0  3.742827  0  0  0.168831  0  3.97435  0  0  0.172013  0  3.997983  0  0  0.11499  0.166281  0  3.958671  0
C  C28  1  0.80719765  0.37871138  0.76255436  1  0  0.169472  0  3.741086  0  0  0.170458  0  3.972843  0  0  0.1737  0  3.99641  0  0  0.114699  0.167872  0  3.95722  0
C  C29  1  0.42838555  0.62105221  0.73748107  1  0  0.167272  0  3.742947  0  0  0.168782  0  3.974463  0  0  0.171961  0  3.9981  0  0  0.114994  0.166236  0  3.958785  0
C  C30  1  0.00073137  0.92389777  0.11849194  1  0  0.519852  0  3.960772  0  0  0.475917  0  4.252856  0  0  0.502958  0  4.261739  0  0  0.317227  0.457843  0  4.246063  0
C  C31  1  0.07699068  0.07635057  0.38164879  1  0  0.521113  0  3.960185  0  0  0.477409  0  4.251373  0  0  0.504533  0  4.260263  0  0  0.317001  0.458941  0  4.245469  0
C  C32  1  0.99927331  0.07610642  0.88150739  1  0  0.519867  0  3.960758  0  0  0.475942  0  4.252841  0  0  0.502984  0  4.261719  0  0  0.317261  0.457882  0  4.246043  0
C  C33  1  0.92301799  0.92365365  0.61835609  1  0  0.521175  0  3.960074  0  0  0.477494  0  4.2513  0  0  0.504622  0  4.260189  0  0  0.317034  0.459034  0  4.245398  0
C  C34  1  0.18425574  0.64293961  0.42712579  1  0  0.074297  0  3.698971  0  0  0.053568  0  3.96049  0  0  0.055803  0  3.975403  0  0  0.052933  0.051809  0  3.950673  0
C  C35  1  0.54127182  0.35713471  0.07282690  1  0  0.074527  0  3.701258  0  0  0.05374  0  3.962525  0  0  0.055982  0  3.977406  0  0  0.053347  0.052037  0  3.952577  0
C  C36  1  0.81575517  0.35706110  0.57287172  1  0  0.074224  0  3.698939  0  0  0.053478  0  3.960502  0  0  0.055713  0  3.975413  0  0  0.052857  0.051719  0  3.950679  0
C  C37  1  0.45872025  0.64286022  0.92717404  1  0  0.074481  0  3.701341  0  0  0.053647  0  3.962592  0  0  0.055887  0  3.977475  0  0  0.053386  0.051949  0  3.952639  0
C  C38  1  0.69767646  0.92859977  0.11919492  1  0  0.506712  0  3.974774  0  0  0.465062  0  4.264063  0  0  0.491574  0  4.27375  0  0  0.315627  0.44709  0  4.257546  0
C  C39  1  0.76916229  0.07154029  0.38080427  1  0  0.508453  0  3.975917  0  0  0.466499  0  4.265252  0  0  0.493084  0  4.274925  0  0  0.316247  0.448754  0  4.257818  0
C  C40  1  0.30233254  0.07139978  0.88080314  1  0  0.506701  0  3.974813  0  0  0.465065  0  4.264087  0  0  0.491574  0  4.273773  0  0  0.315627  0.447099  0  4.257581  0
C  C41  1  0.23083574  0.92846388  0.61919091  1  0  0.508538  0  3.975492  0  0  0.46661  0  4.264861  0  0  0.493201  0  4.274534  0  0  0.31629  0.448878  0  4.25742  0
C  C42  1  0.12060259  0.48718120  0.27947940  1  0  0.150828  0  3.778467  0  0  0.156544  0  4.017747  0  0  0.158282  0  4.040011  0  0  0.110832  0.154853  0  4.003425  0
C  C43  1  0.63342566  0.51300274  0.22041454  1  0  0.151286  0  3.778168  0  0  0.156444  0  4.018062  0  0  0.158209  0  4.040315  0  0  0.110324  0.154786  0  4.003737  0
C  C44  1  0.87940300  0.51281950  0.72051673  1  0  0.150705  0  3.778596  0  0  0.156488  0  4.017792  0  0  0.158225  0  4.040059  0  0  0.110806  0.154803  0  4.003471  0
C  C45  1  0.36657231  0.48699334  0.77958516  1  0  0.151128  0  3.778285  0  0  0.156497  0  4.01791  0  0  0.158262  0  4.040163  0  0  0.110388  0.154842  0  4.003589  0
C  C46  1  0.25987151  0.77604553  0.38688280  1  0  0.097648  0  3.682791  0  0  0.06613  0  3.934207  0  0  0.071401  0  3.950842  0  0  0.059312  0.062649  0  3.923069  0
C  C47  1  0.48377022  0.22411903  0.11312715  1  0  0.096054  0  3.685964  0  0  0.064814  0  3.937389  0  0  0.070073  0  3.95402  0  0  0.058332  0.06134  0  3.926153  0
C  C48  1  0.74013010  0.22395519  0.61311749  1  0  0.097633  0  3.682833  0  0  0.06613  0  3.934235  0  0  0.071408  0  3.950863  0  0  0.059362  0.062655  0  3.923091  0
C  C49  1  0.51621811  0.77588170  0.88687452  1  0  0.096139  0  3.685986  0  0  0.064996  0  3.937308  0  0  0.070255  0  3.953939  0  0  0.058355  0.061532  0  3.926061  0
C  C50  1  0.19141886  0.60080857  0.13767885  1  0  -0.136664  0  3.710965  0  0  -0.159116  0  3.961706  0  0  -0.163196  0  3.982974  0  0  -0.087232  -0.155884  0  3.94627  0
C  C51  1  0.59065936  0.39953206  0.36229319  1  0  -0.13645  0  3.710647  0  0  -0.159345  0  3.961411  0  0  -0.163426  0  3.982705  0  0  -0.087506  -0.156147  0  3.945904  0
C  C52  1  0.80857767  0.39919792  0.86231801  1  0  -0.136726  0  3.71115  0  0  -0.159149  0  3.961921  0  0  -0.16323  0  3.983187  0  0  -0.087243  -0.155928  0  3.946495  0
C  C53  1  0.40933727  0.60046402  0.63770581  1  0  -0.136456  0  3.71084  0  0  -0.159368  0  3.961628  0  0  -0.163449  0  3.982924  0  0  -0.087554  -0.156185  0  3.946136  0
C  C54  1  0.05287755  0.32124314  0.12323090  1  0  -0.054162  0  3.754936  0  0  -0.069426  0  4.004495  0  0  -0.072425  0  4.028736  0  0  -0.088876  -0.067017  0  3.987278  0
C  C55  1  0.73180184  0.67906885  0.37661823  1  0  -0.055172  0  3.754114  0  0  -0.070364  0  4.003818  0  0  -0.073386  0  4.028091  0  0  -0.088832  -0.067966  0  3.986659  0
C  C56  1  0.94712232  0.67875409  0.87676618  1  0  -0.054351  0  3.755036  0  0  -0.069623  0  4.004618  0  0  -0.072621  0  4.028857  0  0  -0.088992  -0.06722  0  3.987405  0
C  C57  1  0.26819573  0.32092378  0.62338658  1  0  -0.05535  0  3.754243  0  0  -0.07053  0  4.00396  0  0  -0.073556  0  4.028236  0  0  -0.088799  -0.06812  0  3.986794  0
C  C58  1  0.12387098  0.45335524  0.08208189  1  0  -0.046265  0  3.744081  0  0  -0.060382  0  3.993041  0  0  -0.062407  0  4.015898  0  0  -0.083257  -0.058764  0  3.977295  0
C  C59  1  0.67077921  0.54700022  0.41783230  1  0  -0.045632  0  3.743049  0  0  -0.059662  0  3.992291  0  0  -0.061725  0  4.015102  0  0  -0.083235  -0.058011  0  3.976522  0
C  C60  1  0.87612664  0.54664547  0.91791562  1  0  -0.046236  0  3.744126  0  0  -0.060356  0  3.993098  0  0  -0.062383  0  4.01595  0  0  -0.083273  -0.058726  0  3.977342  0
C  C61  1  0.32921761  0.45299356  0.58217196  1  0  -0.045494  0  3.743115  0  0  -0.059553  0  3.992372  0  0  -0.061618  0  4.015186  0  0  -0.083199  -0.057903  0  3.9766  0
C  C62  1  0.05061073  0.33749685  0.22006587  1  0  -0.118286  0  3.703714  0  0  -0.140455  0  3.953321  0  0  -0.143625  0  3.975926  0  0  -0.085036  -0.138624  0  3.938188  0
C  C63  1  0.71334566  0.66271959  0.27978023  1  0  -0.119422  0  3.704621  0  0  -0.141742  0  3.95431  0  0  -0.144872  0  3.976944  0  0  -0.085403  -0.139915  0  3.939056  0
C  C64  1  0.94939261  0.66250733  0.77993069  1  0  -0.118267  0  3.703681  0  0  -0.140465  0  3.95326  0  0  -0.143634  0  3.975862  0  0  -0.084976  -0.138639  0  3.938133  0
C  C65  1  0.28665480  0.33727883  0.72022461  1  0  -0.119266  0  3.704733  0  0  -0.141634  0  3.95437  0  0  -0.144761  0  3.977001  0  0  -0.085455  -0.139816  0  3.939127  0
N  N66  1  0.26393168  0.76667616  0.29429777  1  0  -0.318367  0  3.207704  0  0  -0.250455  0  3.461259  0  0  -0.266068  0  3.479611  0  0  -0.290301  -0.23964  0  3.448332  0
N  N67  1  0.49710274  0.23351711  0.20573541  1  0  -0.316284  0  3.207745  0  0  -0.248534  0  3.460997  0  0  -0.264088  0  3.479325  0  0  -0.28981  -0.237726  0  3.448071  0
N  N68  1  0.73606894  0.23331993  0.70570401  1  0  -0.318407  0  3.207723  0  0  -0.250494  0  3.461274  0  0  -0.266107  0  3.479618  0  0  -0.290342  -0.239681  0  3.448358  0
N  N69  1  0.50289141  0.76647667  0.79426746  1  0  -0.316249  0  3.207714  0  0  -0.24856  0  3.460988  0  0  -0.264114  0  3.479318  0  0  -0.289867  -0.237757  0  3.448063  0
N  N70  1  0.84711382  0.92240730  0.07783913  1  0  -0.457716  0  3.306298  0  0  -0.403593  0  3.576716  0  0  -0.427772  0  3.580664  0  0  -0.301986  -0.387351  0  3.573559  0
N  N71  1  0.92468147  0.07773395  0.42222316  1  0  -0.459485  0  3.307737  0  0  -0.405072  0  3.577962  0  0  -0.429312  0  3.581762  0  0  -0.30201  -0.388681  0  3.574783  0
N  N72  1  0.15289442  0.07759340  0.92215838  1  0  -0.457638  0  3.306088  0  0  -0.403528  0  3.576508  0  0  -0.427707  0  3.580453  0  0  -0.301978  -0.387324  0  3.573404  0
N  N73  1  0.07531739  0.92227721  0.57777913  1  0  -0.459515  0  3.30781  0  0  -0.405196  0  3.578129  0  0  -0.429431  0  3.5819  0  0  -0.302027  -0.388816  0  3.574949  0
N  N74  1  0.55262147  0.93278794  0.14752156  1  0  -0.593842  0  2.882411  0  0  -0.54605  0  3.17559  0  0  -0.567578  0  3.178347  0  0  -0.372489  -0.531959  0  3.174264  0
N  N75  1  0.62013242  0.06748526  0.35235104  1  0  -0.595602  0  2.883831  0  0  -0.548292  0  3.178337  0  0  -0.569842  0  3.181059  0  0  -0.373521  -0.533413  0  3.175223  0
N  N76  1  0.44737864  0.06721508  0.85247486  1  0  -0.593901  0  2.882614  0  0  -0.546108  0  3.175776  0  0  -0.567633  0  3.178533  0  0  -0.372531  -0.532007  0  3.174449  0
N  N77  1  0.37987467  0.93251313  0.64764618  1  0  -0.595708  0  2.883454  0  0  -0.548396  0  3.177968  0  0  -0.569955  0  3.180701  0  0  -0.373536  -0.533527  0  3.174859  0
N  N78  1  0.14707898  0.92448227  0.14775658  1  0  -0.594334  0  2.881731  0  0  -0.545905  0  3.173615  0  0  -0.567536  0  3.176243  0  0  -0.372198  -0.531069  0  3.170771  0
N  N79  1  0.22287891  0.07575249  0.35251274  1  0  -0.594096  0  2.880815  0  0  -0.545644  0  3.172381  0  0  -0.567298  0  3.174942  0  0  -0.371626  -0.531473  0  3.171151  0
N  N80  1  0.85291824  0.07551498  0.85224535  1  0  -0.594366  0  2.881768  0  0  -0.545931  0  3.173625  0  0  -0.567569  0  3.176268  0  0  -0.372203  -0.531092  0  3.170781  0
N  N81  1  0.77712138  0.92424824  0.64748893  1  0  -0.59412  0  2.880612  0  0  -0.54566  0  3.172167  0  0  -0.567315  0  3.174729  0  0  -0.371638  -0.531493  0  3.170941  0
N  N82  1  0.11684104  0.50060377  0.37517300  1  0  -0.28582  0  3.024957  0  0  -0.259362  0  3.290663  0  0  -0.265506  0  3.3047  0  0  -0.294077  -0.25461  0  3.28105  0
N  N83  1  0.61629218  0.49951250  0.12472558  1  0  -0.285606  0  3.025769  0  0  -0.259042  0  3.291612  0  0  -0.265162  0  3.305611  0  0  -0.293912  -0.254276  0  3.282025  0
N  N84  1  0.88316016  0.49939348  0.62482892  1  0  -0.285689  0  3.025088  0  0  -0.259246  0  3.290774  0  0  -0.265392  0  3.304815  0  0  -0.294046  -0.254496  0  3.281161  0
N  N85  1  0.38369916  0.50048361  0.87527967  1  0  -0.285564  0  3.025787  0  0  -0.259082  0  3.291628  0  0  -0.265206  0  3.305636  0  0  -0.293979  -0.25431  0  3.28202  0
