# generated using pymatgen
data_Cu3Mo4H16C16N8ClO13
_symmetry_space_group_name_H-M   'P 1'
_cell_length_a   10.56746428
_cell_length_b   11.24020649
_cell_length_c   12.83400000
_cell_angle_alpha   96.14483703
_cell_angle_beta   102.20921271
_cell_angle_gamma   108.35092028
_symmetry_Int_Tables_number   1
_chemical_formula_structural   Cu3Mo4H16C16N8ClO13
_chemical_formula_sum   'Cu6 Mo8 H32 C32 N16 Cl2 O26'
_cell_volume   1389.18986183
_cell_formula_units_Z   2
loop_
 _symmetry_equiv_pos_site_id
 _symmetry_equiv_pos_as_xyz
  1  'x, y, z'
loop_
 _atom_site_type_symbol
 _atom_site_label
 _atom_site_symmetry_multiplicity
 _atom_site_fract_x
 _atom_site_fract_y
 _atom_site_fract_z
 _atom_site_occupancy
 _atom_site_hle17_bader_spin_density
 _atom_site_hle17_ddec_charge
 _atom_site_hle17_ddec_spin_density
 _atom_site_hle17_ddec_sum_bond_order
 _atom_site_hle17_magmom
 _atom_site_hse06_10hf_bader_spin_density
 _atom_site_hse06_10hf_ddec_charge
 _atom_site_hse06_10hf_ddec_spin_density
 _atom_site_hse06_10hf_ddec_sum_bond_order
 _atom_site_hse06_10hf_magmom
 _atom_site_hse06_bader_spin_density
 _atom_site_hse06_ddec_charge
 _atom_site_hse06_ddec_spin_density
 _atom_site_hse06_ddec_sum_bond_order
 _atom_site_hse06_magmom
 _atom_site_pbe_bader_charge
 _atom_site_pbe_bader_spin_density
 _atom_site_pbe_cm5_charge
 _atom_site_pbe_ddec_charge
 _atom_site_pbe_ddec_spin_density
 _atom_site_pbe_ddec_sum_bond_order
 _atom_site_pbe_magmom
Cu  Cu0  1  0.33532680  0.68029841  0.51144744  1  0  0.540149  0  1.520911  0  0  0.414732  0  1.931685  0  0  0.424955  0  1.889296  0  0.659233  0  0.53659  0.410656  0  1.958871  0
Cu  Cu1  1  0.66467587  0.31970184  0.48855180  1  0  0.540191  0  1.520868  0  0  0.414737  0  1.931666  0  0  0.424992  0  1.889249  0  0.65918  0  0.536598  0.410683  0  1.958852  0
Cu  Cu2  1  0.37456386  0.50981589  0.92204800  1  0  0.469061  0  1.774309  0  0  0.365727  0  2.233902  0  0  0.377575  0  2.182446  0  0.60673  0  0.392529  0.360603  0  2.267018  0
Cu  Cu3  1  0.62543300  0.49018436  0.07795101  1  0  0.469033  0  1.774355  0  0  0.36571  0  2.233935  0  0  0.377544  0  2.182498  0  0.606619  0  0.392532  0.3606  0  2.267033  0
Cu  Cu4  1  0.11232232  0.12337504  0.00929897  1  0  0.523798  0  1.741503  0  0  0.390478  0  2.216317  0  0  0.397806  0  2.165292  0  0.68391  0  0.518649  0.386684  0  2.251796  0
Cu  Cu5  1  0.88767709  0.87662425  0.99070195  1  0  0.523842  0  1.741506  0  0  0.390476  0  2.216326  0  0  0.397834  0  2.165289  0  0.684216  0  0.518668  0.386716  0  2.251788  0
Mo  Mo6  1  0.22555870  0.28741963  0.41677040  1  0  2.187621  0  4.08219  0  0  2.189486  0  4.628333  0  0  2.289016  0  4.59056  0  2.589279  0  1.499457  2.116454  0  4.662165  0
Mo  Mo7  1  0.77444361  0.71257966  0.58323103  1  0  2.187659  0  4.082298  0  0  2.189512  0  4.628442  0  0  2.289045  0  4.590674  0  2.589301  0  1.499443  2.116484  0  4.662272  0
Mo  Mo8  1  0.16912778  0.98771790  0.50249026  1  0  2.224663  0  4.079166  0  0  2.222769  0  4.59878  0  0  2.325958  0  4.561548  0  2.606424  0  1.490247  2.147081  0  4.631473  0
Mo  Mo9  1  0.83087153  0.01227854  0.49751116  1  0  2.224816  0  4.079197  0  0  2.22297  0  4.598746  0  0  2.32614  0  4.56154  0  2.606263  0  1.490363  2.147279  0  4.631447  0
Mo  Mo10  1  0.09731949  0.25040082  0.63081413  1  0  2.174902  0  4.05882  0  0  2.170991  0  4.598135  0  0  2.271077  0  4.561243  0  2.564933  0  1.485078  2.09939  0  4.627445  0
Mo  Mo11  1  0.90268053  0.74959752  0.36918681  1  0  2.17489  0  4.058898  0  0  2.170981  0  4.598211  0  0  2.271069  0  4.561322  0  2.565051  0  1.485036  2.099374  0  4.627525  0
Mo  Mo12  1  0.06162526  0.95702156  0.71706383  1  0  2.183988  0  4.054338  0  0  2.180139  0  4.587313  0  0  2.280237  0  4.5517  0  2.580179  0  1.487776  2.107341  0  4.617359  0
Mo  Mo13  1  0.93837344  0.04297583  0.28293601  1  0  2.184015  0  4.054355  0  0  2.180177  0  4.587328  0  0  2.280272  0  4.551725  0  2.580212  0  1.487824  2.107379  0  4.617377  0
H  H14  1  0.28410683  0.96247095  0.92586425  1  0  0.101875  0  0.952111  0  0  0.108877  0  1.018184  0  0  0.110752  0  1.015891  0  0.150846  0  0.133346  0.107356  0  1.020053  0
H  H15  1  0.71589330  0.03753026  0.07413541  1  0  0.101848  0  0.95213  0  0  0.108869  0  1.018191  0  0  0.110727  0  1.01592  0  0.150848  0  0.133348  0.107353  0  1.020062  0
H  H16  1  0.29250727  0.12067754  0.24167210  1  0  0.125649  0  0.958749  0  0  0.134669  0  1.022988  0  0  0.137482  0  1.018589  0  0.186307  0  0.140247  0.13237  0  1.025893  0
H  H17  1  0.70749215  0.87932175  0.75832960  1  0  0.12566  0  0.958763  0  0  0.13468  0  1.023003  0  0  0.137491  0  1.018606  0  0.186322  0  0.140265  0.132383  0  1.02591  0
H  H18  1  0.50289365  0.07580955  0.34413924  1  0  0.094071  0  0.926159  0  0  0.106156  0  0.997072  0  0  0.108048  0  0.993053  0  0.091855  0  0.117414  0.104555  0  0.999538  0
H  H19  1  0.49711046  0.92419451  0.65586372  1  0  0.094073  0  0.926209  0  0  0.106163  0  0.997106  0  0  0.108053  0  0.993087  0  0.091988  0  0.117419  0.104566  0  0.999572  0
H  H20  1  0.61854044  0.06262549  0.26486606  1  0  0.117298  0  0.929221  0  0  0.129748  0  0.991413  0  0  0.130626  0  0.989854  0  0.146942  0  0.119363  0.129013  0  0.991925  0
H  H21  1  0.38146102  0.93737667  0.73513627  1  0  0.117328  0  0.929196  0  0  0.129781  0  0.991379  0  0  0.130655  0  0.989819  0  0.146879  0  0.119386  0.129051  0  0.991886  0
H  H22  1  0.57268874  0.82490612  0.16095045  1  0  0.11405  0  0.915555  0  0  0.1249  0  0.974479  0  0  0.128246  0  0.971034  0  0.102127  0  0.116777  0.122276  0  0.977369  0
H  H23  1  0.42731537  0.17509794  0.83904862  1  0  0.113985  0  0.915618  0  0  0.124809  0  0.974565  0  0  0.128153  0  0.97112  0  0.102508  0  0.116734  0.122193  0  0.977458  0
H  H24  1  0.51770345  0.60137342  0.19402495  1  0  0.089048  0  1.002642  0  0  0.093905  0  1.077754  0  0  0.099084  0  1.073454  0  0.089494  0  0.089315  0.089914  0  1.08128  0
H  H25  1  0.48229837  0.39862969  0.80597441  1  0  0.089029  0  1.002552  0  0  0.093894  0  1.077695  0  0  0.099072  0  1.073393  0  0.089591  0  0.089317  0.089905  0  1.081225  0
H  H26  1  0.40787482  0.54040822  0.34418625  1  0  0.088203  0  0.970302  0  0  0.097748  0  1.035812  0  0  0.10014  0  1.033207  0  0.131299  0  0.115283  0.095865  0  1.037895  0
H  H27  1  0.59212688  0.45959203  0.65581283  1  0  0.088184  0  0.970372  0  0  0.097733  0  1.035854  0  0  0.100125  0  1.033249  0  0.131279  0  0.115279  0.095857  0  1.037933  0
H  H28  1  0.39814116  0.90485973  0.42387506  1  0  0.087764  0  0.975484  0  0  0.097819  0  1.040887  0  0  0.099619  0  1.039448  0  0.113407  0  0.114779  0.096337  0  1.042303  0
H  H29  1  0.60185983  0.09513861  0.57612449  1  0  0.087788  0  0.975486  0  0  0.097833  0  1.040885  0  0  0.099633  0  1.039449  0  0.113408  0  0.114793  0.096357  0  1.042299  0
H  H30  1  0.48667881  0.63328063  0.73504531  1  0  0.114439  0  0.938915  0  0  0.126539  0  0.996424  0  0  0.128684  0  0.993975  0  0.196592  0  0.138381  0.124812  0  0.998399  0
H  H31  1  0.51332412  0.36671771  0.26495536  1  0  0.114389  0  0.938813  0  0  0.126491  0  0.996333  0  0  0.128637  0  0.993883  0  0.196634  0  0.138345  0.124768  0  0.998308  0
H  H32  1  0.07714404  0.62077404  0.61437853  1  0  0.140078  0  0.916999  0  0  0.151015  0  0.974453  0  0  0.153669  0  0.970469  0  0.268391  0  0.153171  0.148957  0  0.977427  0
H  H33  1  0.92285599  0.37922430  0.38561851  1  0  0.140042  0  0.917069  0  0  0.151002  0  0.974491  0  0  0.153656  0  0.970512  0  0.268408  0  0.153151  0.148949  0  0.977461  0
H  H34  1  0.97670577  0.52109157  0.75342873  1  0  0.120325  0  0.914369  0  0  0.138791  0  0.969192  0  0  0.139894  0  0.968133  0  0.130049  0  0.127374  0.13799  0  0.969959  0
H  H35  1  0.02329472  0.47891059  0.24656954  1  0  0.120321  0  0.914352  0  0  0.138792  0  0.969193  0  0  0.139894  0  0.968134  0  0.130073  0  0.127371  0.137995  0  0.969959  0
H  H36  1  0.07536639  0.44326295  0.83229268  1  0  0.099103  0  0.958228  0  0  0.109668  0  1.031505  0  0  0.11113  0  1.029918  0  0.10052  0  0.117342  0.108525  0  1.032584  0
H  H37  1  0.92463169  0.55673539  0.16770870  1  0  0.099091  0  0.958253  0  0  0.109672  0  1.031541  0  0  0.111133  0  1.029955  0  0.100537  0  0.117336  0.108534  0  1.032618  0
H  H38  1  0.21916304  0.55403599  0.02635457  1  0  0.087457  0  0.99381  0  0  0.091498  0  1.073706  0  0  0.096555  0  1.067445  0  0.117264  0  0.089439  0.087696  0  1.077972  0
H  H39  1  0.78082827  0.44596236  0.97364330  1  0  0.087378  0  0.99384  0  0  0.091408  0  1.073751  0  0  0.096468  0  1.067487  0  0.117219  0  0.089392  0.087613  0  1.078019  0
H  H40  1  0.21705896  0.69494048  0.19139981  1  0  0.101739  0  0.967651  0  0  0.112915  0  1.024397  0  0  0.113892  0  1.0276  0  0.102168  0  0.107743  0.112234  0  1.022336  0
H  H41  1  0.78293465  0.30505882  0.80860166  1  0  0.10172  0  0.967639  0  0  0.112866  0  1.024419  0  0  0.113843  0  1.027623  0  0.102249  0  0.107733  0.112193  0  1.022356  0
H  H42  1  0.07247162  0.83392514  0.16904553  1  0  0.101761  0  0.946109  0  0  0.109438  0  1.009212  0  0  0.111915  0  1.00668  0  0.127556  0  0.118934  0.107527  0  1.011255  0
H  H43  1  0.92752403  0.16607702  0.83095267  1  0  0.101783  0  0.946096  0  0  0.109469  0  1.009186  0  0  0.111947  0  1.006652  0  0.127584  0  0.118955  0.107563  0  1.011229  0
H  H44  1  0.94301789  0.70860927  0.83524579  1  0  0.092103  0  0.959089  0  0  0.097473  0  1.031556  0  0  0.100488  0  1.02825  0  0.134348  0  0.116185  0.095359  0  1.033705  0
H  H45  1  0.05697801  0.29139098  0.16475149  1  0  0.092068  0  0.959061  0  0  0.097456  0  1.031504  0  0  0.100472  0  1.028197  0  0.13431  0  0.116184  0.095347  0  1.033651  0
C  C46  1  0.31372745  0.99292015  0.01333135  1  0  0.201985  0  3.678636  0  0  0.150252  0  3.961488  0  0  0.161366  0  3.972152  0  0.982171  0  0.14615  0.143318  0  3.952261  0
C  C47  1  0.68627111  0.00708201  0.98666891  1  0  0.202037  0  3.678597  0  0  0.150279  0  3.961459  0  0  0.161404  0  3.972122  0  0.982187  0  0.146132  0.143343  0  3.952239  0
C  C48  1  0.31604279  0.07526089  0.17295959  1  0  0.158293  0  3.608439  0  0  0.085828  0  3.862781  0  0  0.107883  0  3.87899  0  0.972068  0  0.158674  0.077523  0  3.854013  0
C  C49  1  0.68395698  0.92473936  0.82704148  1  0  0.158286  0  3.608305  0  0  0.085806  0  3.862658  0  0  0.10787  0  3.878867  0  0.972097  0  0.158623  0.0775  0  3.853893  0
C  C50  1  0.51424428  0.01811246  0.27457535  1  0  -0.057764  0  3.652615  0  0  -0.134017  0  3.897789  0  0  -0.121036  0  3.911786  0  0.281601  0  -0.042266  -0.136437  0  3.889637  0
C  C51  1  0.48575840  0.98188779  0.72542779  1  0  -0.05782  0  3.652755  0  0  -0.134076  0  3.89792  0  0  -0.121077  0  3.91191  0  0.281593  0  -0.042278  -0.136493  0  3.889754  0
C  C52  1  0.48844250  0.88249539  0.28997368  1  0  0.028735  0  3.744224  0  0  0.045939  0  3.995749  0  0  0.039987  0  4.018652  0  0.016897  0  -0.005056  0.049868  0  3.979259  0
C  C53  1  0.51155824  0.11750486  0.71002678  1  0  0.02871  0  3.74423  0  0  0.045915  0  3.995704  0  0  0.03996  0  4.018607  0  0.017228  0  -0.005085  0.049845  0  3.979228  0
C  C54  1  0.52309578  0.79590157  0.22489004  1  0  -0.009027  0  3.627791  0  0  -0.038275  0  3.878907  0  0  -0.031283  0  3.891694  0  0.005778  0  -0.053129  -0.043177  0  3.871014  0
C  C55  1  0.47690833  0.20410250  0.77510825  1  0  -0.009057  0  3.627781  0  0  -0.038247  0  3.878897  0  0  -0.031255  0  3.891682  0  0.004924  0  -0.053103  -0.043152  0  3.871015  0
C  C56  1  0.49285567  0.67159428  0.24334765  1  0  -0.083989  0  3.70512  0  0  -0.090296  0  3.947373  0  0  -0.098345  0  3.967218  0  0.045312  0  -0.076913  -0.085538  0  3.934932  0
C  C57  1  0.50714747  0.32840979  0.75665047  1  0  -0.083788  0  3.704964  0  0  -0.090144  0  3.947193  0  0  -0.098201  0  3.967062  0  0.045568  0  -0.076832  -0.085379  0  3.934751  0
C  C58  1  0.43090575  0.63635217  0.32606077  1  0  0.127791  0  3.643322  0  0  0.098448  0  3.876657  0  0  0.1065  0  3.893614  0  0.393998  0  0.048374  0.093168  0  3.865533  0
C  C59  1  0.56909728  0.36364903  0.67393863  1  0  0.127722  0  3.643304  0  0  0.098414  0  3.876657  0  0  0.106466  0  3.893613  0  0.393962  0  0.048364  0.093139  0  3.865532  0
C  C60  1  0.42674707  0.84095562  0.37104207  1  0  0.066214  0  3.666894  0  0  0.02734  0  3.910296  0  0  0.033446  0  3.928435  0  0.466092  0  0.037865  0.023006  0  3.899086  0
C  C61  1  0.57325550  0.15904176  0.62895922  1  0  0.066162  0  3.666866  0  0  0.027305  0  3.910261  0  0  0.033409  0  3.928407  0  0.466034  0  0.037853  0.022972  0  3.899059  0
C  C62  1  0.37961564  0.62297250  0.72859367  1  0  0.223261  0  3.627569  0  0  0.164103  0  3.898166  0  0  0.178671  0  3.90911  0  0.946751  0  0.156925  0.154445  0  3.891087  0
C  C63  1  0.62038596  0.37702489  0.27140589  1  0  0.223318  0  3.627441  0  0  0.164153  0  3.898056  0  0  0.178718  0  3.909008  0  0.946579  0  0.156977  0.154502  0  3.890983  0
C  C64  1  0.17184886  0.61706987  0.66467324  1  0  0.236851  0  3.5353  0  0  0.161591  0  3.785229  0  0  0.178279  0  3.793981  0  0.992168  0  0.190334  0.150686  0  3.779903  0
C  C65  1  0.82815345  0.38292942  0.33532508  1  0  0.236799  0  3.535444  0  0  0.161523  0  3.78538  0  0  0.17821  0  3.794128  0  0.992107  0  0.190313  0.150624  0  3.78006  0
C  C66  1  0.07236038  0.53606570  0.81522163  1  0  -0.067474  0  3.645283  0  0  -0.147955  0  3.884625  0  0  -0.143907  0  3.896407  0  0.316274  0  -0.04276  -0.150134  0  3.876367  0
C  C67  1  0.92763939  0.46393455  0.18477711  1  0  -0.06747  0  3.645181  0  0  -0.147996  0  3.884616  0  0  -0.143954  0  3.896405  0  0.316248  0  -0.04278  -0.150179  0  3.876356  0
C  C68  1  0.08274629  0.62235418  0.91742211  1  0  0.031306  0  3.725648  0  0  0.054943  0  3.96457  0  0  0.048485  0  3.990378  0  0.02795  0  -0.008139  0.058933  0  3.947349  0
C  C69  1  0.91724986  0.37764416  0.08257582  1  0  0.031304  0  3.725613  0  0  0.054888  0  3.96465  0  0  0.048427  0  3.990464  0  0.027945  0  -0.008102  0.058894  0  3.947416  0
C  C70  1  0.16040148  0.61872826  0.01905787  1  0  -0.049384  0  3.689795  0  0  -0.076016  0  3.937688  0  0  -0.072013  0  3.954185  0  -0.061477  0  -0.068065  -0.078197  0  3.926579  0
C  C71  1  0.83959151  0.38127199  0.98094202  1  0  -0.049328  0  3.689688  0  0  -0.075916  0  3.937559  0  0  -0.071913  0  3.954056  0  -0.061112  0  -0.067979  -0.078102  0  3.926457  0
C  C72  1  0.15924332  0.69628398  0.11088076  1  0  -0.106809  0  3.737891  0  0  -0.116663  0  3.985636  0  0  -0.125062  0  4.011236  0  -0.007295  0  -0.083085  -0.111429  0  3.968503  0
C  C73  1  0.84074992  0.30371436  0.88911978  1  0  -0.10665  0  3.737653  0  0  -0.116471  0  3.985362  0  0  -0.12487  0  4.010963  0  -0.007722  0  -0.083043  -0.111235  0  3.968244  0
C  C74  1  0.07976727  0.77401432  0.09958248  1  0  0.128922  0  3.645154  0  0  0.09605  0  3.890944  0  0  0.103177  0  3.908353  0  0.421698  0  0.045802  0.091514  0  3.879382  0
C  C75  1  0.92022923  0.22598497  0.90041715  1  0  0.128799  0  3.645215  0  0  0.095941  0  3.891007  0  0  0.103069  0  3.908418  0  0.421664  0  0.045752  0.091411  0  3.879446  0
C  C76  1  0.00619044  0.70335454  0.91246719  1  0  0.08267  0  3.642404  0  0  0.045967  0  3.884877  0  0  0.051934  0  3.903267  0  0.444775  0  0.048211  0.041312  0  3.873559  0
C  C77  1  0.99380703  0.29664476  0.08752872  1  0  0.082764  0  3.642459  0  0  0.046062  0  3.885023  0  0  0.052031  0  3.903412  0  0.445096  0  0.048237  0.04142  0  3.873678  0
N  N78  1  0.24936152  0.05729824  0.06808477  1  0  -0.380926  0  3.423702  0  0  -0.302119  0  3.750826  0  0  -0.317855  0  3.752352  0  -1.19718  0  -0.398618  -0.291416  0  3.747434  0
N  N79  1  0.75063631  0.94270201  0.93191596  1  0  -0.381015  0  3.4237  0  0  -0.302192  0  3.750817  0  0  -0.31793  0  3.752346  0  -1.197148  0  -0.398612  -0.29149  0  3.74744  0
N  N80  1  0.41520873  0.97062833  0.07878267  1  0  -0.261152  0  2.877803  0  0  -0.258881  0  3.14602  0  0  -0.259341  0  3.167472  0  -0.662765  0  -0.214048  -0.252514  0  3.134866  0
N  N81  1  0.58479283  0.02937669  0.92121760  1  0  -0.2611  0  2.877753  0  0  -0.258838  0  3.14598  0  0  -0.259286  0  3.167426  0  -0.66286  0  -0.213979  -0.252471  0  3.134832  0
N  N82  1  0.41536470  0.02390917  0.17885582  1  0  0.04849  0  3.58854  0  0  0.164742  0  3.77753  0  0  0.125435  0  3.839089  0  -0.822556  0  -0.132449  0.172631  0  3.758645  0
N  N83  1  0.58463712  0.97609394  0.82114510  1  0  0.048525  0  3.588494  0  0  0.164784  0  3.777486  0  0  0.125452  0  3.839061  0  -0.822579  0  -0.132455  0.17268  0  3.758596  0
N  N84  1  0.39839608  0.72028953  0.38968379  1  0  -0.296064  0  3.456006  0  0  -0.206194  0  3.749875  0  0  -0.220912  0  3.758713  0  -1.2276  0  -0.384654  -0.19706  0  3.743887  0
N  N85  1  0.60160588  0.27970881  0.61031593  1  0  -0.296063  0  3.455861  0  0  -0.206204  0  3.749721  0  0  -0.220934  0  3.75858  0  -1.227592  0  -0.384652  -0.19707  0  3.743748  0
N  N86  1  0.29430608  0.64143515  0.64089238  1  0  -0.368185  0  3.379389  0  0  -0.285434  0  3.705275  0  0  -0.304213  0  3.708829  0  -1.197311  0  -0.393419  -0.273683  0  3.702852  0
N  N87  1  0.70569456  0.35856224  0.35910624  1  0  -0.368205  0  3.379414  0  0  -0.285455  0  3.705295  0  0  -0.30424  0  3.708866  0  -1.197067  0  -0.393431  -0.273714  0  3.702887  0
N  N88  1  0.31487474  0.58745559  0.80455846  1  0  -0.257203  0  3.244722  0  0  -0.218567  0  3.560805  0  0  -0.228425  0  3.564163  0  -0.718195  0  -0.27988  -0.212464  0  3.558583  0
N  N89  1  0.68512468  0.41254371  0.19544090  1  0  -0.257211  0  3.244702  0  0  -0.218566  0  3.560762  0  0  -0.228431  0  3.564124  0  -0.718173  0  -0.279866  -0.212461  0  3.558551  0
N  N90  1  0.18307832  0.58467221  0.76257224  1  0  0.056882  0  3.49717  0  0  0.177145  0  3.671029  0  0  0.16505  0  3.696704  0  -0.817763  0  -0.130102  0.183558  0  3.656537  0
N  N91  1  0.81692313  0.41532995  0.23742775  1  0  0.056971  0  3.497193  0  0  0.177246  0  3.67107  0  0  0.165185  0  3.696691  0  -0.81776  0  -0.13006  0.183655  0  3.65659  0
N  N92  1  0.00420762  0.77779578  0.00161513  1  0  -0.29015  0  3.445486  0  0  -0.204012  0  3.740177  0  0  -0.217538  0  3.749449  0  -1.22334  0  -0.376162  -0.195403  0  3.734742  0
N  N93  1  0.99578781  0.22220065  0.99838172  1  0  -0.290176  0  3.445689  0  0  -0.204079  0  3.740465  0  0  -0.217601  0  3.749723  0  -1.223415  0  -0.376185  -0.195466  0  3.735021  0
Cl  Cl94  1  0.36344778  0.38698283  0.04221924  1  0  -0.556099  0  1.219956  0  0  -0.476189  0  1.563267  0  0  -0.496425  0  1.529515  0  -0.618801  0  -0.311907  -0.461375  0  1.585716  0
Cl  Cl95  1  0.63655887  0.61302028  0.95778252  1  0  -0.556107  0  1.219931  0  0  -0.476181  0  1.5632  0  0  -0.496431  0  1.529479  0  -0.618807  0  -0.311914  -0.461368  0  1.585645  0
O  O96  1  0.14360215  0.39477857  0.38484215  1  0  -0.723462  0  1.431756  0  0  -0.728869  0  1.698091  0  0  -0.754086  0  1.685032  0  -0.858399  0  -0.52309  -0.711073  0  1.708026  0
O  O97  1  0.85640114  0.60522072  0.61515788  1  0  -0.723491  0  1.431826  0  0  -0.728889  0  1.698162  0  0  -0.754109  0  1.685102  0  -0.858469  0  -0.523097  -0.711097  0  1.708098  0
O  O98  1  0.38556269  0.35104226  0.39334127  1  0  -0.713135  0  1.441805  0  0  -0.707441  0  1.700705  0  0  -0.731911  0  1.685048  0  -0.851581  0  -0.520181  -0.690281  0  1.712818  0
O  O99  1  0.61444192  0.64895800  0.60666376  1  0  -0.713208  0  1.441811  0  0  -0.707514  0  1.700707  0  0  -0.731984  0  1.685059  0  -0.851581  0  -0.520218  -0.690353  0  1.712814  0
O  O100  1  0.24995334  0.31692419  0.56972716  1  0  -0.869921  0  1.737811  0  0  -0.865294  0  2.029532  0  0  -0.908542  0  2.026438  0  -1.003658  0  -0.587515  -0.833601  0  2.031507  0
O  O101  1  0.75004510  0.68307511  0.43027438  1  0  -0.86989  0  1.73778  0  0  -0.865275  0  2.029518  0  0  -0.908518  0  2.026421  0  -1.003664  0  -0.587504  -0.833573  0  2.031474  0
O  O102  1  0.28216773  0.11557548  0.46141608  1  0  -0.787171  0  1.611046  0  0  -0.78368  0  1.889145  0  0  -0.815887  0  1.880878  0  -0.933251  0  -0.550032  -0.760426  0  1.896043  0
O  O103  1  0.71783097  0.88442191  0.53858532  1  0  -0.787186  0  1.611056  0  0  -0.78373  0  1.8892  0  0  -0.815929  0  1.880935  0  -0.933311  0  -0.550047  -0.760474  0  1.896099  0
O  O104  1  0.17650668  0.30579831  0.76658183  1  0  -0.669405  0  1.492449  0  0  -0.665357  0  1.764035  0  0  -0.688483  0  1.751671  0  -0.816487  0  -0.509587  -0.649811  0  1.773268  0
O  O105  1  0.82349697  0.69420194  0.23341992  1  0  -0.669382  0  1.492493  0  0  -0.665341  0  1.764082  0  0  -0.688467  0  1.751721  0  -0.816492  0  -0.509572  -0.649794  0  1.773311  0
O  O106  1  0.18527604  0.07506051  0.64641586  1  0  -0.944557  0  1.825713  0  0  -0.934307  0  2.117366  0  0  -0.978136  0  2.116437  0  -1.066019  0  -0.592097  -0.901599  0  2.117413  0
O  O107  1  0.81472470  0.92493974  0.35358305  1  0  -0.944572  0  1.825704  0  0  -0.934344  0  2.117368  0  0  -0.978192  0  2.116492  0  -1.06589  0  -0.592137  -0.901631  0  2.117411  0
O  O108  1  0.25911827  0.88700872  0.53149933  1  0  -0.705837  0  1.547004  0  0  -0.692984  0  1.828498  0  0  -0.715291  0  1.814341  0  -0.839908  0  -0.506128  -0.677042  0  1.839057  0
O  O109  1  0.74087573  0.11298390  0.46850314  1  0  -0.705924  0  1.547059  0  0  -0.693048  0  1.82848  0  0  -0.715353  0  1.814327  0  -0.839874  0  -0.506191  -0.677107  0  1.839043  0
O  O110  1  0.00129952  0.34455375  0.59496361  1  0  -0.685064  0  1.425557  0  0  -0.685845  0  1.682354  0  0  -0.711148  0  1.671524  0  -0.815668  0  -0.513593  -0.66804  0  1.689878  0
O  O111  1  0.99869820  0.65544363  0.40503917  1  0  -0.685085  0  1.425626  0  0  -0.685836  0  1.682394  0  0  -0.711142  0  1.671568  0  -0.815708  0  -0.513563  -0.668032  0  1.689918  0
O  O112  1  0.05437637  0.90283017  0.35786001  1  0  -0.95815  0  1.80479  0  0  -0.944249  0  2.086166  0  0  -0.988236  0  2.083516  0  -1.076601  0  -0.60059  -0.911619  0  2.088183  0
O  O113  1  0.94562075  0.09716818  0.64214042  1  0  -0.958193  0  1.804821  0  0  -0.944301  0  2.086201  0  0  -0.988288  0  2.083554  0  -1.076625  0  -0.600603  -0.911677  0  2.088227  0
O  O114  1  0.02116729  0.11615277  0.46361053  1  0  -1.221782  0  1.880308  0  0  -1.199993  0  2.15742  0  0  -1.247992  0  2.156308  0  -1.24183  0  -0.621901  -1.163191  0  2.156591  0
O  O115  1  0.97882936  0.88384176  0.53638713  1  0  -1.221901  0  1.880518  0  0  -1.200087  0  2.157597  0  0  -1.248108  0  2.156517  0  -1.241899  0  -0.621928  -1.163282  0  2.156757  0
O  O116  1  0.11975534  0.15575839  0.29082650  1  0  -0.903223  0  1.77225  0  0  -0.896572  0  2.077466  0  0  -0.936378  0  2.067564  0  -1.029061  0  -0.592077  -0.86698  0  2.083665  0
O  O117  1  0.88024249  0.84424186  0.70917579  1  0  -0.9032  0  1.772277  0  0  -0.896514  0  2.077468  0  0  -0.936307  0  2.067534  0  -1.029079  0  -0.592038  -0.866923  0  2.083662  0
O  O118  1  0.15975059  0.86296787  0.74864012  1  0  -0.697224  0  1.460193  0  0  -0.69413  0  1.715762  0  0  -0.718924  0  1.707639  0  -0.84451  0  -0.515733  -0.676465  0  1.722032  0
O  O119  1  0.84025219  0.13703525  0.25136252  1  0  -0.697211  0  1.460176  0  0  -0.69412  0  1.715748  0  0  -0.718917  0  1.707626  0  -0.84449  0  -0.515728  -0.676463  0  1.722027  0
O  O120  1  0.09321408  0.05825911  0.83862112  1  0  -0.707334  0  1.640311  0  0  -0.684467  0  1.950376  0  0  -0.705663  0  1.927952  0  -0.862336  0  -0.524649  -0.67008  0  1.967031  0
O  O121  1  0.90678906  0.94174496  0.16137623  1  0  -0.707355  0  1.640309  0  0  -0.684453  0  1.950333  0  0  -0.705649  0  1.927906  0  -0.862387  0  -0.52467  -0.670069  0  1.96699  0
