# generated using pymatgen
data_CoH21C19SN3O5
_symmetry_space_group_name_H-M   'P 1'
_cell_length_a   13.56776063
_cell_length_b   14.98667858
_cell_length_c   14.98567967
_cell_angle_alpha   82.59405407
_cell_angle_beta   78.52475211
_cell_angle_gamma   78.50555580
_symmetry_Int_Tables_number   1
_chemical_formula_structural   CoH21C19SN3O5
_chemical_formula_sum   'Co4 H84 C76 S4 N12 O20'
_cell_volume   2913.65642422
_cell_formula_units_Z   4
loop_
 _symmetry_equiv_pos_site_id
 _symmetry_equiv_pos_as_xyz
  1  'x, y, z'
loop_
 _atom_site_type_symbol
 _atom_site_label
 _atom_site_symmetry_multiplicity
 _atom_site_fract_x
 _atom_site_fract_y
 _atom_site_fract_z
 _atom_site_occupancy
 _atom_site_pbe_bader_charge
 _atom_site_pbe_bader_spin_density
 _atom_site_pbe_cm5_charge
 _atom_site_pbe_ddec_charge
 _atom_site_pbe_ddec_spin_density
 _atom_site_pbe_ddec_sum_bond_order
 _atom_site_pbe_magmom
Co  Co0  1  0.50403400  0.99734901  0.49774596  1  1.33652  2.678523  0.72431  0.862719  3.118922  2.708681  2.662
Co  Co1  1  0.99587764  0.50226250  0.00258627  1  1.336953  2.678734  0.724452  0.863359  3.119302  2.707838  2.662
Co  Co2  1  0.74993509  0.81914531  0.18085038  1  1.362319  0.502576  0.802613  0.942129  0.591308  3.173915  0.493
Co  Co3  1  0.25006078  0.18103599  0.81888357  1  1.352111  1.715254  0.773425  0.934029  1.991287  2.915061  1.69
H  H4  1  0.83861520  0.62209244  0.20681122  1  0.153401  -7.8e-05  0.122489  0.098712  -0.000212  1.035759  0.0
H  H5  1  0.34093960  0.20413104  0.62267961  1  0.1256  -0.000175  0.120985  0.096904  -0.000411  1.036214  0.0
H  H6  1  0.15915374  0.37725141  0.79599807  1  0.12712  -0.000173  0.121098  0.096717  -0.000409  1.036509  0.0
H  H7  1  0.66129802  0.79323194  0.37789748  1  0.153851  -7.9e-05  0.122291  0.098334  -0.000212  1.036279  0.0
H  H8  1  0.77700995  0.47316883  0.24662511  1  0.075705  -0.000149  0.105436  0.114574  -0.000173  1.010834  0.0
H  H9  1  0.28001142  0.24371347  0.47307584  1  0.085296  -9e-05  0.104163  0.112902  -9.5e-05  1.011218  0.0
H  H10  1  0.22005259  0.52686444  0.75646218  1  0.086554  -8.8e-05  0.104124  0.112525  -9.4e-05  1.011903  0.0
H  H11  1  0.72296799  0.75342568  0.52681720  1  0.075907  -0.000149  0.105537  0.114719  -0.000173  1.010673  0.0
H  H12  1  0.30828578  0.98556658  0.63930277  1  0.190079  0.001537  0.120936  0.107653  0.000397  1.040646  0.001
H  H13  1  0.79870941  0.64579940  0.98810524  1  0.179772  0.001633  0.121122  0.105397  0.000444  1.029981  0.001
H  H14  1  0.70123450  0.01180253  0.35433078  1  0.181441  0.001629  0.121106  0.105361  0.000443  1.029733  0.001
H  H15  1  0.19163101  0.36073364  0.01450527  1  0.191016  0.001538  0.120896  0.107525  0.000398  1.040771  0.001
H  H16  1  0.49959608  0.30091697  0.27639029  1  0.072551  0.000989  0.10899  0.118782  0.00047  0.999067  0.0
H  H17  1  0.99416105  0.28010402  0.30329778  1  0.064595  0.000987  0.109504  0.118243  0.000465  0.998118  0.0
H  H18  1  0.50576150  0.69665324  0.71997018  1  0.063168  0.000987  0.109408  0.118046  0.000464  0.998416  0.0
H  H19  1  0.00018866  0.72371362  0.69912207  1  0.086917  0.000984  0.108924  0.118633  0.00047  0.998569  0.0
H  H20  1  0.35957113  0.03493078  0.35525984  1  0.167664  0.001645  0.114884  0.096461  0.000485  1.050544  0.001
H  H21  1  0.85201663  0.36206850  0.04005958  1  0.186336  0.001716  0.115416  0.099382  0.000546  1.058157  0.001
H  H22  1  0.64782180  0.95983988  0.63804655  1  0.183817  0.00172  0.115561  0.099512  0.000548  1.057929  0.001
H  H23  1  0.14029456  0.64476327  0.96499399  1  0.166333  0.001644  0.114789  0.096337  0.000484  1.050404  0.001
H  H24  1  0.53216747  0.15708009  0.58465453  1  0.170629  0.001326  0.122781  0.104517  0.000294  1.011412  0.001
H  H25  1  0.03276214  0.58758749  0.16093633  1  0.150128  0.001411  0.121172  0.10148  0.000293  1.008816  0.001
H  H26  1  0.46712236  0.83898132  0.41246509  1  0.150898  0.001408  0.121103  0.101898  0.000293  1.008494  0.001
H  H27  1  0.96820292  0.41527054  0.84270008  1  0.170472  0.001326  0.122686  0.104425  0.000296  1.011578  0.001
H  H28  1  0.48000243  0.14115587  0.32492702  1  0.144745  0.001515  0.120788  0.090924  0.000428  1.021398  0.001
H  H29  1  0.96863016  0.33201169  0.14545863  1  0.143818  0.001565  0.122999  0.093729  0.000449  1.026789  0.001
H  H30  1  0.53126483  0.85448771  0.66804462  1  0.14314  0.001566  0.123171  0.093689  0.00045  1.027158  0.001
H  H31  1  0.01968076  0.67515504  0.85891369  1  0.145417  0.001515  0.120603  0.090797  0.000427  1.021558  0.001
H  H32  1  0.47921090  0.47073663  0.41117627  1  0.043208  -0.000476  0.096828  0.096647  -0.000392  0.973192  0.0
H  H33  1  0.98170160  0.41004848  0.47335941  1  0.043784  -0.000481  0.09656  0.095549  -0.000393  0.975335  0.0
H  H34  1  0.51833637  0.52658505  0.58999633  1  0.043353  -0.00048  0.096616  0.095736  -0.000393  0.975291  0.0
H  H35  1  0.02082170  0.58889560  0.52917233  1  0.042107  -0.000476  0.096733  0.096538  -0.000392  0.973005  0.0
H  H36  1  0.60893413  0.43230191  0.41719038  1  0.036076  -0.000203  0.096751  0.097219  -0.000156  0.975148  0.0
H  H37  1  0.11102351  0.41698548  0.43362733  1  0.034932  -0.000176  0.095903  0.095443  -0.000134  0.975506  0.0
H  H38  1  0.38899290  0.56626462  0.58306678  1  0.034651  -0.000176  0.096092  0.095545  -0.000134  0.975426  0.0
H  H39  1  0.89111649  0.58285987  0.56762595  1  0.036821  -0.000204  0.096797  0.097217  -0.000157  0.975439  0.0
H  H40  1  0.12137533  0.00822249  0.64693043  1  0.082721  0.001021  0.112637  0.126001  0.000436  0.976157  0.0
H  H41  1  0.61205967  0.65191148  0.00700419  1  0.076546  0.001171  0.112978  0.126799  0.00053  0.976445  0.0
H  H42  1  0.88785444  0.99300591  0.34835263  1  0.08092  0.001168  0.112976  0.126462  0.00053  0.975939  0.0
H  H43  1  0.37853225  0.35308889  0.99190728  1  0.088963  0.001021  0.112697  0.126311  0.000437  0.975778  0.0
H  H44  1  0.46932648  0.62564342  0.25998495  1  0.067593  0.000166  0.106948  0.113953  7.5e-05  0.989203  0.0
H  H45  1  0.97169151  0.26034258  0.62464340  1  0.033364  0.000232  0.105936  0.113015  0.000141  0.989623  0.0
H  H46  1  0.52840396  0.37523578  0.73949695  1  0.032784  0.000232  0.106043  0.11311  0.00014  0.989882  0.0
H  H47  1  0.03061086  0.74008173  0.37432699  1  0.068443  0.000166  0.107086  0.113989  7.5e-05  0.988858  0.0
H  H48  1  0.55472839  0.31998525  0.54722884  1  0.069309  0.000934  0.099971  0.103986  0.000444  1.015771  0.0
H  H49  1  0.06002054  0.54703591  0.32235772  1  0.043482  0.001015  0.099052  0.101746  0.000476  1.018633  0.0
H  H50  1  0.43991659  0.67754211  0.45302790  1  0.043881  0.001013  0.099052  0.101671  0.000475  1.018781  0.0
H  H51  1  0.94568642  0.45273757  0.67978978  1  0.068909  0.000934  0.100417  0.10447  0.000444  1.015423  0.0
H  H52  1  0.54503083  0.76848696  0.22160861  1  0.140453  -0.000115  0.13146  0.114557  -0.000114  0.992449  0.0
H  H53  1  0.04673051  0.22202825  0.76822602  1  0.166384  -7.1e-05  0.130637  0.116755  -0.000185  0.99367  0.0
H  H54  1  0.45340007  0.23165905  0.77776519  1  0.164058  -7.6e-05  0.130688  0.116404  -0.000187  0.994556  0.0
H  H55  1  0.95485027  0.77845671  0.23149588  1  0.140952  -0.000115  0.131573  0.114714  -0.000114  0.991962  0.0
H  H56  1  0.51005967  0.45313001  0.24669142  1  0.027924  3.5e-05  0.096514  0.093308  1.9e-05  0.992978  0.0
H  H57  1  0.01289142  0.24634688  0.45232773  1  0.049188  -0.000123  0.096167  0.092389  -9e-05  0.996019  0.0
H  H58  1  0.48720073  0.54753251  0.75368520  1  0.048638  -0.000122  0.096531  0.092974  -9e-05  0.995373  0.0
H  H59  1  0.98990124  0.75337687  0.54685592  1  0.027493  3.5e-05  0.096494  0.093252  1.9e-05  0.992988  0.0
H  H60  1  0.63574644  0.39307260  0.24961833  1  0.04936  2e-06  0.101385  0.104614  -1.1e-05  0.98028  0.0
H  H61  1  0.13827975  0.25030499  0.39205594  1  0.059646  -7.8e-05  0.100838  0.103539  -5.5e-05  0.979954  0.0
H  H62  1  0.36179686  0.60783704  0.74976748  1  0.058097  -7.6e-05  0.100469  0.103135  -5.4e-05  0.980407  0.0
H  H63  1  0.86422980  0.75041323  0.60689829  1  0.049668  2e-06  0.101228  0.104351  -1.1e-05  0.98054  0.0
H  H64  1  0.17381631  0.06128572  0.35212227  1  0.072286  0.001182  0.111851  0.123592  0.000539  0.977722  0.0
H  H65  1  0.66707024  0.35737694  0.06279847  1  0.062062  0.001171  0.110684  0.121556  0.000535  0.97796  0.0
H  H66  1  0.83271722  0.93718924  0.64287880  1  0.060611  0.001172  0.110783  0.121671  0.000535  0.977798  0.0
H  H67  1  0.32603925  0.64789823  0.93866191  1  0.073853  0.001183  0.111818  0.123535  0.00054  0.977329  0.0
H  H68  1  0.99623425  0.09356353  0.44184255  1  0.038148  5.4e-05  0.094611  0.091687  1.5e-05  0.990275  0.0
H  H69  1  0.48917608  0.44552342  0.09275749  1  0.008194  6.5e-05  0.094154  0.090497  2.8e-05  0.990845  0.0
H  H70  1  0.01066396  0.90737755  0.55485319  1  0.006544  6.7e-05  0.094072  0.090154  2.9e-05  0.990788  0.0
H  H71  1  0.50364394  0.55811378  0.90635895  1  0.039026  5.3e-05  0.094561  0.091576  1.4e-05  0.990221  0.0
H  H72  1  0.97384161  0.07639230  0.56320821  1  0.06198  -2.6e-05  0.097296  0.098283  -4.3e-05  0.978863  0.0
H  H73  1  0.46540467  0.56684759  0.07580857  1  0.02673  -2.6e-05  0.096455  0.096336  -4.9e-05  0.979651  0.0
H  H74  1  0.03443454  0.92404386  0.43351551  1  0.030012  -2.7e-05  0.096389  0.096252  -5e-05  0.979444  0.0
H  H75  1  0.52606486  0.43676028  0.92380913  1  0.063291  -2.5e-05  0.097321  0.098517  -4.2e-05  0.978423  0.0
H  H76  1  0.63025145  0.91422014  0.97946318  1  0.048327  0.002009  0.104107  0.119458  0.000543  0.959511  0.001
H  H77  1  0.13390119  0.97867157  0.91899401  1  0.023214  0.003678  0.097734  0.108706  0.001269  0.968431  0.002
H  H78  1  0.36693828  0.08079406  0.02086421  1  0.029185  0.003622  0.097982  0.108792  0.001246  0.968895  0.002
H  H79  1  0.86953115  0.02055561  0.08577860  1  0.048314  0.002012  0.104129  0.119647  0.000545  0.959498  0.001
H  H80  1  0.65844615  0.97572967  0.06433124  1  0.069228  0.008306  0.100633  0.106509  0.003416  1.003001  0.006
H  H81  1  0.16612167  0.06375088  0.97762311  1  0.064411  0.00445  0.097333  0.098679  0.001532  1.013081  0.003
H  H82  1  0.33563537  0.02225788  0.93523286  1  0.066192  0.004313  0.096699  0.09779  0.001478  1.013434  0.003
H  H83  1  0.84140858  0.93566691  0.02425106  1  0.067246  0.008312  0.100816  0.106824  0.003412  1.002767  0.006
H  H84  1  0.55375809  0.91631249  0.09223274  1  0.076214  0.021812  0.094061  0.104342  0.009237  1.013832  0.016
H  H85  1  0.05615609  0.09060704  0.92523527  1  0.083322  0.023798  0.09305  0.101806  0.010122  1.005534  0.017
H  H86  1  0.44473794  0.07578980  0.90888935  1  0.075693  0.023856  0.093011  0.101783  0.010104  1.006282  0.017
H  H87  1  0.94608574  0.90780267  0.08371052  1  0.078728  0.021781  0.093984  0.104145  0.009239  1.013773  0.016
C  C88  1  0.75747363  0.61918560  0.22162200  1  0.421194  -0.001772  0.052803  0.099056  -0.002255  3.918738  -0.001
C  C89  1  0.25984390  0.21967681  0.61930326  1  0.549072  -0.005957  0.049905  0.093289  -0.006725  3.926628  -0.004
C  C90  1  0.24024734  0.38062170  0.78040717  1  0.54617  -0.005912  0.049487  0.093078  -0.006676  3.926401  -0.004
C  C91  1  0.74244152  0.77842556  0.38080397  1  0.420086  -0.001775  0.053091  0.099626  -0.002258  3.918825  -0.001
C  C92  1  0.72193800  0.53687575  0.24372314  1  -0.01198  0.000103  -0.088374  -0.189938  -0.000138  3.947631  0.0
C  C93  1  0.22476336  0.24156448  0.53675276  1  -0.084374  0.001147  -0.088993  -0.188889  0.000251  3.953421  0.001
C  C94  1  0.27530464  0.46317963  0.75854223  1  -0.082124  0.001136  -0.088812  -0.188347  0.000245  3.952859  0.001
C  C95  1  0.77801408  0.75633522  0.46310084  1  -0.012212  0.000102  -0.088681  -0.190232  -0.000139  3.94882  0.0
C  C96  1  0.52938454  0.32583355  0.40778335  1  0.022281  -0.008402  0.004113  0.154438  -0.008965  3.970738  -0.005
C  C97  1  0.02927967  0.40940980  0.32810216  1  -0.066471  -0.008534  0.003024  0.15302  -0.009077  3.965634  -0.006
C  C98  1  0.47066557  0.67183166  0.59065200  1  -0.056823  -0.008523  0.002595  0.15271  -0.009066  3.966471  -0.006
C  C99  1  0.97069012  0.59226121  0.67407869  1  0.021196  -0.008405  0.004482  0.154615  -0.008968  3.969832  -0.005
C  C100  1  0.27603604  0.00278080  0.57669728  1  0.468336  -0.004609  0.047692  0.104205  -0.005475  3.906762  -0.003
C  C101  1  0.76691097  0.58303939  0.00497939  1  0.466723  -0.004541  0.04709  0.103983  -0.005286  3.916333  -0.003
C  C102  1  0.73299956  0.99494776  0.41711613  1  0.464041  -0.004535  0.047555  0.104765  -0.005286  3.914991  -0.003
C  C103  1  0.22387494  0.42333576  0.99727907  1  0.468563  -0.004607  0.047929  0.104786  -0.005477  3.907172  -0.003
C  C104  1  0.61694753  0.53643161  0.25795658  1  0.003083  -0.00138  0.008007  0.158313  -0.00148  3.976078  -0.001
C  C105  1  0.11974846  0.25675897  0.53598375  1  -0.025454  -0.007503  0.004623  0.153876  -0.007956  3.978447  -0.005
C  C106  1  0.38032793  0.46391937  0.74326925  1  -0.024547  -0.00746  0.004876  0.153883  -0.007911  3.978731  -0.005
C  C107  1  0.88300411  0.74211354  0.46354630  1  0.004632  -0.001383  0.008041  0.158044  -0.001483  3.977144  -0.001
C  C108  1  0.50640993  0.27357680  0.34631550  1  -0.044876  0.005116  -0.090969  -0.194934  0.002636  3.94525  0.004
C  C109  1  0.00207761  0.34990464  0.27637303  1  0.009798  0.00507  -0.088723  -0.187307  0.002641  3.935316  0.004
C  C110  1  0.49783581  0.72356985  0.65016684  1  -0.002384  0.005068  -0.088408  -0.186899  0.002641  3.935676  0.004
C  C111  1  0.99349862  0.65375210  0.72641002  1  -0.062068  0.005123  -0.090787  -0.194706  0.002635  3.94449  0.004
C  C112  1  0.30432244  0.03177678  0.41888993  1  0.461983  -0.004313  0.041443  0.089363  -0.004939  3.946437  -0.003
C  C113  1  0.79641663  0.42537567  0.03535110  1  0.414887  -0.004447  0.042499  0.092696  -0.00519  3.934269  -0.003
C  C114  1  0.70344390  0.96456354  0.57476603  1  0.416085  -0.004435  0.042485  0.092384  -0.005179  3.935174  -0.003
C  C115  1  0.19555172  0.58113917  0.96819896  1  0.46025  -0.00431  0.041061  0.088903  -0.004935  3.945229  -0.003
C  C116  1  0.52559479  0.19257412  0.51728848  1  0.498414  -0.005473  0.044681  0.099263  -0.006206  3.941624  -0.004
C  C117  1  0.02439309  0.52049772  0.19624101  1  0.429372  -0.005375  0.04318  0.095165  -0.006094  3.950202  -0.004
C  C118  1  0.47550141  0.80368482  0.47955827  1  0.425621  -0.005369  0.042808  0.093777  -0.006093  3.951188  -0.004
C  C119  1  0.97463783  0.48268564  0.80727125  1  0.490712  -0.005449  0.04443  0.098365  -0.006199  3.941463  -0.004
C  C120  1  0.49475444  0.18308380  0.37326096  1  0.457402  -0.005357  0.054156  0.111407  -0.005966  3.935005  -0.003
C  C121  1  0.98735483  0.37864168  0.18694761  1  0.455009  -0.00541  0.053199  0.108295  -0.006081  3.933593  -0.004
C  C122  1  0.51253544  0.81299474  0.62141985  1  0.458001  -0.005401  0.05293  0.10791  -0.006071  3.934958  -0.004
C  C123  1  0.00512270  0.62679280  0.81691143  1  0.457606  -0.005366  0.054226  0.111755  -0.005973  3.934047  -0.003
C  C124  1  0.54774145  0.42270893  0.38273638  1  -0.002575  -6.8e-05  -0.151391  -0.184904  -0.000307  3.947476  0.0
C  C125  1  0.04967579  0.38269328  0.42413514  1  -0.007088  -0.000475  -0.151886  -0.185113  -0.000712  3.950987  0.0
C  C126  1  0.45033455  0.57578490  0.61735743  1  -0.006278  -0.00047  -0.152261  -0.185525  -0.000708  3.951381  0.0
C  C127  1  0.95230293  0.61732271  0.57721315  1  -0.002294  -6.9e-05  -0.151323  -0.184767  -0.000308  3.947422  0.0
C  C128  1  0.17096254  0.01494973  0.58036782  1  -0.05615  0.005045  -0.087047  -0.187082  0.002603  3.942595  0.004
C  C129  1  0.66215552  0.58583144  0.01518401  1  -0.105389  0.00521  -0.089695  -0.192976  0.002749  3.945172  0.004
C  C130  1  0.83772951  0.98480399  0.41440786  1  -0.108125  0.005206  -0.089739  -0.193137  0.002744  3.944935  0.004
C  C131  1  0.32894969  0.41965559  0.98513337  1  -0.059409  0.005048  -0.087347  -0.188035  0.002607  3.942307  0.004
C  C132  1  0.13074186  0.03717946  0.49968444  1  -0.044335  -0.006841  0.001827  0.147764  -0.007271  3.994683  -0.004
C  C133  1  0.62275183  0.50468091  0.03722488  1  0.007909  -0.006789  0.001188  0.147095  -0.00723  3.994061  -0.004
C  C134  1  0.87710440  0.96277845  0.49557705  1  0.013194  -0.006785  0.001383  0.148094  -0.007227  3.993553  -0.004
C  C135  1  0.36914407  0.50034484  0.96286370  1  -0.044268  -0.006838  0.001902  0.148061  -0.007268  3.994029  -0.004
C  C136  1  0.55200590  0.62124216  0.25040943  1  -0.04903  0.000476  -0.09109  -0.202311  0.000175  3.975256  0.0
C  C137  1  0.05438816  0.24995048  0.62063740  1  -0.065663  0.001894  -0.092792  -0.203833  0.000715  3.977258  0.002
C  C138  1  0.44570059  0.37925795  0.74997502  1  -0.066061  0.00189  -0.092872  -0.203988  0.000714  3.978248  0.002
C  C139  1  0.94792999  0.74965940  0.37873396  1  -0.050465  0.000477  -0.091442  -0.202244  0.000175  3.975234  0.0
C  C140  1  0.53762692  0.28311706  0.49556543  1  -0.154529  0.004723  -0.095861  -0.203886  0.002431  3.980597  0.004
C  C141  1  0.03933210  0.49700780  0.28582861  1  0.014636  0.005053  -0.09636  -0.202125  0.002631  3.982962  0.004
C  C142  1  0.46059522  0.71409009  0.50304795  1  0.014799  0.005053  -0.096107  -0.201552  0.002631  3.983573  0.004
C  C143  1  0.96261901  0.50443135  0.71672840  1  -0.146795  0.004714  -0.096327  -0.203909  0.002429  3.979483  0.004
C  C144  1  0.59265719  0.70113167  0.22813598  1  0.488401  -0.000587  0.056371  0.100892  -0.000763  3.914958  0.0
C  C145  1  0.09448403  0.22774499  0.70081092  1  0.488308  -0.005135  0.054783  0.09818  -0.005444  3.914029  -0.003
C  C146  1  0.40562705  0.29907895  0.77214991  1  0.487991  -0.005106  0.054703  0.0985  -0.005414  3.913874  -0.003
C  C147  1  0.90724706  0.77192076  0.29885786  1  0.489257  -0.000587  0.056342  0.100527  -0.000762  3.914714  0.0
C  C148  1  0.57688693  0.44815540  0.27948411  1  -0.012214  -4.6e-05  -0.156727  -0.203806  -9.2e-05  3.963534  0.0
C  C149  1  0.07958609  0.27920118  0.44777100  1  -0.058722  -7.6e-05  -0.155695  -0.201269  -0.000287  3.966043  0.0
C  C150  1  0.42048083  0.55212460  0.72084459  1  -0.056188  -7.5e-05  -0.155681  -0.201364  -0.000285  3.965867  0.0
C  C151  1  0.92309529  0.72057418  0.55180917  1  -0.012444  -4.5e-05  -0.156406  -0.203365  -9.2e-05  3.963655  0.0
C  C152  1  0.20007589  0.04509300  0.41761358  1  -0.082108  0.005175  -0.091988  -0.197113  0.002696  3.96002  0.004
C  C153  1  0.69255027  0.42321296  0.04669426  1  -0.016617  0.005017  -0.090684  -0.19378  0.002639  3.958449  0.004
C  C154  1  0.80728470  0.95328311  0.57701501  1  -0.018844  0.005014  -0.090927  -0.193976  0.00264  3.957371  0.004
C  C155  1  0.29979416  0.58240688  0.95489345  1  -0.081114  0.005176  -0.091579  -0.196448  0.002699  3.958752  0.004
C  C156  1  0.01824118  0.04715352  0.50056898  1  -0.041745  -0.000397  -0.153607  -0.196103  -0.000649  3.95752  0.0
C  C157  1  0.51058636  0.50453086  0.04644751  1  0.015662  -0.000381  -0.153015  -0.193958  -0.000639  3.959065  0.0
C  C158  1  0.98926189  0.95355553  0.49575380  1  0.015618  -0.00038  -0.152998  -0.193746  -0.000639  3.958119  0.0
C  C159  1  0.48163830  0.49947286  0.95289589  1  -0.041494  -0.000396  -0.153679  -0.196388  -0.000649  3.957739  0.0
C  C160  1  0.63209394  0.91373557  0.05282250  1  0.407759  0.005725  -0.1564  -0.162202  0.002176  3.99798  0.0
C  C161  1  0.13535087  0.05214745  0.91810405  1  0.413737  0.004514  -0.159057  -0.153049  0.001508  4.013214  -0.001
C  C162  1  0.36558806  0.08205375  0.94732533  1  0.412749  0.004299  -0.158468  -0.152276  0.001408  4.01422  -0.001
C  C163  1  0.86773036  0.94718824  0.08625709  1  0.406933  0.005739  -0.156764  -0.162741  0.002171  3.998142  0.0
S  S164  1  0.56066798  0.97186941  0.26723641  1  3.746704  0.006534  0.566526  1.400309  0.006395  6.355491  0.009
S  S165  1  0.05112027  0.27330480  0.98045384  1  3.775696  0.006976  0.556377  1.404986  0.007493  6.392169  0.01
S  S166  1  0.44886549  0.01953378  0.72668390  1  3.775057  0.006996  0.556258  1.404453  0.007515  6.391848  0.01
S  S167  1  0.93924285  0.73281035  0.02817200  1  3.744546  0.006547  0.567461  1.402435  0.006399  6.354701  0.009
N  N168  1  0.50479301  0.14238455  0.45707703  1  -1.220154  0.060506  -0.314637  -0.24384  0.034719  3.537117  0.055
N  N169  1  0.99868204  0.46240932  0.14678801  1  -1.22591  0.062471  -0.316052  -0.24199  0.035834  3.542175  0.057
N  N170  1  0.50119734  0.85314299  0.53764944  1  -1.222733  0.062427  -0.315513  -0.240675  0.035809  3.542699  0.057
N  N171  1  0.99523238  0.54292768  0.85754621  1  -1.216385  0.060508  -0.314795  -0.243963  0.034733  3.536578  0.055
N  N172  1  0.34207020  0.01157510  0.49717269  1  -1.227563  0.068594  -0.321085  -0.256736  0.039755  3.563178  0.06
N  N173  1  0.83331074  0.50411109  0.01554757  1  -1.218554  0.068221  -0.321275  -0.2563  0.039407  3.56062  0.06
N  N174  1  0.66658113  0.98434052  0.49601314  1  -1.219069  0.068187  -0.321908  -0.257224  0.039387  3.562015  0.06
N  N175  1  0.15782810  0.50285049  0.98843420  1  -1.231727  0.068643  -0.321058  -0.256881  0.039787  3.562591  0.06
N  N176  1  0.69403445  0.69996305  0.21405284  1  -1.182812  0.000631  -0.309972  -0.197091  0.000437  3.573013  0.001
N  N177  1  0.19592295  0.21301475  0.70005918  1  -1.184251  -0.000587  -0.317553  -0.208803  -0.000755  3.592374  -0.001
N  N178  1  0.30417936  0.29985776  0.78695742  1  -1.183177  -0.000476  -0.317446  -0.208374  -0.000665  3.592227  -0.001
N  N179  1  0.80586879  0.78599076  0.30002407  1  -1.184601  0.000626  -0.309932  -0.19695  0.000434  3.572301  0.001
O  O180  1  0.62115204  0.87495252  0.25055946  1  -1.211468  0.00634  -0.340251  -0.638091  0.001903  2.411168  0.005
O  O181  1  0.10291695  0.25526638  0.88456074  1  -1.314866  0.093397  -0.346759  -0.673355  0.050838  2.342264  0.08
O  O182  1  0.39707907  0.11544966  0.74469517  1  -1.315019  0.093582  -0.346665  -0.673284  0.050942  2.344068  0.08
O  O183  1  0.87869742  0.74937126  0.12508439  1  -1.210602  0.006349  -0.34067  -0.638764  0.001912  2.411121  0.005
O  O184  1  0.53415006  0.96524412  0.37120631  1  -1.270438  0.106973  -0.365526  -0.684939  0.059661  2.499786  0.086
O  O185  1  0.02129975  0.37882707  0.97384036  1  -1.251197  0.178227  -0.37154  -0.683568  0.097348  2.496538  0.148
O  O186  1  0.47860933  0.02612130  0.62118437  1  -1.251564  0.177701  -0.37163  -0.683863  0.097099  2.497903  0.148
O  O187  1  0.96572234  0.62884169  0.03463177  1  -1.269323  0.106921  -0.365212  -0.685296  0.059654  2.499691  0.086
O  O188  1  0.62204364  0.04252829  0.23318034  1  -1.322483  0.011045  -0.349295  -0.615433  0.005524  2.123246  0.009
O  O189  1  0.11954723  0.24420712  0.04682595  1  -1.317512  0.026003  -0.358727  -0.626391  0.01319  2.107254  0.023
O  O190  1  0.38042199  0.95318722  0.75584105  1  -1.316756  0.026069  -0.358607  -0.626214  0.013228  2.106426  0.023
O  O191  1  0.87794129  0.76702688  0.95748128  1  -1.322068  0.01108  -0.349885  -0.616371  0.005542  2.123587  0.009
O  O192  1  0.69808887  0.83303773  0.07700286  1  -0.855649  0.19413  -0.313967  -0.337326  0.100787  2.289343  0.166
O  O193  1  0.19405253  0.07942410  0.83415958  1  -0.885857  0.214323  -0.328318  -0.362467  0.111048  2.290347  0.183
O  O194  1  0.30600600  0.16574441  0.92057136  1  -0.884249  0.213118  -0.328896  -0.363352  0.110339  2.28998  0.182
O  O195  1  0.80174747  0.92299810  0.16693581  1  -0.855998  0.194132  -0.313656  -0.337149  0.100758  2.289568  0.166
O  O196  1  0.46526752  0.98351071  0.23213227  1  -1.328468  0.020738  -0.366775  -0.634656  0.010867  2.074324  0.017
O  O197  1  0.95507744  0.23775461  0.00477970  1  -1.333905  0.045254  -0.377733  -0.646899  0.023826  2.060688  0.038
O  O198  1  0.54491305  0.99520307  0.76223491  1  -1.333847  0.045066  -0.377613  -0.646645  0.023725  2.061445  0.038
O  O199  1  0.03466450  0.76783944  0.01670625  1  -1.328793  0.020745  -0.366965  -0.635107  0.010867  2.073763  0.017
