# generated using pymatgen
data_AgH12C9S2O2F7
_symmetry_space_group_name_H-M   'P 1'
_cell_length_a   7.61101989
_cell_length_b   8.06498615
_cell_length_c   12.66242991
_cell_angle_alpha   78.26723766
_cell_angle_beta   74.95851644
_cell_angle_gamma   78.72372421
_symmetry_Int_Tables_number   1
_chemical_formula_structural   AgH12C9S2O2F7
_chemical_formula_sum   'Ag2 H24 C18 S4 O4 F14'
_cell_volume   726.51621425
_cell_formula_units_Z   2
loop_
 _symmetry_equiv_pos_site_id
 _symmetry_equiv_pos_as_xyz
  1  'x, y, z'
loop_
 _atom_site_type_symbol
 _atom_site_label
 _atom_site_symmetry_multiplicity
 _atom_site_fract_x
 _atom_site_fract_y
 _atom_site_fract_z
 _atom_site_occupancy
 _atom_site_hle17_bader_spin_density
 _atom_site_hle17_ddec_charge
 _atom_site_hle17_ddec_spin_density
 _atom_site_hle17_ddec_sum_bond_order
 _atom_site_hle17_magmom
 _atom_site_hse06_10hf_bader_spin_density
 _atom_site_hse06_10hf_ddec_charge
 _atom_site_hse06_10hf_ddec_spin_density
 _atom_site_hse06_10hf_ddec_sum_bond_order
 _atom_site_hse06_10hf_magmom
 _atom_site_hse06_bader_spin_density
 _atom_site_hse06_ddec_charge
 _atom_site_hse06_ddec_spin_density
 _atom_site_hse06_ddec_sum_bond_order
 _atom_site_hse06_magmom
 _atom_site_pbe_bader_spin_density
 _atom_site_pbe_cm5_charge
 _atom_site_pbe_ddec_charge
 _atom_site_pbe_ddec_spin_density
 _atom_site_pbe_ddec_sum_bond_order
 _atom_site_pbe_magmom
Ag  Ag0  1  0.57859526  0.78806102  0.02279496  1  0  0.342589  0  1.669733  0  0  0.229169  0  2.135041  0  0  0.252578  0  2.091722  0  0  0.361589  0.212735  0  2.165071  0
Ag  Ag1  1  0.42140431  0.21193743  0.97720540  1  0  0.342604  0  1.669723  0  0  0.229183  0  2.135027  0  0  0.252591  0  2.091709  0  0  0.361579  0.212732  0  2.165076  0
H  H2  1  0.97228222  0.82317179  0.11980094  1  0  0.106447  0  1.012368  0  0  0.116842  0  1.091465  0  0  0.118021  0  1.092491  0  0  0.079976  0.115922  0  1.090857  0
H  H3  1  0.02771715  0.17682795  0.88020007  1  0  0.106527  0  1.012404  0  0  0.116922  0  1.091477  0  0  0.1181  0  1.092504  0  0  0.080011  0.115999  0  1.090874  0
H  H4  1  0.13522147  0.83851091  0.19585840  1  0  0.147322  0  0.943846  0  0  0.16707  0  1.000232  0  0  0.168803  0  1.000104  0  0  0.09931  0.165715  0  1.000494  0
H  H5  1  0.86477791  0.16148883  0.80414340  1  0  0.147351  0  0.943838  0  0  0.167097  0  1.000224  0  0  0.16883  0  1.000096  0  0  0.099312  0.165741  0  1.000486  0
H  H6  1  0.16007032  0.65142922  0.13386209  1  0  0.136801  0  0.958514  0  0  0.153814  0  1.021084  0  0  0.155977  0  1.020191  0  0  0.093911  0.152114  0  1.021949  0
H  H7  1  0.83992926  0.34856924  0.86613906  1  0  0.136815  0  0.958509  0  0  0.153831  0  1.021072  0  0  0.155994  0  1.020179  0  0  0.093916  0.152131  0  1.021933  0
H  H8  1  0.06097263  0.83164557  0.90632608  1  0  0.09439  0  0.937441  0  0  0.110934  0  0.997925  0  0  0.111512  0  0.999042  0  0  0.095581  0.11041  0  0.997296  0
H  H9  1  0.93902945  0.16835419  0.09367371  1  0  0.094385  0  0.937426  0  0  0.110937  0  0.997905  0  0  0.111518  0  0.999021  0  0  0.095582  0.110411  0  0.997275  0
H  H10  1  0.26544325  0.90009807  0.81685724  1  0  0.108341  0  0.915993  0  0  0.124727  0  0.971577  0  0  0.125823  0  0.971945  0  0  0.100473  0.123813  0  0.971524  0
H  H11  1  0.73456000  0.09990298  0.18314377  1  0  0.108336  0  0.915977  0  0  0.124721  0  0.971567  0  0  0.125818  0  0.971935  0  0  0.10046  0.123803  0  0.971518  0
H  H12  1  0.26719550  0.55273524  0.97251046  1  0  0.075865  0  0.962778  0  0  0.097133  0  1.023294  0  0  0.098214  0  1.0227  0  0  0.086434  0.0962  0  1.023937  0
H  H13  1  0.73280794  0.44726452  0.02748989  1  0  0.075884  0  0.962754  0  0  0.097155  0  1.023275  0  0  0.098236  0  1.022682  0  0  0.086445  0.096222  0  1.023917  0
H  H14  1  0.44964881  0.62131689  0.86414156  1  0  0.072143  0  0.964127  0  0  0.088352  0  1.031698  0  0  0.089086  0  1.032282  0  0  0.084426  0.087713  0  1.031385  0
H  H15  1  0.55035327  0.37868286  0.13585822  1  0  0.072135  0  0.964188  0  0  0.088367  0  1.031747  0  0  0.089103  0  1.032327  0  0  0.084412  0.087724  0  1.031432  0
H  H16  1  0.25177219  0.62261128  0.72657994  1  0  0.102817  0  0.924615  0  0  0.119429  0  0.980025  0  0  0.120514  0  0.980041  0  0  0.096085  0.118506  0  0.980233  0
H  H17  1  0.74822559  0.37738973  0.27342037  1  0  0.102816  0  0.924672  0  0  0.119451  0  0.980043  0  0  0.120536  0  0.980062  0  0  0.096099  0.118531  0  0.980251  0
H  H18  1  0.07987838  0.54739554  0.84035984  1  0  0.104733  0  0.947807  0  0  0.121891  0  1.004916  0  0  0.12307  0  1.005319  0  0  0.09708  0.120942  0  1.004788  0
H  H19  1  0.92011943  0.45260548  0.15964205  1  0  0.104759  0  0.947774  0  0  0.121919  0  1.004875  0  0  0.123097  0  1.005277  0  0  0.097087  0.120972  0  1.004748  0
H  H20  1  0.51658292  0.42216919  0.62060709  1  0  0.126866  0  0.942698  0  0  0.14292  0  1.004988  0  0  0.144765  0  1.004027  0  0  0.08808  0.141485  0  1.005839  0
H  H21  1  0.48341456  0.57782540  0.37939254  1  0  0.126915  0  0.942649  0  0  0.142968  0  1.004941  0  0  0.144813  0  1.003977  0  0  0.08809  0.141522  0  1.005803  0
H  H22  1  0.62208917  0.22916545  0.69321648  1  0  0.150388  0  0.955168  0  0  0.168627  0  1.014698  0  0  0.170966  0  1.013369  0  0  0.096026  0.166835  0  1.015852  0
H  H23  1  0.37790562  0.77082913  0.30678517  1  0  0.150387  0  0.955111  0  0  0.168637  0  1.014621  0  0  0.170974  0  1.013295  0  0  0.096035  0.166846  0  1.01578  0
H  H24  1  0.62830065  0.43254564  0.72754878  1  0  0.12492  0  0.963789  0  0  0.142801  0  1.0282  0  0  0.143837  0  1.028862  0  0  0.089221  0.141942  0  1.027908  0
H  H25  1  0.37169796  0.56745024  0.27245049  1  0  0.12499  0  0.963642  0  0  0.142844  0  1.02809  0  0  0.14388  0  1.028753  0  0  0.089241  0.141985  0  1.027806  0
C  C26  1  0.75314348  0.79618615  0.78613677  1  0  0.538557  0  4.00759  0  0  0.48668  0  4.310051  0  0  0.518133  0  4.305193  0  0  0.176322  0.465369  0  4.312661  0
C  C27  1  0.24686126  0.20380593  0.21386438  1  0  0.53875  0  4.0075  0  0  0.486811  0  4.310038  0  0  0.518272  0  4.305171  0  0  0.176329  0.465495  0  4.312656  0
C  C28  1  0.85349867  0.76359277  0.66608321  1  0  0.324127  0  3.628623  0  0  0.281401  0  3.931004  0  0  0.29471  0  3.920834  0  0  0.188202  0.271441  0  3.939164  0
C  C29  1  0.14650116  0.23641210  0.33391548  1  0  0.323869  0  3.628543  0  0  0.281189  0  3.930902  0  0  0.294485  0  3.920733  0  0  0.188191  0.27121  0  3.939078  0
C  C30  1  0.73469909  0.83930442  0.57921942  1  0  0.281926  0  3.689386  0  0  0.221431  0  4.006093  0  0  0.235778  0  3.995334  0  0  0.189757  0.210949  0  4.014719  0
C  C31  1  0.26530160  0.16069532  0.42077901  1  0  0.282145  0  3.689109  0  0  0.22166  0  4.005791  0  0  0.236009  0  3.995031  0  0  0.189752  0.211188  0  4.014405  0
C  C32  1  0.80427156  0.77194669  0.46542201  1  0  0.687433  0  3.697369  0  0  0.603138  0  4.055734  0  0  0.633093  0  4.02878  0  0  0.295296  0.581313  0  4.07603  0
C  C33  1  0.19573139  0.22805563  0.53457492  1  0  0.687294  0  3.697624  0  0  0.602992  0  4.056001  0  0  0.632952  0  4.029042  0  0  0.295274  0.581197  0  4.076264  0
C  C34  1  0.11673356  0.79042949  0.12517705  1  0  -0.330882  0  3.594045  0  0  -0.404351  0  3.841894  0  0  -0.406454  0  3.850452  0  0  -0.23535  -0.402754  0  3.836304  0
C  C35  1  0.88326716  0.20957026  0.87482296  1  0  -0.331011  0  3.594139  0  0  -0.404485  0  3.841992  0  0  -0.406588  0  3.850548  0  0  -0.235405  -0.402885  0  3.836404  0
C  C36  1  0.21170557  0.81532944  0.89339192  1  0  -0.129196  0  3.596753  0  0  -0.162966  0  3.854543  0  0  -0.163474  0  3.868137  0  0  -0.146166  -0.162571  0  3.845227  0
C  C37  1  0.78829516  0.18467031  0.10660887  1  0  -0.129181  0  3.596702  0  0  -0.162937  0  3.854472  0  0  -0.163448  0  3.868071  0  0  -0.14615  -0.162538  0  3.845151  0
C  C38  1  0.29918344  0.62893553  0.88925130  1  0  -0.118573  0  3.730057  0  0  -0.162513  0  3.987819  0  0  -0.163791  0  4.002861  0  0  -0.181635  -0.161375  0  3.977373  0
C  C39  1  0.70081823  0.37106679  0.11074979  1  0  -0.118603  0  3.730151  0  0  -0.162604  0  3.987975  0  0  -0.163883  0  4.003015  0  0  -0.181643  -0.161453  0  3.977518  0
C  C40  1  0.22861784  0.55048789  0.81128357  1  0  -0.148745  0  3.622587  0  0  -0.183818  0  3.885611  0  0  -0.184504  0  3.8992  0  0  -0.154191  -0.183233  0  3.876157  0
C  C41  1  0.77138269  0.44951315  0.18871787  1  0  -0.148754  0  3.622717  0  0  -0.183809  0  3.885706  0  0  -0.184505  0  3.899318  0  0  -0.154209  -0.183237  0  3.876263  0
C  C42  1  0.54708855  0.35847234  0.70034252  1  0  -0.332183  0  3.608331  0  0  -0.408395  0  3.860565  0  0  -0.409672  0  3.869087  0  0  -0.236273  -0.407313  0  3.854784  0
C  C43  1  0.45290736  0.64152352  0.29965799  1  0  -0.332279  0  3.608081  0  0  -0.408489  0  3.860389  0  0  -0.409767  0  3.868917  0  0  -0.23632  -0.407403  0  3.854627  0
S  S44  1  0.25710503  0.90148844  0.00395618  1  0  0.048516  0  2.820517  0  0  0.095496  0  3.265919  0  0  0.090314  0  3.254812  0  0  -0.023029  0.098885  0  3.273727  0
S  S45  1  0.74289593  0.09851003  0.99604553  1  0  0.048509  0  2.820472  0  0  0.095489  0  3.26587  0  0  0.090307  0  3.254765  0  0  -0.023029  0.098877  0  3.273669  0
S  S46  1  0.33311904  0.33020600  0.80002573  1  0  0.070745  0  2.699644  0  0  0.110415  0  3.122705  0  0  0.103667  0  3.115661  0  0  -0.016479  0.11499  0  3.127523  0
S  S47  1  0.66687805  0.66979116  0.19997599  1  0  0.070738  0  2.699661  0  0  0.110405  0  3.122721  0  0  0.103658  0  3.115675  0  0  -0.01646  0.114989  0  3.127535  0
O  O48  1  0.76411021  0.66806539  0.86229870  1  0  -0.572569  0  2.031268  0  0  -0.519835  0  2.284575  0  0  -0.545849  0  2.274341  0  0  -0.327297  -0.501479  0  2.290978  0
O  O49  1  0.23589004  0.33193691  0.13769946  1  0  -0.572684  0  2.031153  0  0  -0.519932  0  2.284494  0  0  -0.545947  0  2.274245  0  0  -0.327298  -0.501566  0  2.290892  0
O  O50  1  0.67608790  0.94647037  0.79395800  1  0  -0.575749  0  1.97569  0  0  -0.542298  0  2.217286  0  0  -0.566273  0  2.209799  0  0  -0.322207  -0.52529  0  2.221764  0
O  O51  1  0.32390590  0.05353063  0.20604770  1  0  -0.575755  0  1.975815  0  0  -0.542283  0  2.217445  0  0  -0.566256  0  2.209953  0  0  -0.322171  -0.525274  0  2.221923  0
F  F52  1  0.01247759  0.83694727  0.63434205  1  0  -0.207557  0  1.187474  0  0  -0.172399  0  1.351683  0  0  -0.179521  0  1.33774  0  0  -0.110606  -0.167212  0  1.361495  0
F  F53  1  0.98751888  0.16306143  0.36565747  1  0  -0.207503  0  1.187471  0  0  -0.172362  0  1.351672  0  0  -0.179479  0  1.337729  0  0  -0.110636  -0.16717  0  1.361485  0
F  F54  1  0.90546201  0.59124597  0.66096150  1  0  -0.211222  0  1.218227  0  0  -0.173913  0  1.389276  0  0  -0.181813  0  1.376122  0  0  -0.10513  -0.168226  0  1.39855  0
F  F55  1  0.09454464  0.40875894  0.33903686  1  0  -0.211147  0  1.218137  0  0  -0.173851  0  1.389174  0  0  -0.181745  0  1.37602  0  0  -0.105116  -0.168159  0  1.398448  0
F  F56  1  0.56038779  0.79804585  0.62398069  1  0  -0.189433  0  1.196732  0  0  -0.145489  0  1.354828  0  0  -0.154059  0  1.342854  0  0  -0.096324  -0.139413  0  1.36318  0
F  F57  1  0.43961804  0.20194750  0.37601695  1  0  -0.189458  0  1.19663  0  0  -0.145532  0  1.354731  0  0  -0.154101  0  1.342756  0  0  -0.096294  -0.139454  0  1.36308  0
F  F58  1  0.72304071  0.01288385  0.55702463  1  0  -0.161891  0  1.24266  0  0  -0.135924  0  1.419845  0  0  -0.143351  0  1.406161  0  0  -0.09099  -0.130636  0  1.429446  0
F  F59  1  0.27695205  0.98711456  0.44297605  1  0  -0.161952  0  1.24261  0  0  -0.135982  0  1.419788  0  0  -0.143409  0  1.406104  0  0  -0.090995  -0.130694  0  1.429391  0
F  F60  1  0.71764491  0.87640715  0.39018079  1  0  -0.222314  0  1.195925  0  0  -0.196593  0  1.37328  0  0  -0.205694  0  1.356883  0  0  -0.093455  -0.190178  0  1.384871  0
F  F61  1  0.28235034  0.12359256  0.60981853  1  0  -0.222327  0  1.195986  0  0  -0.196602  0  1.373343  0  0  -0.205707  0  1.356948  0  0  -0.093456  -0.190192  0  1.384927  0
F  F62  1  0.98775515  0.77020271  0.42698893  1  0  -0.218675  0  1.1906  0  0  -0.181155  0  1.353755  0  0  -0.192624  0  1.339505  0  0  -0.087581  -0.171424  0  1.36224  0
F  F63  1  0.01224626  0.22980857  0.57300550  1  0  -0.218594  0  1.1907  0  0  -0.181071  0  1.353862  0  0  -0.192541  0  1.339614  0  0  -0.087595  -0.171376  0  1.362359  0
F  F64  1  0.76639704  0.61160776  0.47486746  1  0  -0.225952  0  1.192458  0  0  -0.192633  0  1.360235  0  0  -0.20179  0  1.343829  0  0  -0.091052  -0.186176  0  1.371856  0
F  F65  1  0.23361319  0.38839205  0.52513099  1  0  -0.225946  0  1.192553  0  0  -0.192628  0  1.360334  0  0  -0.201788  0  1.343928  0  0  -0.091041  -0.186174  0  1.371945  0
