# generated using pymatgen
data_NdH18C11SNO12
_symmetry_space_group_name_H-M   'P 1'
_cell_length_a   10.71936996
_cell_length_b   12.85268995
_cell_length_c   17.44481072
_cell_angle_alpha   110.67885561
_cell_angle_beta   89.99973213
_cell_angle_gamma   89.99978664
_symmetry_Int_Tables_number   1
_chemical_formula_structural   NdH18C11SNO12
_chemical_formula_sum   'Nd4 H72 C44 S4 N4 O48'
_cell_volume   2248.57764487
_cell_formula_units_Z   4
loop_
 _symmetry_equiv_pos_site_id
 _symmetry_equiv_pos_as_xyz
  1  'x, y, z'
loop_
 _atom_site_type_symbol
 _atom_site_label
 _atom_site_symmetry_multiplicity
 _atom_site_fract_x
 _atom_site_fract_y
 _atom_site_fract_z
 _atom_site_occupancy
 _atom_site_pbe_bader_charge
 _atom_site_pbe_bader_spin_density
 _atom_site_pbe_cm5_charge
 _atom_site_pbe_ddec_charge
 _atom_site_pbe_ddec_spin_density
 _atom_site_pbe_ddec_sum_bond_order
 _atom_site_pbe_magmom
Nd  Nd0  1  0.05201027  0.65894476  0.17522897  1  2.247382  0  1.479153  2.090063  0  2.077712  0
Nd  Nd1  1  0.55200883  0.84105638  0.32476575  1  2.247433  0  1.479166  2.090064  0  2.077647  0
Nd  Nd2  1  0.94799399  0.34105281  0.82476930  1  2.247356  0  1.479194  2.090141  0  2.077587  0
Nd  Nd3  1  0.44799356  0.15894286  0.67523296  1  2.247254  0  1.479197  2.090046  0  2.077755  0
H  H4  1  0.90476529  0.84535983  0.15153896  1  0.652706  0  0.337051  0.422143  0  0.859255  0
H  H5  1  0.40476263  0.65464931  0.34846551  1  0.652647  0  0.337115  0.422089  0  0.859318  0
H  H6  1  0.09523897  0.15464515  0.84846531  1  0.652627  0  0.337046  0.422094  0  0.859305  0
H  H7  1  0.59523324  0.34535067  0.65153856  1  0.65269  0  0.337098  0.422191  0  0.859202  0
H  H8  1  0.87672778  0.87028162  0.24653830  1  0.65785  0  0.303072  0.413309  0  0.919289  0
H  H9  1  0.37672688  0.62972598  0.25346698  1  0.657904  0  0.303139  0.413368  0  0.919206  0
H  H10  1  0.12327369  0.12972171  0.75346495  1  0.657861  0  0.303129  0.413377  0  0.919193  0
H  H11  1  0.62327552  0.37027316  0.74653744  1  0.658839  0  0.3031  0.413312  0  0.91928  0
H  H12  1  0.28847351  0.79691616  0.16874677  1  0.661543  0  0.301545  0.407094  0  0.929611  0
H  H13  1  0.78847357  0.70308862  0.33125570  1  0.661492  0  0.301558  0.407157  0  0.929511  0
H  H14  1  0.71153261  0.20308047  0.83125754  1  0.661659  0  0.301589  0.407094  0  0.929565  0
H  H15  1  0.21152976  0.29691300  0.66874995  1  0.661653  0  0.301573  0.407137  0  0.929558  0
H  H16  1  0.17554588  0.88147386  0.19561514  1  0.643015  0  0.319728  0.419749  0  0.880786  0
H  H17  1  0.67554651  0.61853062  0.30438988  1  0.643078  0  0.319753  0.419753  0  0.880776  0
H  H18  1  0.82446585  0.11852773  0.80439223  1  0.643011  0  0.319681  0.419643  0  0.88092  0
H  H19  1  0.32445309  0.38147434  0.69561553  1  0.64298  0  0.319733  0.419776  0  0.880747  0
H  H20  1  0.93062516  0.61084381  0.00381826  1  0.652651  0  0.307498  0.410882  0  0.909145  0
H  H21  1  0.43062688  0.88915524  0.49618227  1  0.652658  0  0.307487  0.410842  0  0.909219  0
H  H22  1  0.06937723  0.38914955  0.99618174  1  0.653072  0  0.307509  0.41086  0  0.909179  0
H  H23  1  0.56937366  0.11085149  0.50381788  1  0.653027  0  0.307521  0.410905  0  0.909146  0
H  H24  1  0.05887600  0.66759455  0.99747379  1  0.655251  0  0.30991  0.425984  0  0.887773  0
H  H25  1  0.55887705  0.83240331  0.50252268  1  0.655274  0  0.309908  0.426001  0  0.887759  0
H  H26  1  0.94112640  0.33240219  0.00252425  1  0.65539  0  0.309896  0.425916  0  0.887868  0
H  H27  1  0.44112068  0.16759919  0.49748035  1  0.655294  0  0.309896  0.42597  0  0.887789  0
H  H28  1  0.76672489  0.66365646  0.16139511  1  0.644309  0  0.302464  0.403  0  0.934541  0
H  H29  1  0.26672710  0.83633601  0.33860069  1  0.644321  0  0.302446  0.402967  0  0.934567  0
H  H30  1  0.23327751  0.33633526  0.83860330  1  0.644166  0  0.30246  0.40304  0  0.934467  0
H  H31  1  0.73327530  0.16365652  0.66139909  1  0.644345  0  0.302439  0.402937  0  0.934608  0
H  H32  1  0.79951903  0.54673541  0.16651816  1  0.64814  0  0.296427  0.392622  0  0.953695  0
H  H33  1  0.29951330  0.95326519  0.33348087  1  0.648126  0  0.296411  0.392593  0  0.953731  0
H  H34  1  0.20048709  0.45326045  0.83348251  1  0.648191  0  0.296411  0.392585  0  0.953744  0
H  H35  1  0.70048536  0.04673231  0.66652138  1  0.648075  0  0.296422  0.392593  0  0.953703  0
H  H36  1  0.93321857  0.51424472  0.31262267  1  0.082031  0  0.12617  0.048493  0  0.993111  0
H  H37  1  0.43322221  0.98575683  0.18737738  1  0.082018  0  0.126163  0.048453  0  0.993167  0
H  H38  1  0.06677636  0.48575783  0.68737807  1  0.082084  0  0.126191  0.048501  0  0.993157  0
H  H39  1  0.56678112  0.01423996  0.81261780  1  0.082203  0  0.126206  0.048538  0  0.993019  0
H  H40  1  0.09454255  0.21068078  0.20810570  1  0.097255  0  0.106199  0.127812  0  1.009886  0
H  H41  1  0.59454159  0.28931917  0.29189433  1  0.097267  0  0.106207  0.127816  0  1.00991  0
H  H42  1  0.90545332  0.78931931  0.79189209  1  0.097295  0  0.10618  0.127766  0  1.009863  0
H  H43  1  0.40544215  0.71067934  0.70809845  1  0.097552  0  0.106179  0.127767  0  1.009743  0
H  H44  1  0.97575037  0.22156947  0.13782159  1  0.102846  0  0.106466  0.125873  0  0.990419  0
H  H45  1  0.47574705  0.27843018  0.36217672  1  0.102808  0  0.106455  0.125864  0  0.99043  0
H  H46  1  0.02424270  0.77843312  0.86217688  1  0.102906  0  0.106498  0.125886  0  0.990428  0
H  H47  1  0.52423575  0.72156590  0.63781140  1  0.102856  0  0.10648  0.125884  0  0.990303  0
H  H48  1  0.11076923  0.30829143  0.15603250  1  0.068402  0  0.112979  0.134849  0  0.986574  0
H  H49  1  0.61076551  0.19170934  0.34396370  1  0.06848  0  0.113002  0.134887  0  0.986624  0
H  H50  1  0.88922477  0.69171118  0.84396483  1  0.068641  0  0.112992  0.134839  0  0.986593  0
H  H51  1  0.38922289  0.80829751  0.65603017  1  0.068438  0  0.11293  0.134851  0  0.986676  0
H  H52  1  0.96764361  0.27136683  0.33691549  1  0.082558  0  0.09993  0.122476  0  1.029463  0
H  H53  1  0.46764390  0.22863368  0.16308364  1  0.082505  0  0.09996  0.122573  0  1.029502  0
H  H54  1  0.03235599  0.72863737  0.66308570  1  0.082538  0  0.099958  0.122578  0  1.029468  0
H  H55  1  0.53235197  0.77135571  0.83690497  1  0.082641  0  0.099977  0.122652  0  1.029332  0
H  H56  1  0.86393198  0.38661790  0.35300057  1  0.07357  0  0.109924  0.120887  0  0.985119  0
H  H57  1  0.36393196  0.11338315  0.14699900  1  0.073632  0  0.109885  0.120864  0  0.985099  0
H  H58  1  0.13606855  0.61338630  0.64700062  1  0.073629  0  0.109912  0.120898  0  0.985136  0
H  H59  1  0.63606764  0.88660620  0.85299190  1  0.073925  0  0.109959  0.12091  0  0.984959  0
H  H60  1  0.83355672  0.25866643  0.27147534  1  0.081592  0  0.10557  0.128402  0  1.004842  0
H  H61  1  0.33355925  0.24133642  0.22852594  1  0.081548  0  0.105533  0.12838  0  1.004864  0
H  H62  1  0.16643915  0.74133608  0.72852712  1  0.081578  0  0.105563  0.128432  0  1.00485  0
H  H63  1  0.66643475  0.75865548  0.77146277  1  0.081326  0  0.105593  0.128495  0  1.00492  0
H  H64  1  0.84283156  0.75818183  0.46088198  1  0.148929  0  0.116004  0.122507  0  1.015991  0
H  H65  1  0.34283273  0.74182688  0.03911796  1  0.149087  0  0.115991  0.122503  0  1.015904  0
H  H66  1  0.15716897  0.24182155  0.53911842  1  0.149114  0  0.115974  0.122471  0  1.015987  0
H  H67  1  0.65718272  0.25818144  0.96088663  1  0.149159  0  0.115987  0.122455  0  1.015945  0
H  H68  1  0.01242509  0.98097274  0.68113504  1  0.129569  0  0.112376  0.118083  0  1.021567  0
H  H69  1  0.51241672  0.51901780  0.81886361  1  0.129545  0  0.112413  0.118049  0  1.021578  0
H  H70  1  0.98757078  0.01903648  0.31886635  1  0.129539  0  0.112378  0.118122  0  1.021505  0
H  H71  1  0.48758195  0.48097889  0.18113729  1  0.129542  0  0.112408  0.118064  0  1.021513  0
H  H72  1  0.21197986  0.88989843  0.45320224  1  0.141941  0  0.113917  0.118916  0  1.051554  0
H  H73  1  0.71197596  0.61009851  0.04679376  1  0.141913  0  0.113889  0.118873  0  1.051576  0
H  H74  1  0.78801601  0.11011495  0.54679970  1  0.14208  0  0.113844  0.118782  0  1.051647  0
H  H75  1  0.28802457  0.38988822  0.95320388  1  0.142059  0  0.113886  0.118875  0  1.051585  0
C  C76  1  0.23286769  0.01413495  0.60834106  1  1.551909  0  0.210223  0.590738  0  4.189269  0
C  C77  1  0.73286324  0.48585608  0.89165712  1  1.551863  0  0.210152  0.590771  0  4.18915  0
C  C78  1  0.76712631  0.98587851  0.39165689  1  1.551394  0  0.210278  0.590899  0  4.189164  0
C  C79  1  0.26713542  0.51413230  0.10834154  1  1.551935  0  0.210233  0.590889  0  4.188908  0
C  C80  1  0.98549809  0.45822346  0.25976996  1  1.39859  0  0.18649  0.33334  0  4.104577  0
C  C81  1  0.48549954  0.04177119  0.24022468  1  1.39842  0  0.186521  0.33345  0  4.10445  0
C  C82  1  0.01449871  0.54177409  0.74023001  1  1.398548  0  0.186518  0.333394  0  4.104469  0
C  C83  1  0.51449632  0.95821735  0.75976485  1  1.398697  0  0.186543  0.333347  0  4.104404  0
C  C84  1  0.04491740  0.26711630  0.18397783  1  0.22626  0  -0.131872  -0.268909  0  3.859478  0
C  C85  1  0.54491744  0.23288556  0.31602287  1  0.226182  0  -0.131892  -0.2689  0  3.859512  0
C  C86  1  0.95507754  0.73288707  0.81602314  1  0.225845  0  -0.131874  -0.268816  0  3.859391  0
C  C87  1  0.45507843  0.76711958  0.68397285  1  0.225771  0  -0.131785  -0.26888  0  3.859553  0
C  C88  1  0.90748431  0.31432950  0.30676433  1  0.24651  0  -0.132846  -0.282727  0  3.898965  0
C  C89  1  0.40748363  0.18567636  0.19323355  1  0.246459  0  -0.132788  -0.282759  0  3.89894  0
C  C90  1  0.09251435  0.68567388  0.69323607  1  0.246474  0  -0.132864  -0.282946  0  3.89911  0
C  C91  1  0.59251690  0.81431061  0.80675040  1  0.246223  0  -0.132955  -0.283104  0  3.899026  0
C  C92  1  0.91931673  0.86621067  0.57533971  1  -0.254753  0  -0.014162  -0.082754  0  3.962451  0
C  C93  1  0.41932011  0.63379358  0.92466090  1  -0.255248  0  -0.014223  -0.082908  0  3.96244  0
C  C94  1  0.08068007  0.13379268  0.42466240  1  -0.255188  0  -0.014263  -0.082967  0  3.962594  0
C  C95  1  0.58068882  0.36621226  0.07534245  1  -0.254817  0  -0.014198  -0.082819  0  3.962484  0
C  C96  1  0.03519028  0.75805651  0.35614432  1  1.505544  0  0.212969  0.590141  0  4.188646  0
C  C97  1  0.53519252  0.74194466  0.14385389  1  1.505648  0  0.213002  0.590174  0  4.188561  0
C  C98  1  0.96481212  0.24194683  0.64385836  1  1.505037  0  0.212913  0.589985  0  4.188741  0
C  C99  1  0.46482014  0.25805035  0.85614770  1  1.504983  0  0.212925  0.589897  0  4.188715  0
C  C100  1  0.92312244  0.80775077  0.49109756  1  0.003404  0  -0.064955  -0.082932  0  3.907767  0
C  C101  1  0.42312312  0.69225671  0.00890068  1  0.003633  0  -0.064909  -0.082881  0  3.907629  0
C  C102  1  0.07687716  0.19225259  0.50890398  1  0.003591  0  -0.06492  -0.082881  0  3.907752  0
C  C103  1  0.57688674  0.30775001  0.99110004  1  0.002855  0  -0.06499  -0.083  0  3.907745  0
C  C104  1  0.02923983  0.81537829  0.44652257  1  0.006022  0  -0.01683  -0.038806  0  3.990296  0
C  C105  1  0.52924395  0.68462466  0.05347097  1  0.00609  0  -0.016719  -0.038599  0  3.990222  0
C  C106  1  0.97075977  0.18462843  0.55347815  1  0.006457  0  -0.016765  -0.038581  0  3.990332  0
C  C107  1  0.47076965  0.31537460  0.94652659  1  0.006232  0  -0.016651  -0.038416  0  3.990108  0
C  C108  1  0.01882973  0.93356144  0.61574998  1  0.064582  0  -0.066382  -0.085913  0  3.909073  0
C  C109  1  0.51882626  0.56643656  0.88425008  1  0.064343  0  -0.066373  -0.085815  0  3.909074  0
C  C110  1  0.98116613  0.06645026  0.38425266  1  0.064915  0  -0.066357  -0.085896  0  3.909074  0
C  C111  1  0.48117614  0.43356098  0.11574989  1  0.064756  0  -0.066309  -0.085755  0  3.909004  0
C  C112  1  0.12499098  0.94043734  0.57086783  1  -0.073387  0  -0.013518  -0.030837  0  3.973004  0
C  C113  1  0.62498439  0.55956177  0.92913223  1  -0.073045  0  -0.013544  -0.030827  0  3.973054  0
C  C114  1  0.87499836  0.05957856  0.42913307  1  -0.072951  0  -0.013441  -0.03079  0  3.97274  0
C  C115  1  0.37501520  0.44043325  0.07086879  1  -0.073087  0  -0.013662  -0.031055  0  3.97307  0
C  C116  1  0.12989937  0.88080761  0.48685534  1  -0.023847  0  -0.068831  -0.090371  0  3.900459  0
C  C117  1  0.62989941  0.61919471  0.01314349  1  -0.023879  0  -0.068903  -0.090481  0  3.900686  0
C  C118  1  0.87009463  0.11920574  0.51314831  1  -0.024997  0  -0.06884  -0.090402  0  3.90024  0
C  C119  1  0.37010672  0.38079867  0.98685537  1  -0.024408  0  -0.068819  -0.090389  0  3.900389  0
S  S120  1  0.78436365  0.85232786  0.63159197  1  3.214827  0  0.509707  1.164849  0  6.228276  0
S  S121  1  0.28436460  0.64767125  0.86840821  1  3.214839  0  0.509782  1.164948  0  6.227934  0
S  S122  1  0.21563688  0.14767133  0.36840959  1  3.214979  0  0.50973  1.164855  0  6.22823  0
S  S123  1  0.71564060  0.35233205  0.13159675  1  3.214602  0  0.509597  1.164646  0  6.228224  0
N  N124  1  0.98231346  0.35171297  0.25181321  1  -1.191812  0  -0.270033  0.051907  0  3.706589  0
N  N125  1  0.48231346  0.14828830  0.24818609  1  -1.191611  0  -0.27009  0.05175  0  3.706332  0
N  N126  1  0.01768334  0.64828959  0.74818640  1  -1.191652  0  -0.270089  0.051921  0  3.706331  0
N  N127  1  0.51767961  0.85170277  0.75180240  1  -1.191706  0  -0.270085  0.051994  0  3.706783  0
O  O128  1  0.22380795  0.08911918  0.67965813  1  -1.193649  0  -0.351489  -0.61954  0  2.278481  0
O  O129  1  0.72380904  0.41086933  0.82034284  1  -1.193742  0  -0.351452  -0.619574  0  2.2786  0
O  O130  1  0.77619258  0.91089168  0.32034485  1  -1.193508  0  -0.351482  -0.619528  0  2.278533  0
O  O131  1  0.27619056  0.58912074  0.17965456  1  -1.193645  0  -0.351485  -0.619582  0  2.278394  0
O  O132  1  0.94104056  0.84218105  0.20177599  1  -1.295115  0  -0.624109  -0.835756  0  2.010028  0
O  O133  1  0.44103733  0.65782127  0.29822540  1  -1.295145  0  -0.624231  -0.835749  0  2.010089  0
O  O134  1  0.05896091  0.15781981  0.79822545  1  -1.295054  0  -0.624158  -0.835778  0  2.010062  0
O  O135  1  0.55895760  0.34217955  0.70177833  1  -1.296092  0  -0.624182  -0.835816  0  2.01002  0
O  O136  1  0.33378704  0.00419470  0.56726207  1  -1.184847  0  -0.36219  -0.629227  0  2.240885  0
O  O137  1  0.83378411  0.49580155  0.93274124  1  -1.184772  0  -0.362173  -0.629294  0  2.240663  0
O  O138  1  0.66620416  0.99581878  0.43273473  1  -1.184564  0  -0.36225  -0.629366  0  2.24078  0
O  O139  1  0.16621643  0.50418680  0.06725856  1  -1.184764  0  -0.362179  -0.629286  0  2.240571  0
O  O140  1  0.19668361  0.80505302  0.16162639  1  -1.288542  0  -0.637128  -0.843767  0  1.992045  0
O  O141  1  0.69668179  0.69495225  0.33837534  1  -1.288528  0  -0.637146  -0.843806  0  1.99209  0
O  O142  1  0.80332438  0.19494775  0.83838019  1  -1.28866  0  -0.637106  -0.843635  0  1.992275  0
O  O143  1  0.30331968  0.30505021  0.66162997  1  -1.288575  0  -0.637159  -0.843864  0  1.992088  0
O  O144  1  0.99145965  0.66716771  0.03616449  1  -1.287021  0  -0.629283  -0.855279  0  1.9486  0
O  O145  1  0.49146185  0.83283441  0.46383326  1  -1.287026  0  -0.629246  -0.855229  0  1.948595  0
O  O146  1  0.00854461  0.33282733  0.96383538  1  -1.28752  0  -0.629288  -0.855205  0  1.948691  0
O  O147  1  0.50854147  0.16717065  0.53616701  1  -1.287368  0  -0.629284  -0.855272  0  1.948553  0
O  O148  1  0.77509022  0.96084763  0.70064607  1  -1.345087  0  -0.347539  -0.631353  0  2.209139  0
O  O149  1  0.27508657  0.53914977  0.79935884  1  -1.345064  0  -0.347613  -0.631399  0  2.209217  0
O  O150  1  0.22490845  0.03915067  0.29935812  1  -1.345054  0  -0.347568  -0.631372  0  2.209247  0
O  O151  1  0.72491396  0.46085350  0.20064784  1  -1.345258  0  -0.34754  -0.631306  0  2.209081  0
O  O152  1  0.04345308  0.49514084  0.21201352  1  -1.204323  0  -0.396822  -0.582835  0  2.396276  0
O  O153  1  0.54345994  0.00486200  0.28797998  1  -1.204154  0  -0.39679  -0.582785  0  2.396246  0
O  O154  1  0.95654185  0.50486088  0.78798643  1  -1.204387  0  -0.3968  -0.582859  0  2.396234  0
O  O155  1  0.45653779  0.99513735  0.71201245  1  -1.204386  0  -0.39688  -0.582858  0  2.396246  0
O  O156  1  0.81039699  0.75993862  0.65927298  1  -1.322465  0  -0.344732  -0.59422  0  2.16586  0
O  O157  1  0.31039401  0.74005878  0.84072151  1  -1.322446  0  -0.344685  -0.594189  0  2.165719  0
O  O158  1  0.18960633  0.24005811  0.34072563  1  -1.322543  0  -0.344735  -0.594209  0  2.165852  0
O  O159  1  0.68960558  0.25994537  0.15928254  1  -1.322298  0  -0.344692  -0.594166  0  2.165779  0
O  O160  1  0.67962828  0.83344932  0.57438515  1  -1.351611  0  -0.336212  -0.608164  0  2.214064  0
O  O161  1  0.17962871  0.66655777  0.92562033  1  -1.351649  0  -0.336255  -0.608215  0  2.213909  0
O  O162  1  0.32036852  0.16655233  0.42561879  1  -1.351657  0  -0.336163  -0.60806  0  2.213976  0
O  O163  1  0.82037836  0.33344711  0.07438964  1  -1.351439  0  -0.336143  -0.608036  0  2.214002  0
O  O164  1  0.83486899  0.60734993  0.14919902  1  -1.289998  0  -0.669321  -0.868874  0  2.091374  0
O  O165  1  0.33487273  0.89264632  0.35079932  1  -1.290082  0  -0.669315  -0.868861  0  2.09142  0
O  O166  1  0.16513434  0.39264180  0.85079882  1  -1.289913  0  -0.669317  -0.868874  0  2.091282  0
O  O167  1  0.66513154  0.10734873  0.64919999  1  -1.289981  0  -0.669304  -0.868789  0  2.091444  0
O  O168  1  0.93922594  0.71013020  0.31573960  1  -1.194294  0  -0.344148  -0.62067  0  2.318404  0
O  O169  1  0.43922487  0.78987384  0.18425996  1  -1.194251  0  -0.344163  -0.620706  0  2.318392  0
O  O170  1  0.06077365  0.28987316  0.68426251  1  -1.19382  0  -0.344156  -0.620614  0  2.318459  0
O  O171  1  0.56078313  0.21012117  0.81574162  1  -1.193875  0  -0.344189  -0.620595  0  2.318386  0
O  O172  1  0.13745017  0.75722181  0.31774511  1  -1.188488  0  -0.363404  -0.631216  0  2.268321  0
O  O173  1  0.63745118  0.74277045  0.18225386  1  -1.188505  0  -0.363417  -0.631265  0  2.26834  0
O  O174  1  0.86255223  0.24277484  0.68225807  1  -1.188495  0  -0.363397  -0.631185  0  2.268266  0
O  O175  1  0.36255681  0.25721872  0.81774730  1  -1.188242  0  -0.363372  -0.631172  0  2.268352  0
