# generated using pymatgen
data_Cu2H20C17S(IN2)2
_symmetry_space_group_name_H-M   'P 1'
_cell_length_a   9.89577809
_cell_length_b   9.89578320
_cell_length_c   11.10815467
_cell_angle_alpha   76.63383916
_cell_angle_beta   76.63389466
_cell_angle_gamma   85.21296468
_symmetry_Int_Tables_number   1
_chemical_formula_structural   Cu2H20C17S(IN2)2
_chemical_formula_sum   'Cu4 H40 C34 S2 I4 N8'
_cell_volume   1029.13269671
_cell_formula_units_Z   2
loop_
 _symmetry_equiv_pos_site_id
 _symmetry_equiv_pos_as_xyz
  1  'x, y, z'
loop_
 _atom_site_type_symbol
 _atom_site_label
 _atom_site_symmetry_multiplicity
 _atom_site_fract_x
 _atom_site_fract_y
 _atom_site_fract_z
 _atom_site_occupancy
 _atom_site_pbe_bader_spin_density
 _atom_site_pbe_cm5_charge
 _atom_site_pbe_ddec_charge
 _atom_site_pbe_ddec_spin_density
 _atom_site_pbe_ddec_sum_bond_order
 _atom_site_pbe_magmom
Cu  Cu0  1  0.15231960  0.37128557  0.32022704  1  0  0.283504  0.164372  0  2.792761  0
Cu  Cu1  1  0.37128736  0.15232143  0.82022619  1  0  0.283518  0.164403  0  2.792783  0
Cu  Cu2  1  0.27019501  0.17389670  0.22756014  1  0  0.276793  0.133393  0  2.767352  0
Cu  Cu3  1  0.17389613  0.27019586  0.72756162  1  0  0.276791  0.13339  0  2.767338  0
H  H4  1  0.19466099  0.69508303  0.96632119  1  0  0.08434  0.09659  0  1.027146  0
H  H5  1  0.69508368  0.19466166  0.46632047  1  0  0.084334  0.096563  0  1.027125  0
H  H6  1  0.17820504  0.51715844  0.96489940  1  0  0.087006  0.110029  0  1.036629  0
H  H7  1  0.51715885  0.17820387  0.46489993  1  0  0.086974  0.109968  0  1.036663  0
H  H8  1  0.22820162  0.55825531  0.09565708  1  0  0.089963  0.107178  0  1.072561  0
H  H9  1  0.55825483  0.22820163  0.59565712  1  0  0.089967  0.107151  0  1.072563  0
H  H10  1  0.90360177  0.57980905  0.95813700  1  0  0.1016  0.084868  0  1.005286  0
H  H11  1  0.57981067  0.90360086  0.45813782  1  0  0.10158  0.084857  0  1.005306  0
H  H12  1  0.93551253  0.75317903  0.96242820  1  0  0.098456  0.076567  0  1.013667  0
H  H13  1  0.75317903  0.93551264  0.46242921  1  0  0.098457  0.076569  0  1.013666  0
H  H14  1  0.71490946  0.74425100  0.10860170  1  0  0.101252  0.083654  0  1.017061  0
H  H15  1  0.74425185  0.71490966  0.60860219  1  0  0.10124  0.08362  0  1.017075  0
H  H16  1  0.71612473  0.55853461  0.14122955  1  0  0.095002  0.073452  0  1.006627  0
H  H17  1  0.55853466  0.71612423  0.64123116  1  0  0.094995  0.073416  0  1.006635  0
H  H18  1  0.70577820  0.49098036  0.37211760  1  0  0.093828  0.104081  0  0.999626  0
H  H19  1  0.49097754  0.70577892  0.87211772  1  0  0.093842  0.104097  0  0.999619  0
H  H20  1  0.65058529  0.66809792  0.36775997  1  0  0.102219  0.119667  0  1.001532  0
H  H21  1  0.66809681  0.65058549  0.86775995  1  0  0.102216  0.119675  0  1.001529  0
H  H22  1  0.79231842  0.59840991  0.43858750  1  0  0.10386  0.117562  0  1.035644  0
H  H23  1  0.59840855  0.79231857  0.93858655  1  0  0.103856  0.11757  0  1.035646  0
H  H24  1  0.98842920  0.83394350  0.30649889  1  0  0.095648  0.10365  0  1.021203  0
H  H25  1  0.83394191  0.98842771  0.80649924  1  0  0.095653  0.103664  0  1.021198  0
H  H26  1  0.97796901  0.94101398  0.48698886  1  0  0.087887  0.085442  0  1.03585  0
H  H27  1  0.94101316  0.97796761  0.98698999  1  0  0.087847  0.085363  0  1.03581  0
H  H28  1  0.01306695  0.79573835  0.69536277  1  0  0.086419  0.095127  0  1.035612  0
H  H29  1  0.79573624  0.01306628  0.19536393  1  0  0.086405  0.095095  0  1.035579  0
H  H30  1  0.07358870  0.54308800  0.71224088  1  0  0.087256  0.095339  0  1.059469  0
H  H31  1  0.54308614  0.07358740  0.21224107  1  0  0.087258  0.095347  0  1.059484  0
H  H32  1  0.86418136  0.33558479  0.53710580  1  0  0.100904  0.124681  0  0.997527  0
H  H33  1  0.33558410  0.86418059  0.03710427  1  0  0.100901  0.124644  0  0.997559  0
H  H34  1  0.95235019  0.18174990  0.60369449  1  0  0.103565  0.133693  0  0.978422  0
H  H35  1  0.18174752  0.95234796  0.10369439  1  0  0.103558  0.133659  0  0.978444  0
H  H36  1  0.58187518  0.39151757  0.93463650  1  0  0.092899  0.093007  0  1.032386  0
H  H37  1  0.39151747  0.58187462  0.43463496  1  0  0.092901  0.092995  0  1.032401  0
H  H38  1  0.75205209  0.35029266  0.07796825  1  0  0.095127  0.102035  0  1.032484  0
H  H39  1  0.35029312  0.75205341  0.57796747  1  0  0.095131  0.102059  0  1.032466  0
H  H40  1  0.00088050  0.29895530  0.98776859  1  0  0.098779  0.075482  0  1.039632  0
H  H41  1  0.29895459  0.00088047  0.48776730  1  0  0.098793  0.07549  0  1.039639  0
H  H42  1  0.66766193  0.36729829  0.71053949  1  0  0.089917  0.107723  0  1.044396  0
H  H43  1  0.36729630  0.66766253  0.21053895  1  0  0.089911  0.107699  0  1.044408  0
C  C44  1  0.97427310  0.60213305  0.21596737  1  0  0.344258  0.399732  0  4.097855  0
C  C45  1  0.60213319  0.97427417  0.71596763  1  0  0.344217  0.399705  0  4.097801  0
C  C46  1  0.16282744  0.59229764  0.02623188  1  0  -0.143656  -0.257442  0  3.926738  0
C  C47  1  0.59229768  0.16282706  0.52623194  1  0  -0.143609  -0.257251  0  3.926651  0
C  C48  1  0.91100391  0.64838825  0.02110302  1  0  -0.052164  -0.069265  0  3.860981  0
C  C49  1  0.64838843  0.91100243  0.52110385  1  0  -0.052166  -0.069279  0  3.861111  0
C  C50  1  0.78014614  0.64964834  0.12640397  1  0  -0.055446  -0.073987  0  3.872559  0
C  C51  1  0.64964907  0.78014556  0.62640366  1  0  -0.055394  -0.073848  0  3.872556  0
C  C52  1  0.74172623  0.59673758  0.36128607  1  0  -0.134546  -0.246476  0  3.911442  0
C  C53  1  0.59673636  0.74172638  0.86128511  1  0  -0.134554  -0.246513  0  3.911451  0
C  C54  1  0.03596283  0.62569411  0.40401894  1  0  0.089442  0.210229  0  4.075398  0
C  C55  1  0.62569302  0.03596412  0.90401987  1  0  0.089435  0.210215  0  4.075385  0
C  C56  1  0.00407556  0.76901238  0.39634687  1  0  -0.106796  -0.192465  0  3.972033  0
C  C57  1  0.76901114  0.00407615  0.89634805  1  0  -0.106771  -0.192478  0  3.971979  0
C  C58  1  0.99670691  0.82882386  0.49933724  1  0  -0.093493  -0.056994  0  4.036593  0
C  C59  1  0.82882231  0.99670686  0.99933908  1  0  -0.093528  -0.056977  0  4.036525  0
C  C60  1  0.01737854  0.74803028  0.61534275  1  0  -0.11143  -0.112901  0  4.029921  0
C  C61  1  0.74802836  0.01737722  0.11534398  1  0  -0.111363  -0.112775  0  4.029883  0
C  C62  1  0.05088006  0.60708839  0.62494981  1  0  -0.100728  -0.107504  0  4.02253  0
C  C63  1  0.60708625  0.05088005  0.12494983  1  0  -0.100743  -0.107565  0  4.022676  0
C  C64  1  0.06133841  0.54636119  0.52100365  1  0  -0.031308  -0.046166  0  3.916265  0
C  C65  1  0.54635999  0.06133875  0.02100517  1  0  -0.031289  -0.046164  0  3.916462  0
C  C66  1  0.93411715  0.29367302  0.60122568  1  0  -0.147391  -0.264803  0  3.88315  0
C  C67  1  0.29367276  0.93411674  0.10122482  1  0  -0.14731  -0.264554  0  3.883058  0
C  C68  1  0.87878799  0.31878525  0.73205617  1  0  0.107063  0.2518  0  3.947464  0
C  C69  1  0.31878493  0.87878726  0.23205453  1  0  0.106966  0.251511  0  3.94759  0
C  C70  1  0.69137311  0.36709424  0.89919182  1  0  -0.07294  -0.027486  0  3.975706  0
C  C71  1  0.36709417  0.69137254  0.39919201  1  0  -0.072942  -0.027477  0  3.975671  0
C  C72  1  0.78527394  0.34571205  0.97833777  1  0  -0.088693  -0.132762  0  3.992472  0
C  C73  1  0.34571240  0.78527495  0.47833659  1  0  -0.088694  -0.132786  0  3.992492  0
C  C74  1  0.92415142  0.31528905  0.92879619  1  0  0.040184  0.094129  0  3.933626  0
C  C75  1  0.31528830  0.92415051  0.42879556  1  0  0.040191  0.09413  0  3.933642  0
C  C76  1  0.73947502  0.35404733  0.77382826  1  0  -0.088908  -0.161936  0  3.923991  0
C  C77  1  0.35404612  0.73947442  0.27382957  1  0  -0.088893  -0.161851  0  3.923985  0
S  S78  1  0.10636118  0.36623273  0.53267890  1  0  -0.038149  0.095831  0  3.566316  0
S  S79  1  0.36623143  0.10635936  0.03267808  1  0  -0.038196  0.095759  0  3.566332  0
I  I80  1  0.42465463  0.36727818  0.24071764  1  0  -0.207186  -0.368273  0  1.836632  0
I  I81  1  0.36727965  0.42465500  0.74071792  1  0  -0.207192  -0.368293  0  1.83665  0
I  I82  1  0.99781506  0.20514839  0.26088298  1  0  -0.218357  -0.371649  0  1.765893  0
I  I83  1  0.20514762  0.99781696  0.76088306  1  0  -0.218352  -0.371646  0  1.765885  0
N  N84  1  0.05432189  0.56554100  0.29991655  1  0  -0.4094  -0.444926  0  3.625148  0
N  N85  1  0.56554084  0.05432238  0.79991651  1  0  -0.409383  -0.444881  0  3.625106  0
N  N86  1  0.01898837  0.59804433  0.09194847  1  0  -0.283584  -0.064971  0  3.648494  0
N  N87  1  0.59804527  0.01898691  0.59194863  1  0  -0.283596  -0.065092  0  3.648584  0
N  N88  1  0.83586106  0.64207015  0.23942523  1  0  -0.292608  -0.105524  0  3.593757  0
N  N89  1  0.64206995  0.83586005  0.73942518  1  0  -0.292596  -0.105521  0  3.593703  0
N  N90  1  0.97068547  0.30289312  0.80813963  1  0  -0.360391  -0.233781  0  3.606792  0
N  N91  1  0.30289236  0.97068551  0.30813968  1  0  -0.360362  -0.233665  0  3.606696  0
