# generated using pymatgen
data_Zn3B2H32C40(N2O)8
_symmetry_space_group_name_H-M   'P 1'
_cell_length_a   12.40049808
_cell_length_b   12.40045175
_cell_length_c   18.12534550
_cell_angle_alpha   98.85144523
_cell_angle_beta   98.85149972
_cell_angle_gamma   115.38023767
_symmetry_Int_Tables_number   1
_chemical_formula_structural   Zn3B2H32C40(N2O)8
_chemical_formula_sum   'Zn6 B4 H64 C80 N32 O16'
_cell_volume   2411.55251220
_cell_formula_units_Z   2
loop_
 _symmetry_equiv_pos_site_id
 _symmetry_equiv_pos_as_xyz
  1  'x, y, z'
loop_
 _atom_site_type_symbol
 _atom_site_label
 _atom_site_symmetry_multiplicity
 _atom_site_fract_x
 _atom_site_fract_y
 _atom_site_fract_z
 _atom_site_occupancy
 _atom_site_pbe_bader_charge
 _atom_site_pbe_bader_spin_density
 _atom_site_pbe_cm5_charge
 _atom_site_pbe_ddec_charge
 _atom_site_pbe_ddec_spin_density
 _atom_site_pbe_ddec_sum_bond_order
 _atom_site_pbe_magmom
Zn  Zn0  1  0.80565592  0.65488815  0.04253267  1  1.257155  0  0.700877  0.785447  0  2.440896  0
Zn  Zn1  1  0.34511227  0.19434538  0.45746572  1  1.257129  0  0.700875  0.785465  0  2.440988  0
Zn  Zn2  1  0.19434531  0.34511195  0.95746719  1  1.257012  0  0.700887  0.785493  0  2.440926  0
Zn  Zn3  1  0.65488712  0.80565385  0.54253331  1  1.257147  0  0.700887  0.785478  0  2.440952  0
Zn  Zn4  1  0.25702506  0.74297497  0.75000081  1  1.214371  0  0.756773  0.714319  0  2.278519  0
Zn  Zn5  1  0.74297526  0.25702470  0.25000002  1  1.214407  0  0.75679  0.71435  0  2.278464  0
B  B6  1  0.71712860  0.02808397  0.95294462  1  2.209726  0  0.113525  0.529941  0  3.317639  0
B  B7  1  0.97191791  0.28287228  0.54705569  1  2.209666  0  0.113618  0.530195  0  3.317349  0
B  B8  1  0.28287078  0.97191608  0.04705559  1  2.20989  0  0.113574  0.530111  0  3.317462  0
B  B9  1  0.02808423  0.71712988  0.45294449  1  2.209679  0  0.113544  0.529967  0  3.317605  0
H  H10  1  0.78909478  0.94714920  0.81579522  1  0.178432  0  0.120116  0.130272  0  1.046376  0
H  H11  1  0.02477866  0.11498096  0.81162563  1  0.15063  0  0.119822  0.125645  0  1.019769  0
H  H12  1  0.95531097  0.24452236  0.01763530  1  0.218369  0  0.132731  0.108623  0  1.048306  0
H  H13  1  0.56798652  0.69031782  0.06813763  1  0.131976  0  0.127505  0.126539  0  0.994181  0
H  H14  1  0.53948134  0.88749709  0.03132525  1  0.107179  0  0.118744  0.110383  0  1.030771  0
H  H15  1  0.84160806  0.87453191  0.95603571  1  0.154393  0  0.143011  0.106938  0  0.988974  0
H  H16  1  0.77193031  0.05924101  0.11709496  1  0.125369  0  0.142753  0.105613  0  0.986805  0
H  H17  1  0.75635559  0.39267988  0.11371561  1  0.152444  0  0.120978  0.125689  0  1.025646  0
H  H18  1  0.70366119  0.26280494  0.96497016  1  0.128419  0  0.12751  0.12411  0  1.013717  0
H  H19  1  0.67543944  0.14376778  0.82963246  1  0.129007  0  0.12909  0.125877  0  0.99706  0
H  H20  1  0.45975302  0.99434662  0.71698830  1  0.152646  0  0.12419  0.123518  0  1.009352  0
H  H21  1  0.48306017  0.80798028  0.89003035  1  0.145067  0  0.131781  0.083993  0  1.061436  0
H  H22  1  0.81070372  0.56076192  0.74537171  1  0.099218  0  0.099368  0.099784  0  1.018817  0
H  H23  1  0.59220635  0.33788453  0.87728569  1  0.075981  0  0.095118  0.092376  0  1.040804  0
H  H24  1  0.73105135  0.64593579  0.32627786  1  0.104594  0  0.097429  0.09456  0  1.033181  0
H  H25  1  0.05285175  0.21090490  0.68420498  1  0.178436  0  0.120119  0.130285  0  1.046372  0
H  H26  1  0.88501777  0.97522062  0.68837433  1  0.150786  0  0.119813  0.125609  0  1.019813  0
H  H27  1  0.75547784  0.04468857  0.48236429  1  0.218363  0  0.132754  0.108686  0  1.048232  0
H  H28  1  0.30968445  0.43201486  0.43186358  1  0.131986  0  0.127486  0.126514  0  0.994169  0
H  H29  1  0.11250300  0.46051837  0.46867379  1  0.107225  0  0.118756  0.110393  0  1.03077  0
H  H30  1  0.12547005  0.15839219  0.54396582  1  0.154368  0  0.143008  0.106948  0  0.988971  0
H  H31  1  0.94076169  0.22807002  0.38290607  1  0.125365  0  0.142756  0.105612  0  0.986872  0
H  H32  1  0.60732237  0.24364107  0.38628315  1  0.152451  0  0.120996  0.125738  0  1.025617  0
H  H33  1  0.73719636  0.29633731  0.53502916  1  0.1282  0  0.127509  0.124095  0  1.01372  0
H  H34  1  0.85623375  0.32455872  0.67036689  1  0.129013  0  0.12907  0.125846  0  0.997101  0
H  H35  1  0.00565141  0.54024418  0.78301114  1  0.152665  0  0.124171  0.123472  0  1.009327  0
H  H36  1  0.19202024  0.51694061  0.60997093  1  0.145061  0  0.131775  0.08397  0  1.061505  0
H  H37  1  0.43923354  0.18929415  0.75462683  1  0.099136  0  0.099344  0.099748  0  1.018837  0
H  H38  1  0.66211287  0.40779236  0.62271259  1  0.075957  0  0.095123  0.092369  0  1.040847  0
H  H39  1  0.35407192  0.26894849  0.17372222  1  0.104634  0  0.097401  0.094566  0  1.033252  0
H  H40  1  0.21090458  0.05285327  0.18420305  1  0.17843  0  0.120139  0.130306  0  1.046354  0
H  H41  1  0.97522254  0.88502157  0.18837283  1  0.150817  0  0.119779  0.125617  0  1.019767  0
H  H42  1  0.04468935  0.75547730  0.98236388  1  0.21837  0  0.132768  0.108666  0  1.048282  0
H  H43  1  0.43201561  0.30968516  0.93186429  1  0.131958  0  0.127509  0.126559  0  0.994151  0
H  H44  1  0.46051897  0.11250339  0.96867511  1  0.106608  0  0.118737  0.110384  0  1.030767  0
H  H45  1  0.15839315  0.12547144  0.04396670  1  0.154383  0  0.143017  0.106963  0  0.988949  0
H  H46  1  0.22807184  0.94076033  0.88290568  1  0.125565  0  0.142752  0.105621  0  0.986807  0
H  H47  1  0.24364288  0.60731974  0.88628557  1  0.152455  0  0.120977  0.125703  0  1.02563  0
H  H48  1  0.29633726  0.73719630  0.03503174  1  0.128146  0  0.127478  0.124088  0  1.013677  0
H  H49  1  0.32455996  0.85623063  0.17036648  1  0.129004  0  0.129074  0.125844  0  0.997122  0
H  H50  1  0.54024734  0.00564816  0.28300982  1  0.152666  0  0.124202  0.123583  0  1.009324  0
H  H51  1  0.51694013  0.19202101  0.10997120  1  0.145082  0  0.131753  0.083947  0  1.061421  0
H  H52  1  0.18929755  0.43923575  0.25463121  1  0.099371  0  0.099354  0.09975  0  1.018831  0
H  H53  1  0.40779218  0.66210858  0.12271316  1  0.075977  0  0.09514  0.092395  0  1.040849  0
H  H54  1  0.26894432  0.35406576  0.67372213  1  0.10457  0  0.097426  0.094546  0  1.033222  0
H  H55  1  0.94714856  0.78909557  0.31579538  1  0.178431  0  0.12012  0.130254  0  1.046416  0
H  H56  1  0.11498069  0.02477899  0.31162575  1  0.150621  0  0.119815  0.125624  0  1.019771  0
H  H57  1  0.24452247  0.95531190  0.51763608  1  0.218361  0  0.132747  0.108661  0  1.048282  0
H  H58  1  0.69031403  0.56798312  0.56813467  1  0.131968  0  0.127484  0.126515  0  0.994153  0
H  H59  1  0.88749640  0.53948004  0.53132516  1  0.107217  0  0.118724  0.110382  0  1.030762  0
H  H60  1  0.87453209  0.84160996  0.45603491  1  0.154359  0  0.143012  0.106952  0  0.988959  0
H  H61  1  0.05923770  0.77193002  0.61709415  1  0.125346  0  0.142769  0.105638  0  0.986882  0
H  H62  1  0.39267702  0.75635816  0.61371753  1  0.152466  0  0.120994  0.12572  0  1.025627  0
H  H63  1  0.26280486  0.70366441  0.46497143  1  0.128473  0  0.12753  0.124113  0  1.013712  0
H  H64  1  0.14376841  0.67544100  0.32963303  1  0.128992  0  0.129066  0.125858  0  0.997099  0
H  H65  1  0.99434798  0.45975505  0.21698899  1  0.152652  0  0.124193  0.123521  0  1.009374  0
H  H66  1  0.80798097  0.48306192  0.39002974  1  0.14507  0  0.13177  0.083963  0  1.061469  0
H  H67  1  0.56076217  0.81070334  0.24536998  1  0.099451  0  0.099376  0.099809  0  1.018833  0
H  H68  1  0.33788832  0.59221261  0.37728888  1  0.075837  0  0.095122  0.092385  0  1.04079  0
H  H69  1  0.64592658  0.73104786  0.82627587  1  0.104682  0  0.097415  0.09457  0  1.033289  0
H  H70  1  0.50144151  0.40631258  0.10702381  1  0.048452  0  0.097137  0.10034  0  1.035199  0
H  H71  1  0.59368841  0.49856467  0.39297733  1  0.04845  0  0.097107  0.100302  0  1.03517  0
H  H72  1  0.49855973  0.59368670  0.89297486  1  0.048473  0  0.097151  0.10036  0  1.035183  0
H  H73  1  0.40630635  0.50143564  0.60702243  1  0.048443  0  0.097097  0.100309  0  1.035224  0
C  C74  1  0.85675652  0.03260474  0.85687005  1  0.240539  0  -0.000903  -0.072576  0  3.919646  0
C  C75  1  0.97262595  0.11465213  0.85443733  1  0.392989  0  -0.00566  -0.039544  0  3.985596  0
C  C76  1  0.93884113  0.18696143  0.96134727  1  0.936979  0  0.143784  0.132681  0  3.917169  0
C  C77  1  0.62041564  0.75818782  0.03928305  1  0.398868  0  0.009495  -0.014485  0  3.968813  0
C  C78  1  0.60563107  0.85519591  0.02113251  1  0.280029  0  -0.001216  -0.087635  0  3.977439  0
C  C79  1  0.76358310  0.85083813  0.98175569  1  0.995144  0  0.157541  0.152603  0  3.898905  0
C  C80  1  0.76055613  0.13229023  0.09676184  1  0.979947  0  0.150355  0.143396  0  3.924826  0
C  C81  1  0.75293134  0.30387049  0.09312374  1  0.399765  0  0.000533  -0.029804  0  3.944076  0
C  C82  1  0.72377707  0.23826934  0.01839344  1  0.279739  0  0.011072  -0.055387  0  3.920059  0
C  C83  1  0.60296178  0.05281657  0.82602428  1  0.295172  0  0.009298  -0.056085  0  3.919398  0
C  C84  1  0.49676198  0.97759717  0.76980345  1  0.375206  0  0.001621  -0.029282  0  3.956757  0
C  C85  1  0.50537579  0.87868316  0.85839142  1  0.99708  0  0.146477  0.142522  0  3.935968  0
C  C86  1  0.79645160  0.55014534  0.89077660  1  1.576977  0  0.194742  0.565677  0  4.24174  0
C  C87  1  0.73206529  0.47612553  0.74652661  1  -0.083415  0  -0.088184  -0.097401  0  3.992797  0
C  C88  1  0.71205982  0.45524350  0.81813182  1  -0.002768  0  -0.021252  -0.028363  0  3.966054  0
C  C89  1  0.60767313  0.35032216  0.82093586  1  -0.072444  0  -0.093583  -0.112417  0  4.006125  0
C  C90  1  0.71932110  0.61074997  0.17462239  1  1.570745  0  0.19478  0.555048  0  4.250681  0
C  C91  1  0.62793586  0.53106813  0.21325527  1  0.00573  0  -0.020347  -0.029836  0  3.976838  0
C  C92  1  0.65095335  0.56017897  0.29365422  1  -0.142857  0  -0.089984  -0.097792  0  3.993864  0
C  C93  1  0.52045053  0.42600219  0.16964769  1  0.01569  0  -0.092753  -0.105743  0  3.979432  0
C  C94  1  0.96739464  0.14324272  0.64312989  1  0.240582  0  -0.000898  -0.072597  0  3.919674  0
C  C95  1  0.88534599  0.02737263  0.64556188  1  0.392997  0  -0.005703  -0.03955  0  3.985649  0
C  C96  1  0.81303796  0.06115920  0.53865276  1  0.937025  0  0.14377  0.132582  0  3.917151  0
C  C97  1  0.24181372  0.37958507  0.46071856  1  0.398792  0  0.009501  -0.014456  0  3.96872  0
C  C98  1  0.14480515  0.39436957  0.47886789  1  0.280026  0  -0.001221  -0.087616  0  3.977433  0
C  C99  1  0.14916298  0.23641707  0.51824572  1  0.995103  0  0.157558  0.152607  0  3.898934  0
C  C100  1  0.86771197  0.23944361  0.40323793  1  0.979878  0  0.150326  0.143348  0  3.924803  0
C  C101  1  0.69613101  0.24706720  0.40687574  1  0.399951  0  0.00049  -0.029943  0  3.944146  0
C  C102  1  0.76173151  0.27622160  0.48160600  1  0.279503  0  0.011099  -0.055324  0  3.920017  0
C  C103  1  0.94718306  0.39703715  0.67397442  1  0.295081  0  0.009297  -0.056114  0  3.919378  0
C  C104  1  0.02240265  0.50323715  0.73019640  1  0.375239  0  0.001647  -0.029191  0  3.956664  0
C  C105  1  0.12131678  0.49462378  0.64160911  1  0.997052  0  0.146555  0.142668  0  3.936057  0
C  C106  1  0.44984929  0.20354411  0.60922107  1  1.576959  0  0.194885  0.565811  0  4.241509  0
C  C107  1  0.52387309  0.26793477  0.75347250  1  -0.083166  0  -0.088197  -0.097386  0  3.992864  0
C  C108  1  0.54475496  0.28794079  0.68186732  1  -0.002636  0  -0.02124  -0.028411  0  3.966114  0
C  C109  1  0.64967518  0.39232580  0.67906299  1  -0.072166  0  -0.093593  -0.112416  0  4.006214  0
C  C110  1  0.38925194  0.28068083  0.32537786  1  1.570773  0  0.19485  0.555157  0  4.250562  0
C  C111  1  0.46893286  0.37206605  0.28674156  1  0.004942  0  -0.020368  -0.029801  0  3.976503  0
C  C112  1  0.43982636  0.34904507  0.20634215  1  -0.142956  0  -0.089948  -0.097869  0  3.994002  0
C  C113  1  0.57400106  0.47955379  0.33035239  1  0.016085  0  -0.092744  -0.105791  0  3.979166  0
C  C114  1  0.14324285  0.96739693  0.14312923  1  0.240959  0  -0.000932  -0.072658  0  3.919665  0
C  C115  1  0.02737342  0.88534872  0.14556076  1  0.39286  0  -0.005634  -0.039468  0  3.98553  0
C  C116  1  0.06116103  0.81303828  0.03865211  1  0.93699  0  0.143709  0.132594  0  3.917096  0
C  C117  1  0.37958743  0.24181396  0.96071829  1  0.398772  0  0.009477  -0.014507  0  3.968765  0
C  C118  1  0.39437015  0.14480581  0.97886808  1  0.280627  0  -0.001232  -0.087629  0  3.977472  0
C  C119  1  0.23641811  0.14916440  0.01824554  1  0.995189  0  0.157561  0.152653  0  3.898871  0
C  C120  1  0.23944601  0.86771112  0.90323825  1  0.979746  0  0.150324  0.14336  0  3.92487  0
C  C121  1  0.24706897  0.69612999  0.90687773  1  0.399901  0  0.000573  -0.029793  0  3.944111  0
C  C122  1  0.27622232  0.76173070  0.98160733  1  0.279835  0  0.011113  -0.055319  0  3.919967  0
C  C123  1  0.39703763  0.94718104  0.17397569  1  0.294949  0  0.009301  -0.056027  0  3.919461  0
C  C124  1  0.50323838  0.02239844  0.23019640  1  0.37527  0  0.001553  -0.029422  0  3.95693  0
C  C125  1  0.49462455  0.12131488  0.14160980  1  0.997032  0  0.14656  0.14262  0  3.935896  0
C  C126  1  0.20354509  0.44984772  0.10922426  1  1.577027  0  0.194862  0.565881  0  4.241465  0
C  C127  1  0.26793687  0.52387500  0.25347450  1  -0.083476  0  -0.088151  -0.097287  0  3.992916  0
C  C128  1  0.28794237  0.54475378  0.18186785  1  -0.002481  0  -0.021255  -0.028421  0  3.966121  0
C  C129  1  0.39232536  0.64967501  0.17906231  1  -0.072211  0  -0.093579  -0.112429  0  4.006244  0
C  C130  1  0.28067828  0.38925088  0.82537791  1  1.570747  0  0.194858  0.555253  0  4.250383  0
C  C131  1  0.37206168  0.46893104  0.78674356  1  0.00542  0  -0.020331  -0.029747  0  3.976698  0
C  C132  1  0.34904139  0.43982215  0.70634397  1  -0.142904  0  -0.09003  -0.097922  0  3.993946  0
C  C133  1  0.47954886  0.57399786  0.83035197  1  0.016036  0  -0.092746  -0.105757  0  3.979384  0
C  C134  1  0.03260474  0.85675813  0.35686986  1  0.240832  0  -0.000899  -0.072568  0  3.919716  0
C  C135  1  0.11465247  0.97262779  0.35443773  1  0.392976  0  -0.005663  -0.039538  0  3.985595  0
C  C136  1  0.18696143  0.93884084  0.46134746  1  0.937035  0  0.143756  0.132582  0  3.917152  0
C  C137  1  0.75818567  0.62041416  0.53928102  1  0.398791  0  0.009544  -0.014369  0  3.9687  0
C  C138  1  0.85519425  0.60562966  0.52113170  1  0.280027  0  -0.001207  -0.087668  0  3.977408  0
C  C139  1  0.85083825  0.76358384  0.48175533  1  0.995145  0  0.157538  0.152598  0  3.898919  0
C  C140  1  0.13228742  0.76055643  0.59676284  1  0.979878  0  0.150361  0.143435  0  3.924692  0
C  C141  1  0.30386838  0.75293204  0.59312495  1  0.39994  0  0.000438  -0.029994  0  3.944061  0
C  C142  1  0.23826879  0.72377969  0.51839499  1  0.279272  0  0.011128  -0.055247  0  3.919948  0
C  C143  1  0.05281724  0.60296332  0.32602484  1  0.295087  0  0.009297  -0.056122  0  3.919397  0
C  C144  1  0.97759765  0.49676332  0.26980286  1  0.375259  0  0.001615  -0.029272  0  3.956763  0
C  C145  1  0.87868352  0.50537669  0.35839126  1  0.997114  0  0.146463  0.142531  0  3.935985  0
C  C146  1  0.55015009  0.79645674  0.39077647  1  1.576999  0  0.194909  0.565972  0  4.241298  0
C  C147  1  0.47612721  0.73206570  0.24652510  1  -0.083616  0  -0.088259  -0.097459  0  3.9931  0
C  C148  1  0.45524621  0.71206580  0.31813156  1  -0.002856  0  -0.021241  -0.028443  0  3.966165  0
C  C149  1  0.35032509  0.60767793  0.32093715  1  -0.072253  0  -0.093578  -0.11246  0  4.006236  0
C  C150  1  0.61074468  0.71931790  0.67462028  1  1.57079  0  0.194815  0.555174  0  4.25046  0
C  C151  1  0.53106375  0.62793350  0.71325721  1  0.004939  0  -0.020409  -0.029814  0  3.976583  0
C  C152  1  0.56017212  0.65095291  0.79365666  1  -0.142931  0  -0.08995  -0.097882  0  3.994058  0
C  C153  1  0.42599554  0.52044739  0.66964711  1  0.016044  0  -0.092677  -0.105741  0  3.979266  0
N  N154  1  0.02226997  0.21068872  0.91986076  1  -1.26325  0  -0.365473  -0.294859  0  3.645672  0
N  N155  1  0.83592976  0.07962812  0.92518440  1  -1.4852  0  -0.233858  -0.222221  0  3.736318  0
N  N156  1  0.71954268  0.75669873  0.01433686  1  -1.240687  0  -0.352412  -0.284181  0  3.565462  0
N  N157  1  0.69722447  0.91393393  0.98439215  1  -1.473795  0  -0.233184  -0.22401  0  3.739741  0
N  N158  1  0.77584019  0.23589986  0.14200207  1  -1.246666  0  -0.361829  -0.304565  0  3.564886  0
N  N159  1  0.72738863  0.12847549  0.02090275  1  -1.448018  0  -0.226891  -0.213915  0  3.707468  0
N  N160  1  0.60768201  0.98941454  0.88240613  1  -1.461844  0  -0.226584  -0.202537  0  3.679434  0
N  N161  1  0.43647410  0.86810847  0.79087525  1  -1.263208  0  -0.365428  -0.297902  0  3.593598  0
N  N162  1  0.78930909  0.97773049  0.58014028  1  -1.263336  0  -0.36546  -0.294828  0  3.645681  0
N  N163  1  0.92037245  0.16406743  0.57481542  1  -1.485182  0  -0.233869  -0.222233  0  3.736279  0
N  N164  1  0.24330341  0.28045819  0.48566488  1  -1.240647  0  -0.35239  -0.284157  0  3.565439  0
N  N165  1  0.08606689  0.30277491  0.51560798  1  -1.47376  0  -0.233218  -0.224134  0  3.739808  0
N  N166  1  0.76410318  0.22415901  0.35799714  1  -1.246676  0  -0.36182  -0.304501  0  3.564741  0
N  N167  1  0.87152757  0.27261222  0.47909777  1  -1.447645  0  -0.22695  -0.213994  0  3.707402  0
N  N168  1  0.01058757  0.39231836  0.61759360  1  -1.461835  0  -0.226621  -0.202631  0  3.679533  0
N  N169  1  0.13189217  0.56352574  0.70912590  1  -1.263119  0  -0.365438  -0.297942  0  3.593596  0
N  N170  1  0.97773127  0.78931057  0.08013957  1  -1.263284  0  -0.365434  -0.294841  0  3.645641  0
N  N171  1  0.16406868  0.92037393  0.07481593  1  -1.48556  0  -0.233866  -0.222245  0  3.736312  0
N  N172  1  0.28045946  0.24330424  0.98566561  1  -1.240575  0  -0.352398  -0.284191  0  3.565446  0
N  N173  1  0.30277676  0.08606698  0.01560891  1  -1.473865  0  -0.233198  -0.224135  0  3.739749  0
N  N174  1  0.22415919  0.76410018  0.85799870  1  -1.246597  0  -0.361794  -0.304515  0  3.564949  0
N  N175  1  0.27261351  0.87152748  0.97909807  1  -1.448017  0  -0.226922  -0.214028  0  3.707454  0
N  N176  1  0.39231738  0.01058469  0.11759401  1  -1.461746  0  -0.22655  -0.202531  0  3.679302  0
N  N177  1  0.56352623  0.13188957  0.20912597  1  -1.263145  0  -0.365427  -0.297904  0  3.593627  0
N  N178  1  0.21069030  0.02226955  0.41985939  1  -1.263316  0  -0.365467  -0.294835  0  3.64572  0
N  N179  1  0.07962693  0.83593261  0.42518424  1  -1.485434  0  -0.233865  -0.222186  0  3.736331  0
N  N180  1  0.75669690  0.71954229  0.51433548  1  -1.240638  0  -0.352411  -0.284247  0  3.565546  0
N  N181  1  0.91393342  0.69722475  0.48439175  1  -1.473773  0  -0.233206  -0.224019  0  3.739704  0
N  N182  1  0.23589620  0.77584184  0.64200372  1  -1.246714  0  -0.361814  -0.304516  0  3.564596  0
N  N183  1  0.12847274  0.72738744  0.52090251  1  -1.447634  0  -0.22693  -0.214036  0  3.707371  0
N  N184  1  0.98941365  0.60768336  0.38240644  1  -1.461771  0  -0.226544  -0.202473  0  3.679373  0
N  N185  1  0.86810721  0.43647512  0.29087496  1  -1.263272  0  -0.365389  -0.297878  0  3.59353  0
O  O186  1  0.88389503  0.64778568  0.88728091  1  -1.189659  0  -0.339816  -0.564433  0  2.09948  0
O  O187  1  0.76714138  0.52193624  0.95367818  1  -1.17782  0  -0.351188  -0.570787  0  2.327801  0
O  O188  1  0.79824485  0.71820303  0.20903963  1  -1.186402  0  -0.328462  -0.554104  0  2.12469  0
O  O189  1  0.70814997  0.55603072  0.10437502  1  -1.178935  0  -0.34077  -0.558821  0  2.345753  0
O  O190  1  0.35220858  0.11610425  0.61272041  1  -1.189704  0  -0.339869  -0.564474  0  2.099373  0
O  O191  1  0.47806070  0.23285501  0.54632036  1  -1.177809  0  -0.351262  -0.570855  0  2.32782  0
O  O192  1  0.28180037  0.20175691  0.29095854  1  -1.186325  0  -0.328503  -0.554151  0  2.124675  0
O  O193  1  0.44397018  0.29185295  0.39562636  1  -1.178979  0  -0.34077  -0.558855  0  2.345764  0
O  O194  1  0.11610722  0.35220593  0.11272203  1  -1.189861  0  -0.339845  -0.564499  0  2.099346  0
O  O195  1  0.23285160  0.47805670  0.04632173  1  -1.177695  0  -0.351301  -0.570944  0  2.327826  0
O  O196  1  0.20175454  0.28179702  0.79096170  1  -1.186394  0  -0.328535  -0.554241  0  2.124521  0
O  O197  1  0.29184942  0.44396851  0.89562567  1  -1.178961  0  -0.340792  -0.558916  0  2.345731  0
O  O198  1  0.64779173  0.88389541  0.38727987  1  -1.189822  0  -0.339837  -0.564487  0  2.099298  0
O  O199  1  0.52193867  0.76714665  0.45367892  1  -1.177749  0  -0.35133  -0.570987  0  2.327715  0
O  O200  1  0.71819719  0.79824064  0.70904012  1  -1.186272  0  -0.328481  -0.55417  0  2.124605  0
O  O201  1  0.55602738  0.70814460  0.60437175  1  -1.179041  0  -0.340778  -0.558848  0  2.34573  0
