# generated using pymatgen
data_CdH20C26S2(N2O)2
_symmetry_space_group_name_H-M   'P 1'
_cell_length_a   10.59356231
_cell_length_b   10.59354143
_cell_length_c   11.43115839
_cell_angle_alpha   81.77495257
_cell_angle_beta   81.77481902
_cell_angle_gamma   82.77634622
_symmetry_Int_Tables_number   1
_chemical_formula_structural   CdH20C26S2(N2O)2
_chemical_formula_sum   'Cd2 H40 C52 S4 N8 O4'
_cell_volume   1249.30841176
_cell_formula_units_Z   2
loop_
 _symmetry_equiv_pos_site_id
 _symmetry_equiv_pos_as_xyz
  1  'x, y, z'
loop_
 _atom_site_type_symbol
 _atom_site_label
 _atom_site_symmetry_multiplicity
 _atom_site_fract_x
 _atom_site_fract_y
 _atom_site_fract_z
 _atom_site_occupancy
 _atom_site_hle17_bader_spin_density
 _atom_site_hle17_ddec_charge
 _atom_site_hle17_ddec_spin_density
 _atom_site_hle17_ddec_sum_bond_order
 _atom_site_hle17_magmom
 _atom_site_hse06_10hf_bader_spin_density
 _atom_site_hse06_10hf_ddec_charge
 _atom_site_hse06_10hf_ddec_spin_density
 _atom_site_hse06_10hf_ddec_sum_bond_order
 _atom_site_hse06_10hf_magmom
 _atom_site_hse06_bader_spin_density
 _atom_site_hse06_ddec_charge
 _atom_site_hse06_ddec_spin_density
 _atom_site_hse06_ddec_sum_bond_order
 _atom_site_hse06_magmom
 _atom_site_pbe_bader_spin_density
 _atom_site_pbe_cm5_charge
 _atom_site_pbe_ddec_charge
 _atom_site_pbe_ddec_spin_density
 _atom_site_pbe_ddec_sum_bond_order
 _atom_site_pbe_magmom
Cd  Cd0  1  0.50000145  0.50000069  0.49999733  1  0  0.94932  0  2.003808  0  0  0.76328  0  2.472202  0  0  0.807958  0  2.436051  0  0  0.728775  0.732227  0  2.496823  0
Cd  Cd1  1  0.49999906  0.49999878  0.00000028  1  0  0.949359  0  2.003787  0  0  0.763321  0  2.472168  0  0  0.807996  0  2.436023  0  0  0.728816  0.732281  0  2.496795  0
H  H2  1  0.20037908  0.47865234  0.05465232  1  0  0.074419  0  0.951385  0  0  0.080703  0  1.019905  0  0  0.083079  0  1.018081  0  0  0.108716  0.078963  0  1.021236  0
H  H3  1  0.47865473  0.20037739  0.55465301  1  0  0.074376  0  0.95141  0  0  0.080707  0  1.019894  0  0  0.083086  0  1.018064  0  0  0.10871  0.078966  0  1.021224  0
H  H4  1  0.79962509  0.52134617  0.94534868  1  0  0.074395  0  0.951387  0  0  0.080736  0  1.019852  0  0  0.083115  0  1.018022  0  0  0.108698  0.078992  0  1.021181  0
H  H5  1  0.52134467  0.79962110  0.44534774  1  0  0.074393  0  0.951425  0  0  0.080714  0  1.019904  0  0  0.083092  0  1.018078  0  0  0.108718  0.078972  0  1.021235  0
H  H6  1  0.39373328  0.78693292  0.89595001  1  0  0.077569  0  0.949641  0  0  0.087839  0  1.01432  0  0  0.089828  0  1.012521  0  0  0.112899  0.086507  0  1.015474  0
H  H7  1  0.78693525  0.39373202  0.39595090  1  0  0.077561  0  0.94961  0  0  0.087823  0  1.014306  0  0  0.089817  0  1.012496  0  0  0.112899  0.086489  0  1.01546  0
H  H8  1  0.60626771  0.21306846  0.10404754  1  0  0.07758  0  0.949635  0  0  0.08785  0  1.014315  0  0  0.08984  0  1.01251  0  0  0.112898  0.086519  0  1.015467  0
H  H9  1  0.21306606  0.60626648  0.60404960  1  0  0.077538  0  0.94963  0  0  0.087802  0  1.014318  0  0  0.089795  0  1.012513  0  0  0.112889  0.08647  0  1.015472  0
H  H10  1  0.98563204  0.60895209  0.04114828  1  0  0.102062  0  0.955756  0  0  0.113407  0  1.013161  0  0  0.115647  0  1.013968  0  0  0.106343  0.111597  0  1.013044  0
H  H11  1  0.60895560  0.98563037  0.54114961  1  0  0.102172  0  0.955734  0  0  0.11353  0  1.013103  0  0  0.115759  0  1.013922  0  0  0.106395  0.11174  0  1.012967  0
H  H12  1  0.01437044  0.39104449  0.95885407  1  0  0.10216  0  0.955822  0  0  0.113515  0  1.013192  0  0  0.115747  0  1.014006  0  0  0.1064  0.111705  0  1.013077  0
H  H13  1  0.39104475  0.01436812  0.45885190  1  0  0.102093  0  0.955725  0  0  0.113444  0  1.01312  0  0  0.115679  0  1.013931  0  0  0.106352  0.111633  0  1.013004  0
H  H14  1  0.98048417  0.83900676  0.94921923  1  0  0.11215  0  0.937954  0  0  0.11958  0  1.00207  0  0  0.123093  0  0.999177  0  0  0.112631  0.116883  0  1.004445  0
H  H15  1  0.83901018  0.98048247  0.44921980  1  0  0.112172  0  0.93797  0  0  0.119607  0  1.002078  0  0  0.123122  0  0.999187  0  0  0.112638  0.116908  0  1.00445  0
H  H16  1  0.01951534  0.16099076  0.05078164  1  0  0.112147  0  0.938025  0  0  0.119572  0  1.002144  0  0  0.123088  0  0.999252  0  0  0.112617  0.116877  0  1.004516  0
H  H17  1  0.16099102  0.01951699  0.55078146  1  0  0.112166  0  0.937841  0  0  0.119604  0  1.001952  0  0  0.12312  0  0.999059  0  0  0.11263  0.116905  0  1.004327  0
H  H18  1  0.22366980  0.02335424  0.93267741  1  0  0.068815  0  0.910845  0  0  0.083035  0  0.974723  0  0  0.082666  0  0.974962  0  0  0.106495  0.083229  0  0.974769  0
H  H19  1  0.02335470  0.22366950  0.43267739  1  0  0.068806  0  0.910873  0  0  0.083021  0  0.974743  0  0  0.08265  0  0.974983  0  0  0.106475  0.083211  0  0.974785  0
H  H20  1  0.77632631  0.97664807  0.06732502  1  0  0.068803  0  0.910837  0  0  0.08303  0  0.974703  0  0  0.08266  0  0.974943  0  0  0.106488  0.083222  0  0.97475  0
H  H21  1  0.97664661  0.77632899  0.56732224  1  0  0.068809  0  0.910891  0  0  0.083032  0  0.974753  0  0  0.082662  0  0.974991  0  0  0.106478  0.083223  0  0.974792  0
H  H22  1  0.25956998  0.98080193  0.78504533  1  0  0.060276  0  0.920461  0  0  0.076448  0  0.98145  0  0  0.076192  0  0.981494  0  0  0.105535  0.076771  0  0.981125  0
H  H23  1  0.98080293  0.25957102  0.28504746  1  0  0.060298  0  0.920513  0  0  0.076459  0  0.981508  0  0  0.076204  0  0.981552  0  0  0.105537  0.076779  0  0.981185  0
H  H24  1  0.74042719  0.01919942  0.21495534  1  0  0.060271  0  0.920447  0  0  0.076427  0  0.981449  0  0  0.076171  0  0.981493  0  0  0.105513  0.076749  0  0.981122  0
H  H25  1  0.01919519  0.74043033  0.71495222  1  0  0.060269  0  0.920581  0  0  0.076438  0  0.98157  0  0  0.076182  0  0.981612  0  0  0.105537  0.076758  0  0.981245  0
H  H26  1  0.23118213  0.20221224  0.78604335  1  0  0.09656  0  0.996115  0  0  0.104461  0  1.065549  0  0  0.107279  0  1.064675  0  0  0.092891  0.102615  0  1.065977  0
H  H27  1  0.20221763  0.23117990  0.28604361  1  0  0.096552  0  0.996149  0  0  0.104426  0  1.065608  0  0  0.107244  0  1.064745  0  0  0.092879  0.102579  0  1.066034  0
H  H28  1  0.76881738  0.79778528  0.21395752  1  0  0.096613  0  0.996088  0  0  0.104468  0  1.065577  0  0  0.107286  0  1.064705  0  0  0.092902  0.102621  0  1.066004  0
H  H29  1  0.79778358  0.76881956  0.71395679  1  0  0.096571  0  0.996108  0  0  0.10443  0  1.065596  0  0  0.107247  0  1.064727  0  0  0.092881  0.102582  0  1.066023  0
H  H30  1  0.79858569  0.32357780  0.65812970  1  0  0.087614  0  0.972917  0  0  0.096495  0  1.039478  0  0  0.098539  0  1.039349  0  0  0.092646  0.094879  0  1.039827  0
H  H31  1  0.32357438  0.79858306  0.15813257  1  0  0.087615  0  0.972919  0  0  0.096499  0  1.039466  0  0  0.098544  0  1.039336  0  0  0.092632  0.094881  0  1.039824  0
H  H32  1  0.20141530  0.67642357  0.34186784  1  0  0.087593  0  0.97289  0  0  0.096474  0  1.039452  0  0  0.098518  0  1.039323  0  0  0.092632  0.094856  0  1.039803  0
H  H33  1  0.67642312  0.20141541  0.84187019  1  0  0.087614  0  0.972897  0  0  0.0965  0  1.03945  0  0  0.098543  0  1.039321  0  0  0.092652  0.094883  0  1.039804  0
H  H34  1  0.95658295  0.48189002  0.62096667  1  0  0.080802  0  0.983852  0  0  0.088006  0  1.053376  0  0  0.090915  0  1.052623  0  0  0.084683  0.085621  0  1.054412  0
H  H35  1  0.48188914  0.95657439  0.12096912  1  0  0.080816  0  0.983821  0  0  0.088008  0  1.053358  0  0  0.090917  0  1.052604  0  0  0.084681  0.085626  0  1.054396  0
H  H36  1  0.04341910  0.51811040  0.37903086  1  0  0.080888  0  0.983797  0  0  0.088036  0  1.05337  0  0  0.090945  0  1.052618  0  0  0.084687  0.08565  0  1.054408  0
H  H37  1  0.51810964  0.04342121  0.87903473  1  0  0.080853  0  0.983749  0  0  0.088016  0  1.053321  0  0  0.090926  0  1.052567  0  0  0.084676  0.085633  0  1.054362  0
H  H38  1  0.17797011  0.41681904  0.68199299  1  0  0.081314  0  0.985842  0  0  0.09266  0  1.047273  0  0  0.094938  0  1.045868  0  0  0.089506  0.090963  0  1.048334  0
H  H39  1  0.41682523  0.17796566  0.18199311  1  0  0.081327  0  0.985693  0  0  0.092648  0  1.047167  0  0  0.094924  0  1.045763  0  0  0.089501  0.090952  0  1.048229  0
H  H40  1  0.82203131  0.58317849  0.31800500  1  0  0.081323  0  0.985762  0  0  0.092643  0  1.04723  0  0  0.094919  0  1.045827  0  0  0.089516  0.090952  0  1.048273  0
H  H41  1  0.58317704  0.82203284  0.81800727  1  0  0.081312  0  0.985781  0  0  0.09265  0  1.047233  0  0  0.094927  0  1.045829  0  0  0.089511  0.090959  0  1.048284  0
C  C42  1  0.19222522  0.57874275  0.01491365  1  0  0.118783  0  3.723978  0  0  0.086  0  3.974059  0  0  0.091898  0  3.994293  0  0  0.041901  0.082474  0  3.959954  0
C  C43  1  0.57874548  0.19222554  0.51491215  1  0  0.118841  0  3.724064  0  0  0.086002  0  3.974166  0  0  0.091903  0  3.994396  0  0  0.041896  0.082473  0  3.960065  0
C  C44  1  0.80777980  0.42125673  0.98508711  1  0  0.118813  0  3.72392  0  0  0.085978  0  3.973974  0  0  0.091874  0  3.994211  0  0  0.041914  0.082457  0  3.959864  0
C  C45  1  0.42125635  0.80777680  0.48508602  1  0  0.118805  0  3.723964  0  0  0.085996  0  3.97403  0  0  0.091894  0  3.994264  0  0  0.041909  0.082469  0  3.959923  0
C  C46  1  0.30066475  0.75147961  0.92668007  1  0  0.076052  0  3.699966  0  0  0.040857  0  3.946286  0  0  0.046328  0  3.966013  0  0  0.047426  0.037104  0  3.933245  0
C  C47  1  0.75148163  0.30066434  0.42668170  1  0  0.076127  0  3.700086  0  0  0.040942  0  3.946393  0  0  0.0464  0  3.966149  0  0  0.047482  0.037185  0  3.933351  0
C  C48  1  0.69933455  0.24851984  0.07331970  1  0  0.07605  0  3.700078  0  0  0.040793  0  3.946393  0  0  0.04628  0  3.966098  0  0  0.047399  0.037038  0  3.933349  0
C  C49  1  0.24851873  0.69933414  0.57331980  1  0  0.076202  0  3.700119  0  0  0.040979  0  3.946378  0  0  0.046438  0  3.966127  0  0  0.047482  0.03722  0  3.933339  0
C  C50  1  0.07418063  0.65111269  0.00636666  1  0  -0.116029  0  3.75453  0  0  -0.124066  0  4.003419  0  0  -0.131337  0  4.026557  0  0  -0.083528  -0.11915  0  3.987373  0
C  C51  1  0.65111542  0.07418026  0.50636678  1  0  -0.116215  0  3.754626  0  0  -0.124257  0  4.003526  0  0  -0.131519  0  4.026666  0  0  -0.083606  -0.119363  0  3.987474  0
C  C52  1  0.92582153  0.34888677  0.99363448  1  0  -0.116087  0  3.75464  0  0  -0.124136  0  4.003532  0  0  -0.131401  0  4.026674  0  0  -0.083554  -0.119222  0  3.987489  0
C  C53  1  0.34888674  0.92581920  0.49363436  1  0  -0.116011  0  3.754583  0  0  -0.124057  0  4.003493  0  0  -0.131324  0  4.026633  0  0  -0.083513  -0.119145  0  3.987446  0
C  C54  1  0.18669123  0.83188644  0.91671311  1  0  0.025453  0  3.714635  0  0  0.045018  0  3.961928  0  0  0.040491  0  3.984887  0  0  -0.004252  0.047865  0  3.946276  0
C  C55  1  0.83188944  0.18669099  0.41671436  1  0  0.025466  0  3.714625  0  0  0.045019  0  3.961924  0  0  0.040493  0  3.984882  0  0  -0.004222  0.047861  0  3.946266  0
C  C56  1  0.81330785  0.16811493  0.08328731  1  0  0.025345  0  3.714802  0  0  0.04502  0  3.961937  0  0  0.040489  0  3.984903  0  0  -0.004251  0.047866  0  3.946282  0
C  C57  1  0.16811356  0.81330944  0.58328567  1  0  0.025337  0  3.714971  0  0  0.04504  0  3.962063  0  0  0.040515  0  3.985018  0  0  -0.004249  0.047881  0  3.946407  0
C  C58  1  0.07115963  0.77932298  0.95659267  1  0  -0.036246  0  3.672532  0  0  -0.070502  0  3.930888  0  0  -0.066368  0  3.946828  0  0  -0.064659  -0.072646  0  3.919587  0
C  C59  1  0.77932265  0.07115775  0.45659274  1  0  -0.036279  0  3.67258  0  0  -0.070537  0  3.930931  0  0  -0.066406  0  3.94687  0  0  -0.064698  -0.072684  0  3.919634  0
C  C60  1  0.92884179  0.22067456  0.04340795  1  0  -0.036253  0  3.672557  0  0  -0.070538  0  3.930872  0  0  -0.066409  0  3.946815  0  0  -0.064682  -0.072684  0  3.919575  0
C  C61  1  0.22067517  0.92883785  0.54340860  1  0  -0.03626  0  3.672637  0  0  -0.07057  0  3.93095  0  0  -0.06644  0  3.946892  0  0  -0.06469  -0.072716  0  3.919648  0
C  C62  1  0.19103310  0.97094999  0.86736207  1  0  0.068962  0  3.646036  0  0  0.003401  0  3.90602  0  0  0.012472  0  3.91126  0  0  -0.051898  -0.002854  0  3.90251  0
C  C63  1  0.97095239  0.19103423  0.36736393  1  0  0.068875  0  3.646237  0  0  0.003354  0  3.906172  0  0  0.012427  0  3.911408  0  0  -0.051905  -0.002898  0  3.902652  0
C  C64  1  0.80896440  0.02904848  0.13263894  1  0  0.068973  0  3.64605  0  0  0.003428  0  3.905977  0  0  0.012496  0  3.911222  0  0  -0.0519  -0.002827  0  3.902463  0
C  C65  1  0.02904701  0.80896426  0.63263682  1  0  0.068919  0  3.646245  0  0  0.003379  0  3.906162  0  0  0.012455  0  3.911398  0  0  -0.051899  -0.002869  0  3.902637  0
C  C66  1  0.04587948  0.13937032  0.77903976  1  0  0.232674  0  3.791885  0  0  0.215941  0  4.056406  0  0  0.227439  0  4.070963  0  0  0.083228  0.208022  0  4.046687  0
C  C67  1  0.13937103  0.04587926  0.27903934  1  0  0.232613  0  3.791701  0  0  0.21578  0  4.056352  0  0  0.227276  0  4.070912  0  0  0.08317  0.207862  0  4.046632  0
C  C68  1  0.95411876  0.86063008  0.22095915  1  0  0.232606  0  3.791791  0  0  0.21588  0  4.056337  0  0  0.227375  0  4.070896  0  0  0.083191  0.20796  0  4.046618  0
C  C69  1  0.86062805  0.95412210  0.72096020  1  0  0.232709  0  3.791545  0  0  0.215918  0  4.056216  0  0  0.227416  0  4.070772  0  0  0.083214  0.207999  0  4.046495  0
C  C70  1  0.92339859  0.17130636  0.74037294  1  0  -0.030132  0  3.761927  0  0  -0.02259  0  4.001603  0  0  -0.024782  0  4.023429  0  0  -0.020813  -0.021396  0  3.987241  0
C  C71  1  0.17130689  0.92339669  0.24037291  1  0  -0.030055  0  3.761938  0  0  -0.02243  0  4.001562  0  0  -0.02462  0  4.023389  0  0  -0.020725  -0.021234  0  3.9872  0
C  C72  1  0.07660229  0.82869597  0.25962624  1  0  -0.030166  0  3.761939  0  0  -0.02263  0  4.001612  0  0  -0.024819  0  4.02344  0  0  -0.020811  -0.021434  0  3.987248  0
C  C73  1  0.82869134  0.07660370  0.75962688  1  0  -0.030253  0  3.762022  0  0  -0.022669  0  4.001717  0  0  -0.024858  0  4.023541  0  0  -0.020809  -0.021472  0  3.987355  0
C  C74  1  0.13709401  0.22712953  0.75615094  1  0  -0.217099  0  3.793711  0  0  -0.236048  0  4.046841  0  0  -0.242476  0  4.067878  0  0  -0.120152  -0.232024  0  4.032758  0
C  C75  1  0.22713409  0.13709256  0.25615367  1  0  -0.216998  0  3.7936  0  0  -0.235891  0  4.046749  0  0  -0.242317  0  4.067776  0  0  -0.120075  -0.231866  0  4.032665  0
C  C76  1  0.86290635  0.77286896  0.24384707  1  0  -0.217084  0  3.793634  0  0  -0.235992  0  4.046778  0  0  -0.242419  0  4.06781  0  0  -0.120143  -0.231971  0  4.032694  0
C  C77  1  0.77286722  0.86290593  0.74384771  1  0  -0.21705  0  3.793552  0  0  -0.235929  0  4.046711  0  0  -0.242358  0  4.06775  0  0  -0.12012  -0.231905  0  4.032627  0
C  C78  1  0.89360206  0.29636776  0.68593126  1  0  -0.096942  0  3.768834  0  0  -0.116  0  4.016887  0  0  -0.116354  0  4.038527  0  0  -0.095515  -0.115548  0  4.002201  0
C  C79  1  0.29636642  0.89359487  0.18593024  1  0  -0.097033  0  3.768802  0  0  -0.116108  0  4.016838  0  0  -0.116463  0  4.038478  0  0  -0.095559  -0.115656  0  4.002159  0
C  C80  1  0.10639808  0.70363265  0.31406914  1  0  -0.0969  0  3.768806  0  0  -0.115958  0  4.016842  0  0  -0.116312  0  4.038483  0  0  -0.095504  -0.115506  0  4.002158  0
C  C81  1  0.70363331  0.10640074  0.81406911  1  0  -0.096887  0  3.768924  0  0  -0.115946  0  4.016943  0  0  -0.1163  0  4.038583  0  0  -0.095532  -0.115495  0  4.002263  0
C  C82  1  0.98319239  0.38585200  0.66483909  1  0  -0.1158  0  3.831303  0  0  -0.130441  0  4.085001  0  0  -0.134729  0  4.107331  0  0  -0.117969  -0.127676  0  4.069922  0
C  C83  1  0.38585293  0.98318800  0.16484002  1  0  -0.115774  0  3.831142  0  0  -0.130402  0  4.084842  0  0  -0.13469  0  4.107169  0  0  -0.11794  -0.127638  0  4.069769  0
C  C84  1  0.01680892  0.61414649  0.33515966  1  0  -0.115889  0  3.831348  0  0  -0.130476  0  4.085041  0  0  -0.134769  0  4.107372  0  0  -0.117953  -0.127714  0  4.069966  0
C  C85  1  0.61414648  0.01681048  0.83516074  1  0  -0.115842  0  3.831163  0  0  -0.130442  0  4.084861  0  0  -0.134733  0  4.107192  0  0  -0.117925  -0.127679  0  4.069792  0
C  C86  1  0.10523555  0.35011876  0.69856510  1  0  -0.048923  0  3.815325  0  0  -0.060831  0  4.062175  0  0  -0.060053  0  4.083176  0  0  -0.103327  -0.060876  0  4.047621  0
C  C87  1  0.35012150  0.10523291  0.19856805  1  0  -0.048976  0  3.81518  0  0  -0.060868  0  4.062024  0  0  -0.060089  0  4.083027  0  0  -0.103351  -0.060913  0  4.047473  0
C  C88  1  0.89476587  0.64987878  0.30143377  1  0  -0.048972  0  3.815282  0  0  -0.060857  0  4.062101  0  0  -0.060076  0  4.083104  0  0  -0.103366  -0.060898  0  4.047547  0
C  C89  1  0.64987886  0.89476558  0.80143345  1  0  -0.048963  0  3.815273  0  0  -0.060862  0  4.062096  0  0  -0.060082  0  4.083096  0  0  -0.103347  -0.060904  0  4.047546  0
C  C90  1  0.36332025  0.41100599  0.28651700  1  0  0.311089  0  3.991447  0  0  0.293208  0  4.289353  0  0  0.315216  0  4.302474  0  0  0.149759  0.278214  0  4.28021  0
C  C91  1  0.41100478  0.36331451  0.78652160  1  0  0.311044  0  3.99129  0  0  0.293161  0  4.289214  0  0  0.315171  0  4.302334  0  0  0.149727  0.278164  0  4.280062  0
C  C92  1  0.63667872  0.58899633  0.71348681  1  0  0.311091  0  3.991415  0  0  0.293208  0  4.289316  0  0  0.315217  0  4.302438  0  0  0.149745  0.278215  0  4.280176  0
C  C93  1  0.58898910  0.63669067  0.21347725  1  0  0.310994  0  3.991575  0  0  0.293115  0  4.289474  0  0  0.315124  0  4.302591  0  0  0.14966  0.278119  0  4.280322  0
S  S94  1  0.29988447  0.39757227  0.42580587  1  0  -0.345007  0  2.145514  0  0  -0.314659  0  2.47178  0  0  -0.330918  0  2.46457  0  0  -0.138925  -0.302961  0  2.476645  0
S  S95  1  0.39757181  0.29988222  0.92580460  1  0  -0.34497  0  2.145783  0  0  -0.314623  0  2.472058  0  0  -0.330883  0  2.46485  0  0  -0.138909  -0.302923  0  2.476925  0
S  S96  1  0.70011343  0.60243100  0.57419971  1  0  -0.345021  0  2.145502  0  0  -0.314663  0  2.47175  0  0  -0.330908  0  2.464508  0  0  -0.138923  -0.302968  0  2.476615  0
S  S97  1  0.60242621  0.70012010  0.07419146  1  0  -0.34505  0  2.145683  0  0  -0.314711  0  2.47196  0  0  -0.33097  0  2.464749  0  0  -0.138976  -0.303013  0  2.476825  0
N  N98  1  0.30352972  0.62830847  0.97479514  1  0  -0.319398  0  3.309139  0  0  -0.23903  0  3.56744  0  0  -0.259084  0  3.590352  0  0  -0.328768  -0.225372  0  3.55164  0
N  N99  1  0.62831170  0.30352916  0.47479503  1  0  -0.319376  0  3.309415  0  0  -0.239013  0  3.567743  0  0  -0.259067  0  3.590658  0  0  -0.328791  -0.225357  0  3.551941  0
N  N100  1  0.69647138  0.37169195  0.02520426  1  0  -0.319374  0  3.309009  0  0  -0.238981  0  3.5673  0  0  -0.25904  0  3.590219  0  0  -0.328726  -0.225323  0  3.551497  0
N  N101  1  0.37168877  0.69646837  0.52520571  1  0  -0.319453  0  3.309189  0  0  -0.239103  0  3.567532  0  0  -0.259154  0  3.590439  0  0  -0.328833  -0.225446  0  3.55173  0
N  N102  1  0.40853239  0.41718607  0.18533428  1  0  -0.538431  0  2.893386  0  0  -0.481894  0  3.168505  0  0  -0.502807  0  3.175306  0  0  -0.395723  -0.467573  0  3.16396  0
N  N103  1  0.41718902  0.40853322  0.68532964  1  0  -0.538438  0  2.892924  0  0  -0.481903  0  3.168042  0  0  -0.502823  0  3.174851  0  0  -0.395702  -0.467574  0  3.163481  0
N  N104  1  0.59146934  0.58281722  0.81466903  1  0  -0.53843  0  2.893364  0  0  -0.481896  0  3.168483  0  0  -0.502809  0  3.175282  0  0  -0.395723  -0.467578  0  3.163939  0
N  N105  1  0.58281038  0.59147391  0.31466210  1  0  -0.538266  0  2.893301  0  0  -0.481727  0  3.168405  0  0  -0.502643  0  3.175204  0  0  -0.395554  -0.467401  0  3.163849  0
O  O106  1  0.06495105  0.02117817  0.84355293  1  0  -0.28526  0  2.415785  0  0  -0.212639  0  2.65629  0  0  -0.231088  0  2.660715  0  0  -0.173526  -0.199738  0  2.653059  0
O  O107  1  0.02118036  0.06495144  0.34355327  1  0  -0.285213  0  2.415714  0  0  -0.212596  0  2.656269  0  0  -0.231047  0  2.660693  0  0  -0.173525  -0.199696  0  2.653031  0
O  O108  1  0.93504634  0.97882127  0.15644797  1  0  -0.285171  0  2.415678  0  0  -0.21261  0  2.656236  0  0  -0.231062  0  2.660665  0  0  -0.173486  -0.19971  0  2.653003  0
O  O109  1  0.97881978  0.93504897  0.65644626  1  0  -0.285191  0  2.41562  0  0  -0.212682  0  2.656264  0  0  -0.231141  0  2.660696  0  0  -0.173531  -0.199783  0  2.653025  0
