# generated using pymatgen
data_SnH10C4SO2
_symmetry_space_group_name_H-M   'P 1'
_cell_length_a   7.94466673
_cell_length_b   9.94690773
_cell_length_c   10.07192217
_cell_angle_alpha   90.00019553
_cell_angle_beta   89.99979970
_cell_angle_gamma   89.99833362
_symmetry_Int_Tables_number   1
_chemical_formula_structural   SnH10C4SO2
_chemical_formula_sum   'Sn4 H40 C16 S4 O8'
_cell_volume   795.93230887
_cell_formula_units_Z   4
loop_
 _symmetry_equiv_pos_site_id
 _symmetry_equiv_pos_as_xyz
  1  'x, y, z'
loop_
 _atom_site_type_symbol
 _atom_site_label
 _atom_site_symmetry_multiplicity
 _atom_site_fract_x
 _atom_site_fract_y
 _atom_site_fract_z
 _atom_site_occupancy
 _atom_site_pbe_bader_spin_density
 _atom_site_pbe_cm5_charge
 _atom_site_pbe_ddec_charge
 _atom_site_pbe_ddec_spin_density
 _atom_site_pbe_ddec_sum_bond_order
 _atom_site_pbe_magmom
Sn  Sn0  1  0.74997798  0.08965194  0.68670484  1  0  0.528655  1.183076  0  3.427039  0
Sn  Sn1  1  0.25000446  0.41038467  0.18669624  1  0  0.528726  1.18335  0  3.426615  0
Sn  Sn2  1  0.25001206  0.91038369  0.31330475  1  0  0.528724  1.183204  0  3.426358  0
Sn  Sn3  1  0.75000321  0.58966503  0.81328753  1  0  0.528656  1.183065  0  3.426624  0
H  H4  1  0.51836428  0.94597935  0.81836913  1  0  0.083419  0.170676  0  1.064823  0
H  H5  1  0.48166228  0.55401511  0.31837315  1  0  0.083432  0.170693  0  1.064887  0
H  H6  1  0.01836908  0.05401918  0.18162174  1  0  0.083389  0.170645  0  1.065039  0
H  H7  1  0.98160333  0.44598120  0.68162338  1  0  0.083355  0.170574  0  1.065088  0
H  H8  1  0.48163080  0.05403718  0.18162258  1  0  0.083358  0.170651  0  1.065029  0
H  H9  1  0.51838567  0.44598231  0.68164240  1  0  0.083399  0.170747  0  1.064903  0
H  H10  1  0.98159831  0.94596719  0.81836799  1  0  0.083355  0.17064  0  1.064981  0
H  H11  1  0.01836027  0.55405845  0.31836734  1  0  0.083443  0.170772  0  1.064883  0
H  H12  1  0.42556303  0.01815286  0.67179119  1  0  0.086567  0.176857  0  1.065313  0
H  H13  1  0.57444848  0.48185551  0.17179730  1  0  0.086597  0.17685  0  1.065423  0
H  H14  1  0.92556950  0.98185576  0.32819346  1  0  0.086602  0.176791  0  1.065494  0
H  H15  1  0.07440160  0.51814279  0.82818063  1  0  0.086655  0.176894  0  1.065506  0
H  H16  1  0.57444338  0.98188076  0.32819159  1  0  0.086571  0.176796  0  1.06556  0
H  H17  1  0.42559317  0.51814795  0.82820930  1  0  0.086603  0.176877  0  1.065574  0
H  H18  1  0.07440544  0.01812357  0.67179330  1  0  0.086559  0.176787  0  1.065624  0
H  H19  1  0.92556705  0.48188178  0.17180712  1  0  0.086583  0.176797  0  1.065554  0
H  H20  1  0.45401735  0.11946591  0.81788844  1  0  0.0776  0.168921  0  1.074347  0
H  H21  1  0.54595777  0.38052129  0.31787368  1  0  0.077586  0.168857  0  1.074132  0
H  H22  1  0.95409302  0.88051795  0.18211307  1  0  0.077525  0.168765  0  1.074194  0
H  H23  1  0.04595977  0.61945050  0.68208838  1  0  0.07749  0.168697  0  1.074289  0
H  H24  1  0.54595758  0.88054559  0.18211320  1  0  0.07751  0.168804  0  1.074142  0
H  H25  1  0.45402220  0.61945503  0.68211506  1  0  0.077604  0.16892  0  1.074225  0
H  H26  1  0.04596751  0.11945032  0.81788758  1  0  0.077539  0.168816  0  1.074096  0
H  H27  1  0.95406551  0.38056402  0.31789539  1  0  0.077614  0.16891  0  1.074028  0
H  H28  1  0.75000337  0.73901652  0.36400589  1  0  0.102421  0.168315  0  0.982253  0
H  H29  1  0.24999388  0.76088173  0.86395731  1  0  0.102324  0.168354  0  0.981885  0
H  H30  1  0.24999045  0.26097286  0.63604242  1  0  0.102386  0.168322  0  0.982181  0
H  H31  1  0.75004777  0.23899104  0.13600065  1  0  0.102551  0.168673  0  0.982293  0
H  H32  1  0.86176157  0.63786363  0.48154745  1  0  0.100213  0.155655  0  1.02487  0
H  H33  1  0.13828133  0.86211984  0.98142848  1  0  0.100348  0.155879  0  1.025251  0
H  H34  1  0.36172683  0.36216551  0.51854646  1  0  0.100329  0.155834  0  1.025116  0
H  H35  1  0.63831357  0.13782578  0.01851863  1  0  0.100309  0.155891  0  1.025188  0
H  H36  1  0.13828637  0.36220719  0.51855745  1  0  0.100281  0.15576  0  1.025097  0
H  H37  1  0.86171249  0.13783235  0.01849671  1  0  0.100325  0.15593  0  1.025985  0
H  H38  1  0.63832111  0.63784901  0.48153263  1  0  0.100363  0.155932  0  1.025835  0
H  H39  1  0.36172305  0.86212239  0.98142643  1  0  0.100312  0.155782  0  1.02502  0
H  H40  1  0.74999521  0.16637540  0.41279587  1  0  0.114776  0.159901  0  1.059289  0
H  H41  1  0.25000686  0.33357220  0.91276518  1  0  0.114795  0.159903  0  1.059405  0
H  H42  1  0.24999609  0.83354663  0.58724847  1  0  0.114831  0.159917  0  1.059318  0
H  H43  1  0.75001213  0.66639607  0.08718881  1  0  0.114842  0.159925  0  1.0592  0
C  C44  1  0.50564750  0.03712800  0.75834069  1  0  -0.332977  -0.728151  0  3.726373  0
C  C45  1  0.49434697  0.46288696  0.25833294  1  0  -0.332957  -0.728051  0  3.726063  0
C  C46  1  0.00568139  0.96289495  0.24165715  1  0  -0.332814  -0.727735  0  3.726177  0
C  C47  1  0.99433066  0.53710807  0.74164372  1  0  -0.332826  -0.727735  0  3.726303  0
C  C48  1  0.49434254  0.96291165  0.24166294  1  0  -0.332772  -0.727835  0  3.726182  0
C  C49  1  0.50565818  0.53711750  0.74166274  1  0  -0.332961  -0.728205  0  3.726323  0
C  C50  1  0.99432879  0.03709645  0.75833258  1  0  -0.33282  -0.727892  0  3.726085  0
C  C51  1  0.00566945  0.46293359  0.25833807  1  0  -0.333033  -0.728144  0  3.726033  0
C  C52  1  0.74998733  0.81302812  0.56555334  1  0  0.237847  0.692896  0  4.08833  0
C  C53  1  0.25000721  0.68698582  0.06553770  1  0  0.238013  0.693345  0  4.086577  0
C  C54  1  0.24996495  0.18703768  0.43447710  1  0  0.238493  0.694163  0  4.086067  0
C  C55  1  0.75000926  0.31298748  0.93446097  1  0  0.238376  0.693778  0  4.08566  0
C  C56  1  0.74995839  0.70078789  0.46585139  1  0  -0.240034  -0.543904  0  3.891326  0
C  C57  1  0.24998142  0.79918241  0.96578098  1  0  -0.240009  -0.544084  0  3.890259  0
C  C58  1  0.24999137  0.29922764  0.53419593  1  0  -0.240026  -0.54411  0  3.89063  0
C  C59  1  0.75005016  0.20073560  0.03419982  1  0  -0.240265  -0.544505  0  3.890965  0
S  S60  1  0.74999432  0.25950516  0.51020828  1  0  -0.220174  -0.460951  0  2.130002  0
S  S61  1  0.24999831  0.24049010  0.01021847  1  0  -0.220184  -0.460977  0  2.130081  0
S  S62  1  0.24999069  0.74047116  0.48978741  1  0  -0.22024  -0.460981  0  2.129948  0
S  S63  1  0.75000935  0.75952543  0.98977821  1  0  -0.22019  -0.460877  0  2.129983  0
O  O64  1  0.74998481  0.78783576  0.68948201  1  0  -0.278052  -0.554262  0  2.284403  0
O  O65  1  0.24999743  0.71222221  0.18946837  1  0  -0.27818  -0.554535  0  2.283998  0
O  O66  1  0.24996369  0.21225114  0.31056134  1  0  -0.278403  -0.554746  0  2.283904  0
O  O67  1  0.74995862  0.28777321  0.81053030  1  0  -0.278228  -0.554482  0  2.283741  0
O  O68  1  0.74994616  0.93476028  0.52303020  1  0  -0.275344  -0.533435  0  2.253188  0
O  O69  1  0.25001221  0.56522322  0.02302344  1  0  -0.275405  -0.533736  0  2.25247  0
O  O70  1  0.24997340  0.06528842  0.47695258  1  0  -0.275707  -0.534199  0  2.252508  0
O  O71  1  0.75004957  0.43473802  0.97694047  1  0  -0.275646  -0.534054  0  2.252772  0
