# generated using pymatgen
data_ZnH9C11(NO2)3
_symmetry_space_group_name_H-M   'P 1'
_cell_length_a   9.85055097
_cell_length_b   9.88133115
_cell_length_c   15.80300000
_cell_angle_alpha   103.56973763
_cell_angle_beta   90.00000000
_cell_angle_gamma   119.89714469
_symmetry_Int_Tables_number   1
_chemical_formula_structural   ZnH9C11(NO2)3
_chemical_formula_sum   'Zn4 H36 C44 N12 O24'
_cell_volume   1283.73927543
_cell_formula_units_Z   4
loop_
 _symmetry_equiv_pos_site_id
 _symmetry_equiv_pos_as_xyz
  1  'x, y, z'
loop_
 _atom_site_type_symbol
 _atom_site_label
 _atom_site_symmetry_multiplicity
 _atom_site_fract_x
 _atom_site_fract_y
 _atom_site_fract_z
 _atom_site_occupancy
 _atom_site_hle17_bader_spin_density
 _atom_site_hle17_ddec_charge
 _atom_site_hle17_ddec_spin_density
 _atom_site_hle17_ddec_sum_bond_order
 _atom_site_hle17_magmom
 _atom_site_hse06_10hf_bader_spin_density
 _atom_site_hse06_10hf_ddec_charge
 _atom_site_hse06_10hf_ddec_spin_density
 _atom_site_hse06_10hf_ddec_sum_bond_order
 _atom_site_hse06_10hf_magmom
 _atom_site_hse06_bader_spin_density
 _atom_site_hse06_ddec_charge
 _atom_site_hse06_ddec_spin_density
 _atom_site_hse06_ddec_sum_bond_order
 _atom_site_hse06_magmom
 _atom_site_pbe_bader_charge
 _atom_site_pbe_bader_spin_density
 _atom_site_pbe_cm5_charge
 _atom_site_pbe_ddec_charge
 _atom_site_pbe_ddec_spin_density
 _atom_site_pbe_ddec_sum_bond_order
 _atom_site_pbe_magmom
Zn  Zn0  1  0.21021257  0.27182118  0.78605279  1  0  1.098741  0  1.73576  0  0  0.921432  0  2.19161  0  0  0.969891  0  2.133948  0  1.303514  0  0.691876  0.886131  0  2.232199  0
Zn  Zn1  1  0.93839739  0.72816368  0.71395727  1  0  1.098832  0  1.735685  0  0  0.921557  0  2.19158  0  0  0.970014  0  2.133914  0  1.305254  0  0.691906  0.886268  0  2.232139  0
Zn  Zn2  1  0.78978881  0.72818066  0.21394774  1  0  1.09873  0  1.735758  0  0  0.921432  0  2.191586  0  0  0.969888  0  2.133921  0  1.303512  0  0.691875  0.886133  0  2.232173  0
Zn  Zn3  1  0.06160176  0.27183573  0.28604290  1  0  1.09882  0  1.7357  0  0  0.921535  0  2.191592  0  0  0.970005  0  2.133921  0  1.305187  0  0.691892  0.886248  0  2.232161  0
H  H4  1  0.17961912  0.30648259  0.63530486  1  0  0.416518  0  0.871913  0  0  0.391639  0  0.930448  0  0  0.401564  0  0.916016  0  0.621015  0  0.293634  0.384536  0  0.940789  0
H  H5  1  0.87312958  0.69351318  0.86470490  1  0  0.416585  0  0.87177  0  0  0.391667  0  0.930398  0  0  0.401594  0  0.915963  0  0.632683  0  0.293594  0.384564  0  0.940739  0
H  H6  1  0.82038206  0.69351682  0.36469531  1  0  0.416532  0  0.87189  0  0  0.391655  0  0.930424  0  0  0.401581  0  0.91599  0  0.621015  0  0.293638  0.384552  0  0.940764  0
H  H7  1  0.12687018  0.30648744  0.13529545  1  0  0.416531  0  0.871854  0  0  0.391646  0  0.930427  0  0  0.401573  0  0.915993  0  0.632685  0  0.29358  0.384543  0  0.940768  0
H  H8  1  0.23837467  0.48825128  0.68833786  1  0  0.418005  0  0.886636  0  0  0.387153  0  0.951016  0  0  0.397925  0  0.93531  0  0.643298  0  0.282235  0.379462  0  0.962222  0
H  H9  1  0.75012139  0.51173965  0.81167435  1  0  0.417975  0  0.886709  0  0  0.387139  0  0.951062  0  0  0.39791  0  0.935357  0  0.646302  0  0.282238  0.379452  0  0.96226  0
H  H10  1  0.76162550  0.51174813  0.31166167  1  0  0.418005  0  0.886634  0  0  0.387152  0  0.951015  0  0  0.397924  0  0.935308  0  0.643301  0  0.282235  0.379461  0  0.962221  0
H  H11  1  0.24987878  0.48825976  0.18832645  1  0  0.417972  0  0.886718  0  0  0.387131  0  0.951077  0  0  0.397904  0  0.935372  0  0.646303  0  0.282227  0.379445  0  0.962275  0
H  H12  1  0.20373026  0.04084939  0.84985111  1  0  0.428113  0  0.867903  0  0  0.390075  0  0.948569  0  0  0.401334  0  0.931812  0  0.641148  0  0.294564  0.382128  0  0.96038  0
H  H13  1  0.16288933  0.95913426  0.65015877  1  0  0.428083  0  0.868095  0  0  0.390068  0  0.948603  0  0  0.401325  0  0.931847  0  0.64189  0  0.294551  0.382128  0  0.960402  0
H  H14  1  0.79627032  0.95914881  0.15014825  1  0  0.428097  0  0.867951  0  0  0.390062  0  0.948588  0  0  0.401322  0  0.931832  0  0.64118  0  0.294548  0.382117  0  0.960399  0
H  H15  1  0.83711185  0.04086515  0.34984203  1  0  0.428074  0  0.868116  0  0  0.390067  0  0.948602  0  0  0.401323  0  0.931853  0  0.641899  0  0.294575  0.382126  0  0.960406  0
H  H16  1  0.07530358  0.06595781  0.89515532  1  0  0.437729  0  0.845052  0  0  0.412398  0  0.899719  0  0  0.421744  0  0.886174  0  0.639751  0  0.302244  0.405623  0  0.909605  0
H  H17  1  0.00935553  0.93403068  0.60485464  1  0  0.437905  0  0.844659  0  0  0.412555  0  0.899473  0  0  0.421903  0  0.885925  0  0.644604  0  0.302299  0.405779  0  0.909362  0
H  H18  1  0.92469659  0.93404160  0.10484358  1  0  0.437718  0  0.845049  0  0  0.412387  0  0.899728  0  0  0.421734  0  0.886183  0  0.63974  0  0.302243  0.405613  0  0.909614  0
H  H19  1  0.99064626  0.06596994  0.39514571  1  0  0.437867  0  0.84469  0  0  0.412522  0  0.89951  0  0  0.42187  0  0.885962  0  0.644595  0  0.30229  0.405747  0  0.909399  0
H  H20  1  0.77012833  0.28660175  0.76341012  1  0  0.140317  0  0.932587  0  0  0.149554  0  0.991642  0  0  0.154037  0  0.989105  0  0.121358  0  0.119373  0.146425  0  0.993424  0
H  H21  1  0.48351070  0.71337583  0.73659507  1  0  0.140333  0  0.932606  0  0  0.149622  0  0.991611  0  0  0.154104  0  0.989082  0  0.112335  0  0.119414  0.146499  0  0.993374  0
H  H22  1  0.22987245  0.71339887  0.23658959  1  0  0.140332  0  0.932558  0  0  0.149567  0  0.991617  0  0  0.154055  0  0.98907  0  0.121377  0  0.119374  0.146434  0  0.993407  0
H  H23  1  0.51649007  0.28662479  0.26340464  1  0  0.140327  0  0.932623  0  0  0.149607  0  0.991626  0  0  0.154092  0  0.989093  0  0.112335  0  0.119397  0.146485  0  0.99339  0
H  H24  1  0.01605916  0.52194259  0.40674585  1  0  0.090299  0  0.955965  0  0  0.098545  0  1.018209  0  0  0.101587  0  1.015718  0  0.128944  0  0.118152  0.096052  0  1.020662  0
H  H25  1  0.49413935  0.47806773  0.09324643  1  0  0.090444  0  0.955786  0  0  0.098655  0  1.018074  0  0  0.101703  0  1.015571  0  0.127263  0  0.118237  0.096158  0  1.020527  0
H  H26  1  0.98394060  0.47805803  0.59325513  1  0  0.090261  0  0.955953  0  0  0.098505  0  1.018205  0  0  0.101549  0  1.015712  0  0.128933  0  0.118129  0.096012  0  1.020659  0
H  H27  1  0.50585980  0.52193168  0.90675437  1  0  0.090444  0  0.955802  0  0  0.098654  0  1.018089  0  0  0.101702  0  1.015587  0  0.127383  0  0.118237  0.096157  0  1.020543  0
H  H28  1  0.18260965  0.77778392  0.52759973  1  0  0.131049  0  0.962782  0  0  0.135287  0  1.031032  0  0  0.139755  0  1.02802  0  0.159319  0  0.11234  0.132029  0  1.033339  0
H  H29  1  0.40484666  0.22222883  0.97239227  1  0  0.130972  0  0.962803  0  0  0.135113  0  1.031153  0  0  0.139575  0  1.028151  0  0.156142  0  0.112254  0.131859  0  1.033448  0
H  H30  1  0.81739112  0.22221670  0.47239999  1  0  0.131037  0  0.9628  0  0  0.135275  0  1.031039  0  0  0.139753  0  1.027997  0  0.159321  0  0.112339  0.132016  0  1.03335  0
H  H31  1  0.59515249  0.77777058  0.02760853  1  0  0.130982  0  0.962786  0  0  0.135098  0  1.031167  0  0  0.139562  0  1.028165  0  0.156143  0  0.112254  0.131846  0  1.033459  0
H  H32  1  0.57673241  0.70432972  0.48014548  1  0  0.128581  0  0.935094  0  0  0.134973  0  0.996132  0  0  0.139475  0  0.993257  0  0.132744  0  0.117367  0.131647  0  0.998554  0
H  H33  1  0.87243890  0.29570486  0.01983011  1  0  0.128522  0  0.935055  0  0  0.134899  0  0.996126  0  0  0.1394  0  0.993251  0  0.131078  0  0.117282  0.131556  0  0.998569  0
H  H34  1  0.42326836  0.29567091  0.51985297  1  0  0.128588  0  0.935065  0  0  0.134968  0  0.996111  0  0  0.139472  0  0.993235  0  0.132773  0  0.117359  0.131637  0  0.998542  0
H  H35  1  0.12756026  0.70429455  0.98017069  1  0  0.128538  0  0.935027  0  0  0.134918  0  0.996097  0  0  0.13942  0  0.993222  0  0.131066  0  0.117289  0.131575  0  0.998539  0
H  H36  1  0.39309567  0.45064685  0.36233180  1  0  0.094559  0  0.938591  0  0  0.102397  0  1.001605  0  0  0.105455  0  0.998866  0  0.131013  0  0.121192  0.100061  0  1.00381  0
H  H37  1  0.94248201  0.54938167  0.13764542  1  0  0.094591  0  0.93848  0  0  0.102437  0  1.001494  0  0  0.105477  0  0.998774  0  0.107862  0  0.121231  0.1001  0  1.003699  0
H  H38  1  0.60690288  0.54935135  0.63766755  1  0  0.09454  0  0.938659  0  0  0.102383  0  1.001656  0  0  0.105444  0  0.998904  0  0.130997  0  0.121191  0.100046  0  1.003863  0
H  H39  1  0.05751775  0.45061896  0.86235492  1  0  0.094588  0  0.938484  0  0  0.102421  0  1.001507  0  0  0.105471  0  0.998776  0  0.107837  0  0.121226  0.100083  0  1.003713  0
C  C40  1  0.53408868  0.13092977  0.68916936  1  0  0.132325  0  3.751864  0  0  0.134899  0  4.008831  0  0  0.137485  0  4.026735  0  0.53538  0  0.124172  0.132892  0  3.99726  0
C  C41  1  0.40315927  0.86906479  0.81083453  1  0  0.132345  0  3.751878  0  0  0.135102  0  4.008613  0  0  0.137709  0  4.026469  0  0.548276  0  0.12421  0.133096  0  3.997046  0
C  C42  1  0.46591270  0.86907207  0.31083053  1  0  0.132374  0  3.751856  0  0  0.134975  0  4.008752  0  0  0.137558  0  4.026673  0  0.535393  0  0.124184  0.132969  0  3.99718  0
C  C43  1  0.59684029  0.13093341  0.18916609  1  0  0.132377  0  3.751868  0  0  0.135069  0  4.00867  0  0  0.13767  0  4.026534  0  0.548285  0  0.124204  0.133065  0  3.997099  0
C  C44  1  0.69204483  0.17945987  0.71061429  1  0  -0.167972  0  3.643737  0  0  -0.200888  0  3.891418  0  0  -0.207505  0  3.912054  0  -0.020382  0  -0.070417  -0.196596  0  3.87784  0
C  C45  1  0.51258168  0.82052984  0.78938635  1  0  -0.16788  0  3.643653  0  0  -0.200965  0  3.891373  0  0  -0.207606  0  3.912015  0  0.030028  0  -0.070376  -0.196669  0  3.877795  0
C  C46  1  0.30795655  0.82054197  0.28938560  1  0  -0.167988  0  3.643686  0  0  -0.200931  0  3.891393  0  0  -0.207552  0  3.912037  0  -0.020367  0  -0.07042  -0.196639  0  3.877814  0
C  C47  1  0.48741909  0.17947078  0.21061336  1  0  -0.167911  0  3.643745  0  0  -0.200955  0  3.89146  0  0  -0.207592  0  3.912101  0  0.03003  0  -0.070345  -0.196657  0  3.877875  0
C  C48  1  0.74591504  0.08357348  0.66024998  1  0  0.160573  0  3.725024  0  0  0.164702  0  3.979552  0  0  0.168466  0  3.994985  0  0.561825  0  0.136128  0.162309  0  3.968429  0
C  C49  1  0.66234636  0.91642350  0.83974097  1  0  0.160474  0  3.725035  0  0  0.16462  0  3.979576  0  0  0.168391  0  3.995006  0  0.508254  0  0.136025  0.162228  0  3.968453  0
C  C50  1  0.25408574  0.91642714  0.33974973  1  0  0.160543  0  3.725039  0  0  0.164678  0  3.979572  0  0  0.168442  0  3.995003  0  0.561822  0  0.136118  0.162284  0  3.96845  0
C  C51  1  0.33765441  0.08357712  0.16025937  1  0  0.160505  0  3.725056  0  0  0.164634  0  3.97958  0  0  0.168403  0  3.995017  0  0.508445  0  0.136047  0.162243  0  3.968458  0
C  C52  1  0.49939162  0.91042712  0.58283644  1  0  0.345377  0  3.767638  0  0  0.33191  0  4.03147  0  0  0.342905  0  4.045524  0  1.090356  0  0.24719  0.324675  0  4.021638  0
C  C53  1  0.58898814  0.08958806  0.91715085  1  0  0.345545  0  3.767493  0  0  0.332039  0  4.031446  0  0  0.343037  0  4.045495  0  1.113227  0  0.247211  0.324808  0  4.021612  0
C  C54  1  0.50060935  0.08957593  0.41716299  1  0  0.3454  0  3.76755  0  0  0.331914  0  4.031385  0  0  0.342908  0  4.045438  0  1.090319  0  0.247204  0.324679  0  4.021554  0
C  C55  1  0.41101102  0.91041135  0.08284995  1  0  0.345488  0  3.767514  0  0  0.332021  0  4.031403  0  0  0.343016  0  4.045455  0  1.113333  0  0.247197  0.324789  0  4.021569  0
C  C56  1  0.46417635  0.22777776  0.73814086  1  0  0.637559  0  3.882058  0  0  0.579802  0  4.183342  0  0  0.613171  0  4.176287  0  1.634935  0  0.221107  0.557468  0  4.18709  0
C  C57  1  0.23639449  0.77221680  0.76187378  1  0  0.637634  0  3.88224  0  0  0.579836  0  4.183437  0  0  0.613241  0  4.176317  0  1.604311  0  0.221127  0.557488  0  4.187191  0
C  C58  1  0.53582605  0.77222408  0.26185903  1  0  0.637476  0  3.882163  0  0  0.579748  0  4.183392  0  0  0.613114  0  4.176345  0  1.63497  0  0.221104  0.557412  0  4.187137  0
C  C59  1  0.76360609  0.22778140  0.23812620  1  0  0.637623  0  3.882189  0  0  0.579843  0  4.18338  0  0  0.613254  0  4.176253  0  1.604311  0  0.221137  0.557502  0  4.187128  0
C  C60  1  0.91697144  0.13004577  0.67534163  1  0  0.625474  0  3.91013  0  0  0.571461  0  4.207108  0  0  0.604873  0  4.198737  0  1.621814  0  0.216441  0.549037  0  4.211317  0
C  C61  1  0.78691955  0.86993787  0.82465369  1  0  0.625708  0  3.910002  0  0  0.571629  0  4.207065  0  0  0.605041  0  4.198689  0  1.623547  0  0.216501  0.549204  0  4.21128  0
C  C62  1  0.08302934  0.86995485  0.32465744  1  0  0.62554  0  3.910065  0  0  0.57151  0  4.207072  0  0  0.604922  0  4.1987  0  1.621816  0  0.216474  0.549088  0  4.211279  0
C  C63  1  0.21307960  0.13006154  0.17534584  1  0  0.62575  0  3.909934  0  0  0.571696  0  4.206961  0  0  0.605105  0  4.198588  0  1.623566  0  0.216541  0.54927  0  4.211177  0
C  C64  1  0.14050646  0.56714891  0.42662425  1  0  0.122537  0  3.689474  0  0  0.092657  0  3.938749  0  0  0.098637  0  3.957991  0  0.447025  0  0.047602  0.088634  0  3.926205  0
C  C65  1  0.57338338  0.43286990  0.07336421  1  0  0.122283  0  3.689327  0  0  0.092415  0  3.938521  0  0  0.098393  0  3.957761  0  0.430252  0  0.0475  0.088398  0  3.925975  0
C  C66  1  0.85949330  0.43285171  0.57337546  1  0  0.122519  0  3.689432  0  0  0.092637  0  3.938711  0  0  0.098615  0  3.957956  0  0.447102  0  0.047597  0.088614  0  3.926167  0
C  C67  1  0.42661517  0.56712830  0.92663641  1  0  0.122299  0  3.689269  0  0  0.092439  0  3.938462  0  0  0.098418  0  3.957702  0  0.430195  0  0.047521  0.088421  0  3.925918  0
C  C68  1  0.23368339  0.70846716  0.49300648  1  0  -0.122856  0  3.663142  0  0  -0.144939  0  3.914399  0  0  -0.151933  0  3.935478  0  -0.043662  0  -0.072998  -0.140026  0  3.900323  0
C  C69  1  0.52524129  0.29154922  0.00697972  1  0  -0.12262  0  3.663173  0  0  -0.144593  0  3.914514  0  0  -0.151581  0  3.935594  0  0.024089  0  -0.072889  -0.139675  0  3.900431  0
C  C70  1  0.76631698  0.29153467  0.50699277  1  0  -0.122864  0  3.663175  0  0  -0.144926  0  3.91439  0  0  -0.151917  0  3.935477  0  -0.043705  0  -0.072988  -0.140014  0  3.900315  0
C  C71  1  0.47475746  0.70845140  0.99302126  1  0  -0.122652  0  3.663252  0  0  -0.14461  0  3.914599  0  0  -0.151603  0  3.935683  0  0.024029  0  -0.072897  -0.139693  0  3.900515  0
C  C72  1  0.39324887  0.75951950  0.51360903  1  0  0.051187  0  3.720716  0  0  0.060425  0  3.95423  0  0  0.062835  0  3.975927  0  0.028983  0  0.01818  0.058645  0  3.939467  0
C  C73  1  0.63375178  0.24049810  0.98637419  1  0  0.050775  0  3.720964  0  0  0.059874  0  3.954719  0  0  0.06228  0  3.976411  0  -0.081178  0  0.018012  0.058089  0  3.939956  0
C  C74  1  0.60675251  0.24048233  0.48638960  1  0  0.051252  0  3.72069  0  0  0.060511  0  3.954157  0  0  0.062921  0  3.975853  0  0.029317  0  0.018199  0.058731  0  3.939394  0
C  C75  1  0.36624718  0.75949889  0.01362625  1  0  0.050829  0  3.721024  0  0  0.059931  0  3.954752  0  0  0.062342  0  3.976446  0  -0.081271  0  0.018011  0.058147  0  3.939988  0
C  C76  1  0.45272853  0.66617840  0.46636634  1  0  -0.124757  0  3.681  0  0  -0.145726  0  3.930042  0  0  -0.152559  0  3.9502  0  -0.0126  0  -0.070872  -0.141226  0  3.916653  0
C  C77  1  0.78657779  0.33384284  0.03361425  1  0  -0.124545  0  3.680712  0  0  -0.145454  0  3.929808  0  0  -0.15228  0  3.949956  0  0.046387  0  -0.070708  -0.140936  0  3.916424  0
C  C78  1  0.54727062  0.33382101  0.53363382  1  0  -0.124797  0  3.681  0  0  -0.145764  0  3.930028  0  0  -0.152598  0  3.950185  0  -0.012968  0  -0.070863  -0.141257  0  3.916642  0
C  C79  1  0.21342136  0.66615657  0.96638655  1  0  -0.124567  0  3.680672  0  0  -0.145489  0  3.92977  0  0  -0.15232  0  3.949923  0  0.046542  0  -0.070712  -0.140973  0  3.916387  0
C  C80  1  0.35192806  0.52636137  0.40116493  1  0  0.128642  0  3.689383  0  0  0.09801  0  3.9368  0  0  0.104366  0  3.955972  0  0.452883  0  0.049851  0.094091  0  3.923531  0
C  C81  1  0.82559754  0.47366715  0.09881483  1  0  0.128673  0  3.689366  0  0  0.097985  0  3.936788  0  0  0.104353  0  3.955963  0  0.467314  0  0.049801  0.094067  0  3.923511  0
C  C82  1  0.64807068  0.47363926  0.59883415  1  0  0.128634  0  3.689537  0  0  0.098015  0  3.93695  0  0  0.104377  0  3.956124  0  0.452887  0  0.049828  0.094095  0  3.92368  0
C  C83  1  0.17440161  0.52633226  0.90118597  1  0  0.128635  0  3.689378  0  0  0.097969  0  3.936795  0  0  0.104331  0  3.955968  0  0.467309  0  0.049778  0.094052  0  3.923518  0
N  N84  1  0.43661489  0.99521079  0.62625770  1  0  -0.352142  0  3.020382  0  0  -0.325449  0  3.28076  0  0  -0.336142  0  3.294547  0  -1.194745  0  -0.292688  -0.31813  0  3.271316  0
N  N85  1  0.44141746  0.00479468  0.87374209  1  0  -0.352285  0  3.020491  0  0  -0.325617  0  3.280781  0  0  -0.336327  0  3.294567  0  -1.213807  0  -0.292791  -0.318299  0  3.271338  0
N  N86  1  0.56338750  0.00479105  0.37374219  1  0  -0.352192  0  3.020317  0  0  -0.325511  0  3.280694  0  0  -0.336209  0  3.294482  0  -1.194756  0  -0.292736  -0.318191  0  3.271248  0
N  N87  1  0.55858210  0.99520351  0.12625790  1  0  -0.352287  0  3.020485  0  0  -0.325613  0  3.280774  0  0  -0.336322  0  3.294564  0  -1.213873  0  -0.292789  -0.318292  0  3.271328  0
N  N88  1  0.65115818  0.95062048  0.59581790  1  0  -0.343601  0  2.99176  0  0  -0.323103  0  3.252139  0  0  -0.332419  0  3.262523  0  -1.173832  0  -0.290943  -0.317033  0  3.245154  0
N  N89  1  0.70055650  0.04939348  0.90416478  1  0  -0.34358  0  2.991357  0  0  -0.323007  0  3.251724  0  0  -0.332323  0  3.262102  0  -1.151911  0  -0.290842  -0.316938  0  3.244736  0
N  N90  1  0.34884320  0.04938135  0.40418135  1  0  -0.343596  0  2.991789  0  0  -0.323088  0  3.252165  0  0  -0.332403  0  3.262545  0  -1.173834  0  -0.290936  -0.317018  0  3.24518  0
N  N91  1  0.29944326  0.95060714  0.09583556  1  0  -0.343582  0  2.991402  0  0  -0.323016  0  3.251753  0  0  -0.332331  0  3.262134  0  -1.152131  0  -0.290863  -0.316948  0  3.244765  0
N  N92  1  0.19824943  0.47765786  0.38169291  1  0  -0.335362  0  3.325946  0  0  -0.247901  0  3.598071  0  0  -0.26799  0  3.614303  0  -1.252741  0  -0.331721  -0.233769  0  3.586232  0
N  N93  1  0.72062142  0.52236216  0.11829383  1  0  -0.335291  0  3.326032  0  0  -0.247724  0  3.598043  0  0  -0.267808  0  3.614264  0  -1.24924  0  -0.331652  -0.233594  0  3.586206  0
N  N94  1  0.80174931  0.52234276  0.61830680  1  0  -0.335299  0  3.32593  0  0  -0.247886  0  3.5981  0  0  -0.267975  0  3.614328  0  -1.252728  0  -0.331704  -0.233754  0  3.586263  0
N  N95  1  0.27937834  0.47763846  0.88170715  1  0  -0.335254  0  3.326028  0  0  -0.247696  0  3.598043  0  0  -0.267782  0  3.614269  0  -1.249277  0  -0.331636  -0.233567  0  3.586207  0
O  O96  1  0.31367866  0.16020717  0.71946791  1  0  -0.63314  0  2.148346  0  0  -0.547749  0  2.412327  0  0  -0.578335  0  2.39846  0  -1.176625  0  -0.303519  -0.526765  0  2.421973  0
O  O97  1  0.15347273  0.83979346  0.78054762  1  0  -0.633146  0  2.148485  0  0  -0.547747  0  2.412455  0  0  -0.578341  0  2.398557  0  -1.168565  0  -0.303441  -0.526767  0  2.422151  0
O  O98  1  0.68632374  0.83979467  0.28053135  1  0  -0.633101  0  2.148381  0  0  -0.547721  0  2.412327  0  0  -0.578288  0  2.398432  0  -1.176665  0  -0.30349  -0.526746  0  2.421998  0
O  O99  1  0.84652622  0.16020353  0.21945219  1  0  -0.63314  0  2.148484  0  0  -0.547743  0  2.41245  0  0  -0.578342  0  2.398552  0  -1.168642  0  -0.303432  -0.526786  0  2.422168  0
O  O100  1  0.55187059  0.36202282  0.79278742  1  0  -0.606959  0  1.963098  0  0  -0.556251  0  2.189643  0  0  -0.579948  0  2.180307  0  -1.191385  0  -0.303065  -0.539593  0  2.195397  0
O  O101  1  0.18983156  0.63796689  0.70722588  1  0  -0.607121  0  1.963049  0  0  -0.556399  0  2.18958  0  0  -0.580107  0  2.180217  0  -1.18278  0  -0.303169  -0.539746  0  2.195362  0
O  O102  1  0.44812958  0.63797659  0.20721274  1  0  -0.606943  0  1.963107  0  0  -0.556246  0  2.189639  0  0  -0.579943  0  2.180303  0  -1.191382  0  -0.303083  -0.53959  0  2.195402  0
O  O103  1  0.81017003  0.36203131  0.29277348  1  0  -0.607122  0  1.963009  0  0  -0.556395  0  2.189524  0  0  -0.580103  0  2.180158  0  -1.182744  0  -0.303188  -0.539736  0  2.195292  0
O  O104  1  0.97994376  0.19193283  0.75627258  1  0  -0.637576  0  2.05982  0  0  -0.569529  0  2.329589  0  0  -0.599286  0  2.316491  0  -1.163581  0  -0.317009  -0.548437  0  2.337786  0
O  O105  1  0.78801228  0.80804596  0.74372646  1  0  -0.637556  0  2.059731  0  0  -0.569507  0  2.329549  0  0  -0.599262  0  2.316449  0  -1.164082  0  -0.316972  -0.548418  0  2.337749  0
O  O106  1  0.02005702  0.80806779  0.24372714  1  0  -0.637557  0  2.059831  0  0  -0.569504  0  2.3296  0  0  -0.599258  0  2.316501  0  -1.163607  0  -0.316998  -0.548411  0  2.337796  0
O  O107  1  0.21198788  0.19195345  0.25627370  1  0  -0.637561  0  2.059684  0  0  -0.569531  0  2.329505  0  0  -0.599289  0  2.316407  0  -1.164085  0  -0.31697  -0.548443  0  2.337706  0
O  O108  1  0.98360864  0.10874618  0.60991596  1  0  -0.604061  0  1.946835  0  0  -0.550577  0  2.151336  0  0  -0.572451  0  2.139251  0  -1.170643  0  -0.304857  -0.534707  0  2.159109  0
O  O109  1  0.87484103  0.89122898  0.89008634  1  0  -0.604238  0  1.946737  0  0  -0.550728  0  2.151248  0  0  -0.572604  0  2.139158  0  -1.174497  0  -0.304931  -0.534857  0  2.159022  0
O  O110  1  0.01639213  0.89125445  0.39008438  1  0  -0.604112  0  1.946787  0  0  -0.550626  0  2.151296  0  0  -0.572497  0  2.13921  0  -1.170631  0  -0.304876  -0.534755  0  2.159068  0
O  O111  1  0.12515934  0.10877285  0.10991355  1  0  -0.604251  0  1.946724  0  0  -0.550754  0  2.151226  0  0  -0.572627  0  2.139138  0  -1.174502  0  -0.304962  -0.53488  0  2.159  0
O  O112  1  0.26658660  0.40251085  0.67780098  1  0  -0.835582  0  1.840102  0  0  -0.78117  0  2.017418  0  0  -0.802012  0  1.985645  0  -1.252196  0  -0.585771  -0.766355  0  2.039916  0
O  O113  1  0.86407226  0.59748250  0.82221159  1  0  -0.835666  0  1.840053  0  0  -0.781227  0  2.017459  0  0  -0.802071  0  1.985683  0  -1.265841  0  -0.585752  -0.766411  0  2.039949  0
O  O114  1  0.73341357  0.59748856  0.32219856  1  0  -0.835588  0  1.840101  0  0  -0.781177  0  2.017404  0  0  -0.802021  0  1.985628  0  -1.252191  0  -0.58577  -0.766362  0  2.039902  0
O  O115  1  0.13592750  0.40251812  0.17778876  1  0  -0.835613  0  1.840138  0  0  -0.781193  0  2.017473  0  0  -0.80204  0  1.985695  0  -1.265848  0  -0.585727  -0.766375  0  2.039964  0
O  O116  1  0.18032956  0.12697422  0.87684380  1  0  -0.823599  0  1.874975  0  0  -0.764056  0  2.074085  0  0  -0.784956  0  2.040018  0  -1.243254  0  -0.569823  -0.749235  0  2.09791  0
O  O117  1  0.05336223  0.87301307  0.62316724  1  0  -0.823718  0  1.874815  0  0  -0.764198  0  2.073908  0  0  -0.785098  0  2.039845  0  -1.248851  0  -0.569822  -0.749376  0  2.097724  0
O  O118  1  0.81967000  0.87302398  0.12315555  1  0  -0.823576  0  1.875013  0  0  -0.764044  0  2.074142  0  0  -0.784947  0  2.040071  0  -1.24325  0  -0.569818  -0.749223  0  2.09796  0
O  O119  1  0.94663814  0.12698877  0.37683518  1  0  -0.823684  0  1.874862  0  0  -0.76418  0  2.073974  0  0  -0.78509  0  2.039904  0  -1.248796  0  -0.569852  -0.749353  0  2.09778  0
