# generated using pymatgen
data_LiH19C12N2O
_symmetry_space_group_name_H-M   'P 1'
_cell_length_a   7.39657234
_cell_length_b   9.75079517
_cell_length_c   16.46511722
_cell_angle_alpha   98.49285403
_cell_angle_beta   89.99996623
_cell_angle_gamma   89.99929856
_symmetry_Int_Tables_number   1
_chemical_formula_structural   LiH19C12N2O
_chemical_formula_sum   'Li4 H76 C48 N8 O4'
_cell_volume   1174.48295576
_cell_formula_units_Z   4
loop_
 _symmetry_equiv_pos_site_id
 _symmetry_equiv_pos_as_xyz
  1  'x, y, z'
loop_
 _atom_site_type_symbol
 _atom_site_label
 _atom_site_symmetry_multiplicity
 _atom_site_fract_x
 _atom_site_fract_y
 _atom_site_fract_z
 _atom_site_occupancy
 _atom_site_hle17_bader_spin_density
 _atom_site_hle17_ddec_charge
 _atom_site_hle17_ddec_spin_density
 _atom_site_hle17_ddec_sum_bond_order
 _atom_site_hle17_magmom
 _atom_site_hse06_10hf_bader_spin_density
 _atom_site_hse06_10hf_ddec_charge
 _atom_site_hse06_10hf_ddec_spin_density
 _atom_site_hse06_10hf_ddec_sum_bond_order
 _atom_site_hse06_10hf_magmom
 _atom_site_hse06_bader_spin_density
 _atom_site_hse06_ddec_charge
 _atom_site_hse06_ddec_spin_density
 _atom_site_hse06_ddec_sum_bond_order
 _atom_site_hse06_magmom
 _atom_site_pbe_bader_spin_density
 _atom_site_pbe_cm5_charge
 _atom_site_pbe_ddec_charge
 _atom_site_pbe_ddec_spin_density
 _atom_site_pbe_ddec_sum_bond_order
 _atom_site_pbe_magmom
Li  Li0  1  0.29417283  0.26727591  0.67070416  1  0  0.79446  0  0.454267  0  0  0.726526  0  0.590055  0  0  0.736728  0  0.576024  0  0  0.517522  0.719306  0  0.599956  0
Li  Li1  1  0.79417081  0.23272340  0.82929251  1  0  0.794476  0  0.454231  0  0  0.726537  0  0.590027  0  0  0.736739  0  0.575998  0  0  0.517501  0.719315  0  0.599932  0
Li  Li2  1  0.70582892  0.73272343  0.32929514  1  0  0.794468  0  0.454248  0  0  0.726521  0  0.590047  0  0  0.736726  0  0.576018  0  0  0.517531  0.719302  0  0.599947  0
Li  Li3  1  0.20582418  0.76727707  0.17070387  1  0  0.794441  0  0.454302  0  0  0.726516  0  0.5901  0  0  0.736712  0  0.576075  0  0  0.51754  0.719289  0  0.600005  0
H  H4  1  0.96992518  0.39475235  0.91586599  1  0  0.071385  0  1.036556  0  0  0.077007  0  1.111819  0  0  0.08065  0  1.109938  0  0  0.095188  0.074521  0  1.113155  0
H  H5  1  0.46991911  0.10525053  0.58412918  1  0  0.071413  0  1.036372  0  0  0.076997  0  1.111699  0  0  0.08064  0  1.109818  0  0  0.095192  0.074512  0  1.113033  0
H  H6  1  0.03007793  0.60524798  0.08413523  1  0  0.071334  0  1.036539  0  0  0.076966  0  1.111813  0  0  0.080605  0  1.109938  0  0  0.095178  0.07448  0  1.113148  0
H  H7  1  0.53006642  0.89475000  0.41586538  1  0  0.071495  0  1.036615  0  0  0.077126  0  1.111837  0  0  0.08077  0  1.109953  0  0  0.095222  0.07464  0  1.113173  0
H  H8  1  0.85414937  0.62875536  0.95777311  1  0  0.061565  0  0.985373  0  0  0.07532  0  1.049894  0  0  0.077992  0  1.047373  0  0  0.088526  0.073395  0  1.051849  0
H  H9  1  0.35414990  0.87124295  0.54222671  1  0  0.061568  0  0.985278  0  0  0.075314  0  1.049818  0  0  0.077988  0  1.047293  0  0  0.0885  0.073386  0  1.051779  0
H  H10  1  0.14584833  0.37124267  0.04223518  1  0  0.06152  0  0.985461  0  0  0.075302  0  1.049961  0  0  0.077978  0  1.04743  0  0  0.088481  0.073369  0  1.051932  0
H  H11  1  0.64584374  0.12874708  0.45777107  1  0  0.061575  0  0.985378  0  0  0.075348  0  1.049878  0  0  0.078019  0  1.047357  0  0  0.088539  0.073422  0  1.051837  0
H  H12  1  0.88326280  0.81170004  0.86661750  1  0  0.06592  0  0.993964  0  0  0.075467  0  1.062928  0  0  0.078748  0  1.06161  0  0  0.082935  0.072724  0  1.064639  0
H  H13  1  0.38325533  0.68830223  0.63337967  1  0  0.06599  0  0.993829  0  0  0.07553  0  1.062792  0  0  0.078824  0  1.061461  0  0  0.08297  0.072789  0  1.064498  0
H  H14  1  0.11674436  0.18829812  0.13338655  1  0  0.066007  0  0.993867  0  0  0.075503  0  1.062882  0  0  0.078795  0  1.061554  0  0  0.082939  0.072761  0  1.06459  0
H  H15  1  0.61674507  0.31169408  0.36661691  1  0  0.065991  0  0.993856  0  0  0.075515  0  1.062829  0  0  0.078817  0  1.06149  0  0  0.08297  0.072775  0  1.06454  0
H  H16  1  0.04846453  0.75251053  0.73290872  1  0  0.07708  0  0.970893  0  0  0.092004  0  1.030062  0  0  0.093986  0  1.029348  0  0  0.094377  0.091584  0  1.028469  0
H  H17  1  0.54845695  0.74749295  0.76708618  1  0  0.077006  0  0.970803  0  0  0.091966  0  1.029918  0  0  0.093947  0  1.029216  0  0  0.094392  0.091542  0  1.028333  0
H  H18  1  0.95153857  0.24748454  0.26709442  1  0  0.077036  0  0.970605  0  0  0.091897  0  1.029871  0  0  0.093866  0  1.029188  0  0  0.094351  0.091479  0  1.028278  0
H  H19  1  0.45153128  0.25251278  0.23290828  1  0  0.077069  0  0.970722  0  0  0.091923  0  1.029987  0  0  0.093906  0  1.029266  0  0  0.094363  0.091504  0  1.028394  0
H  H20  1  0.15884731  0.51722547  0.68764034  1  0  0.074666  0  0.980066  0  0  0.086391  0  1.046227  0  0  0.090087  0  1.044243  0  0  0.097664  0.083708  0  1.047889  0
H  H21  1  0.65884806  0.98277783  0.81236000  1  0  0.074687  0  0.980003  0  0  0.086372  0  1.046208  0  0  0.090066  0  1.044227  0  0  0.097695  0.08369  0  1.047873  0
H  H22  1  0.84115173  0.48277782  0.31236604  1  0  0.074641  0  0.980084  0  0  0.086345  0  1.046263  0  0  0.09005  0  1.044248  0  0  0.097695  0.083665  0  1.047927  0
H  H23  1  0.34112936  0.01722566  0.18763971  1  0  0.074613  0  0.980011  0  0  0.086299  0  1.046233  0  0  0.090003  0  1.044234  0  0  0.097634  0.083615  0  1.047895  0
H  H24  1  0.19434599  0.03454386  0.72586822  1  0  0.079262  0  0.980701  0  0  0.097833  0  1.04793  0  0  0.097807  0  1.05013  0  0  0.096601  0.097883  0  1.046303  0
H  H25  1  0.69434165  0.46545334  0.77412705  1  0  0.079322  0  0.980543  0  0  0.097853  0  1.047812  0  0  0.097826  0  1.050015  0  0  0.096599  0.097903  0  1.046186  0
H  H26  1  0.80565712  0.96545443  0.27413159  1  0  0.079268  0  0.980618  0  0  0.09781  0  1.047879  0  0  0.097785  0  1.050078  0  0  0.096603  0.097859  0  1.046253  0
H  H27  1  0.30565469  0.53454722  0.22586630  1  0  0.079276  0  0.980644  0  0  0.097865  0  1.047857  0  0  0.097839  0  1.050067  0  0  0.096614  0.097914  0  1.04623  0
H  H28  1  0.01939919  0.98106078  0.78881716  1  0  0.083895  0  0.95787  0  0  0.106854  0  1.021339  0  0  0.10632  0  1.022406  0  0  0.101547  0.106971  0  1.020106  0
H  H29  1  0.51940078  0.51894078  0.71118182  1  0  0.08385  0  0.957868  0  0  0.106803  0  1.021339  0  0  0.106266  0  1.022411  0  0  0.10151  0.106919  0  1.020107  0
H  H30  1  0.98059850  0.01894156  0.21118609  1  0  0.083855  0  0.957927  0  0  0.106824  0  1.021362  0  0  0.106289  0  1.022434  0  0  0.101531  0.106941  0  1.020131  0
H  H31  1  0.48060098  0.48105764  0.28881375  1  0  0.083871  0  0.957896  0  0  0.106846  0  1.02134  0  0  0.106309  0  1.022415  0  0  0.101527  0.106963  0  1.020108  0
H  H32  1  0.96202966  0.07321050  0.70661475  1  0  0.092756  0  0.964028  0  0  0.10814  0  1.03629  0  0  0.109366  0  1.03582  0  0  0.107932  0.106905  0  1.036967  0
H  H33  1  0.46202624  0.42679643  0.79338628  1  0  0.092716  0  0.964026  0  0  0.108086  0  1.036295  0  0  0.10931  0  1.035822  0  0  0.107899  0.106851  0  1.036973  0
H  H34  1  0.03797074  0.92679181  0.29338970  1  0  0.092707  0  0.963995  0  0  0.108097  0  1.036255  0  0  0.109322  0  1.035785  0  0  0.107907  0.106862  0  1.036933  0
H  H35  1  0.53797552  0.57320616  0.20660909  1  0  0.092756  0  0.963942  0  0  0.108162  0  1.036184  0  0  0.109386  0  1.035712  0  0  0.107947  0.106926  0  1.03686  0
H  H36  1  0.34016651  0.15764239  0.84788370  1  0  0.095082  0  0.950053  0  0  0.10991  0  1.02283  0  0  0.111819  0  1.022181  0  0  0.102111  0.108569  0  1.023195  0
H  H37  1  0.84016298  0.34234701  0.65211686  1  0  0.095009  0  0.950055  0  0  0.109886  0  1.02279  0  0  0.111797  0  1.022125  0  0  0.102061  0.108542  0  1.023158  0
H  H38  1  0.65983795  0.84234857  0.15211782  1  0  0.095011  0  0.950064  0  0  0.109883  0  1.0228  0  0  0.111795  0  1.022135  0  0  0.10206  0.108541  0  1.023166  0
H  H39  1  0.15983607  0.65764832  0.34787780  1  0  0.095081  0  0.950036  0  0  0.10992  0  1.022793  0  0  0.111833  0  1.02213  0  0  0.102096  0.108579  0  1.023158  0
H  H40  1  0.21549689  0.28384327  0.91552342  1  0  0.079956  0  0.971753  0  0  0.099536  0  1.039245  0  0  0.100018  0  1.039082  0  0  0.09651  0.098909  0  1.039699  0
H  H41  1  0.71548737  0.21615043  0.58447758  1  0  0.079938  0  0.971773  0  0  0.099527  0  1.03927  0  0  0.100009  0  1.039106  0  0  0.096494  0.098897  0  1.039729  0
H  H42  1  0.78451433  0.71614765  0.08447932  1  0  0.07994  0  0.971766  0  0  0.099528  0  1.039267  0  0  0.100013  0  1.039099  0  0  0.096498  0.098897  0  1.039727  0
H  H43  1  0.28450897  0.78385211  0.41551901  1  0  0.07996  0  0.971729  0  0  0.099569  0  1.039195  0  0  0.100051  0  1.03903  0  0  0.096522  0.098939  0  1.03965  0
H  H44  1  0.16399610  0.10452906  0.91168074  1  0  0.074715  0  0.95758  0  0  0.099826  0  1.019175  0  0  0.099448  0  1.020524  0  0  0.096288  0.100096  0  1.017995  0
H  H45  1  0.66399586  0.39546523  0.58831728  1  0  0.074677  0  0.95765  0  0  0.099853  0  1.019168  0  0  0.099479  0  1.020511  0  0  0.096298  0.100121  0  1.017987  0
H  H46  1  0.83600430  0.89546401  0.08831977  1  0  0.07471  0  0.957674  0  0  0.099868  0  1.019208  0  0  0.099495  0  1.020552  0  0  0.096299  0.100136  0  1.018027  0
H  H47  1  0.33600725  0.60453112  0.41167809  1  0  0.074738  0  0.957571  0  0  0.099833  0  1.019191  0  0  0.099456  0  1.020539  0  0  0.096316  0.100104  0  1.018014  0
H  H48  1  0.41028161  0.33400208  0.48634585  1  0  0.041752  0  0.959155  0  0  0.053795  0  1.030702  0  0  0.054094  0  1.030904  0  0  0.094327  0.05365  0  1.030294  0
H  H49  1  0.91028111  0.16599267  0.01365174  1  0  0.041723  0  0.959207  0  0  0.053743  0  1.030779  0  0  0.054043  0  1.030981  0  0  0.094301  0.053598  0  1.030369  0
H  H50  1  0.58971609  0.66599523  0.51365204  1  0  0.041722  0  0.95914  0  0  0.053728  0  1.030714  0  0  0.054027  0  1.030915  0  0  0.094303  0.053584  0  1.030304  0
H  H51  1  0.08971929  0.83400777  0.98634585  1  0  0.041729  0  0.959218  0  0  0.053752  0  1.03077  0  0  0.054051  0  1.030973  0  0  0.094304  0.053609  0  1.030358  0
H  H52  1  0.28181417  0.47534210  0.54006636  1  0  0.045919  0  0.933643  0  0  0.061496  0  1.000315  0  0  0.06202  0  0.998647  0  0  0.102486  0.061218  0  1.001205  0
H  H53  1  0.78181261  0.02465736  0.95992972  1  0  0.045921  0  0.933555  0  0  0.061494  0  1.000241  0  0  0.062019  0  0.998569  0  0  0.102475  0.061215  0  1.001131  0
H  H54  1  0.71818893  0.52465734  0.45992992  1  0  0.045903  0  0.93361  0  0  0.06146  0  1.000293  0  0  0.061985  0  0.998623  0  0  0.102464  0.061182  0  1.001184  0
H  H55  1  0.21818373  0.97534621  0.04006757  1  0  0.045897  0  0.933618  0  0  0.061477  0  1.000277  0  0  0.062003  0  0.998606  0  0  0.102466  0.061198  0  1.001167  0
H  H56  1  0.20751717  0.37506146  0.37705430  1  0  0.08511  0  0.951593  0  0  0.101847  0  1.014696  0  0  0.101903  0  1.016934  0  0  0.096722  0.101377  0  1.014079  0
H  H57  1  0.70751987  0.12493318  0.12294270  1  0  0.085139  0  0.951575  0  0  0.10184  0  1.014731  0  0  0.101896  0  1.016968  0  0  0.096705  0.101368  0  1.014115  0
H  H58  1  0.79248324  0.62492965  0.62294237  1  0  0.085134  0  0.951578  0  0  0.101838  0  1.014727  0  0  0.101894  0  1.016964  0  0  0.096696  0.101365  0  1.014114  0
H  H59  1  0.29248729  0.87506620  0.87705539  1  0  0.085121  0  0.951547  0  0  0.101837  0  1.014675  0  0  0.101892  0  1.016911  0  0  0.096721  0.101366  0  1.014057  0
H  H60  1  0.02837158  0.42414078  0.44681404  1  0  0.068238  0  0.953091  0  0  0.086453  0  1.012304  0  0  0.087071  0  1.012994  0  0  0.090409  0.086055  0  1.011674  0
H  H61  1  0.52837247  0.07586075  0.05318366  1  0  0.068168  0  0.953177  0  0  0.086443  0  1.01233  0  0  0.08706  0  1.01302  0  0  0.090406  0.086045  0  1.011696  0
H  H62  1  0.97162882  0.57585656  0.55318264  1  0  0.068176  0  0.953144  0  0  0.086421  0  1.012327  0  0  0.087039  0  1.013014  0  0  0.090391  0.086025  0  1.011691  0
H  H63  1  0.47162793  0.92414270  0.94681726  1  0  0.068214  0  0.953094  0  0  0.086436  0  1.012289  0  0  0.087055  0  1.012977  0  0  0.090394  0.086041  0  1.011652  0
H  H64  1  0.16707468  0.13564085  0.38155281  1  0  0.081443  0  0.962824  0  0  0.096012  0  1.026284  0  0  0.095819  0  1.029578  0  0  0.091724  0.096235  0  1.023838  0
H  H65  1  0.66708436  0.36435610  0.11844929  1  0  0.081383  0  0.962898  0  0  0.095942  0  1.026357  0  0  0.09575  0  1.02965  0  0  0.091694  0.096163  0  1.02391  0
H  H66  1  0.83291896  0.86435318  0.61845023  1  0  0.081419  0  0.962862  0  0  0.095958  0  1.026322  0  0  0.095766  0  1.029617  0  0  0.091707  0.09618  0  1.023876  0
H  H67  1  0.33292686  0.63564414  0.88155497  1  0  0.081493  0  0.962791  0  0  0.096044  0  1.026244  0  0  0.095851  0  1.029539  0  0  0.091761  0.096267  0  1.023799  0
H  H68  1  0.94211432  0.18691032  0.40837241  1  0  0.075824  0  0.957787  0  0  0.092711  0  1.019561  0  0  0.093018  0  1.020732  0  0  0.091046  0.092474  0  1.018691  0
H  H69  1  0.44212248  0.31309333  0.09163030  1  0  0.075823  0  0.957773  0  0  0.092722  0  1.019511  0  0  0.093031  0  1.020682  0  0  0.091044  0.092484  0  1.018641  0
H  H70  1  0.05787932  0.81308583  0.59162962  1  0  0.07584  0  0.957802  0  0  0.092706  0  1.019556  0  0  0.093015  0  1.020729  0  0  0.091047  0.092466  0  1.018685  0
H  H71  1  0.55788603  0.68691104  0.90837496  1  0  0.075827  0  0.957878  0  0  0.092714  0  1.019636  0  0  0.09302  0  1.020809  0  0  0.091046  0.092477  0  1.018767  0
H  H72  1  0.99272588  0.14099743  0.54585054  1  0  0.051306  0  0.939426  0  0  0.068015  0  1.000831  0  0  0.068394  0  1.000519  0  0  0.104661  0.067576  0  1.001263  0
H  H73  1  0.49272873  0.35900915  0.95415228  1  0  0.051326  0  0.939401  0  0  0.068021  0  1.000824  0  0  0.068407  0  1.000504  0  0  0.104665  0.067582  0  1.001256  0
H  H74  1  0.00727047  0.85900801  0.45415361  1  0  0.051347  0  0.939361  0  0  0.068057  0  1.000785  0  0  0.068443  0  1.000464  0  0  0.104683  0.067617  0  1.001216  0
H  H75  1  0.50727303  0.64100041  0.04585289  1  0  0.051372  0  0.939582  0  0  0.068087  0  1.000956  0  0  0.068457  0  1.000657  0  0  0.104709  0.067648  0  1.001388  0
H  H76  1  0.20772500  0.07250735  0.51066121  1  0  0.044203  0  0.951706  0  0  0.054591  0  1.024458  0  0  0.054777  0  1.024558  0  0  0.09715  0.054181  0  1.024708  0
H  H77  1  0.70772774  0.42749471  0.98934121  1  0  0.044175  0  0.951818  0  0  0.054617  0  1.024511  0  0  0.054804  0  1.024612  0  0  0.097158  0.054206  0  1.024763  0
H  H78  1  0.79226864  0.92749392  0.48934315  1  0  0.044168  0  0.951778  0  0  0.054613  0  1.02448  0  0  0.054799  0  1.024583  0  0  0.097156  0.054204  0  1.024727  0
H  H79  1  0.29227672  0.57250969  0.01066284  1  0  0.044263  0  0.951605  0  0  0.054614  0  1.02439  0  0  0.0548  0  1.02449  0  0  0.097161  0.054203  0  1.024642  0
C  C80  1  0.06870212  0.43119805  0.79533496  1  0  0.239828  0  3.956511  0  0  0.237929  0  4.199813  0  0  0.252631  0  4.217101  0  0  0.087428  0.228106  0  4.187935  0
C  C81  1  0.56870021  0.06881067  0.70466327  1  0  0.23989  0  3.956194  0  0  0.237937  0  4.199587  0  0  0.252644  0  4.216868  0  0  0.087477  0.228112  0  4.187712  0
C  C82  1  0.93130098  0.56880840  0.20466990  1  0  0.239763  0  3.956617  0  0  0.237905  0  4.19988  0  0  0.252612  0  4.217168  0  0  0.087457  0.228081  0  4.188002  0
C  C83  1  0.43129749  0.93119510  0.29532998  1  0  0.239718  0  3.956611  0  0  0.23786  0  4.19987  0  0  0.252563  0  4.217156  0  0  0.087425  0.228037  0  4.187985  0
C  C84  1  0.98459626  0.47048120  0.87382787  1  0  -0.286612  0  3.80917  0  0  -0.295673  0  4.057428  0  0  -0.304974  0  4.07706  0  0  -0.136542  -0.288753  0  4.043495  0
C  C85  1  0.48458459  0.02951314  0.62616951  1  0  -0.286684  0  3.809396  0  0  -0.295715  0  4.057705  0  0  -0.305021  0  4.077342  0  0  -0.136591  -0.288792  0  4.043767  0
C  C86  1  0.01541766  0.52952109  0.12617720  1  0  -0.286634  0  3.809323  0  0  -0.295741  0  4.057592  0  0  -0.305046  0  4.077229  0  0  -0.136599  -0.288815  0  4.043652  0
C  C87  1  0.51540905  0.97047173  0.37382717  1  0  -0.286834  0  3.809047  0  0  -0.295938  0  4.057349  0  0  -0.305241  0  4.076978  0  0  -0.136597  -0.289016  0  4.043415  0
C  C88  1  0.91964481  0.60483626  0.89789736  1  0  -0.056316  0  3.888564  0  0  -0.066888  0  4.131642  0  0  -0.063068  0  4.151739  0  0  -0.107256  -0.069327  0  4.117404  0
C  C89  1  0.41964892  0.89517903  0.60210472  1  0  -0.056237  0  3.888919  0  0  -0.066782  0  4.131948  0  0  -0.06296  0  4.152052  0  0  -0.107138  -0.069222  0  4.117704  0
C  C90  1  0.08035695  0.39517745  0.10210821  1  0  -0.056046  0  3.888682  0  0  -0.066616  0  4.131692  0  0  -0.062792  0  4.151794  0  0  -0.107082  -0.069056  0  4.117449  0
C  C91  1  0.58035824  0.10483281  0.39789399  1  0  -0.056196  0  3.888523  0  0  -0.06677  0  4.131591  0  0  -0.062949  0  4.151693  0  0  -0.107239  -0.069211  0  4.117356  0
C  C92  1  0.93738196  0.70790099  0.84799227  1  0  -0.172928  0  3.867586  0  0  -0.183168  0  4.12069  0  0  -0.191116  0  4.143881  0  0  -0.138968  -0.177357  0  4.105277  0
C  C93  1  0.43737549  0.79210700  0.65200485  1  0  -0.173101  0  3.867451  0  0  -0.183339  0  4.120576  0  0  -0.191303  0  4.143763  0  0  -0.139055  -0.177523  0  4.105159  0
C  C94  1  0.06262926  0.29209924  0.15201199  1  0  -0.173182  0  3.867334  0  0  -0.183372  0  4.120417  0  0  -0.191334  0  4.143603  0  0  -0.139008  -0.177556  0  4.105003  0
C  C95  1  0.56261815  0.20789245  0.34799083  1  0  -0.173143  0  3.867698  0  0  -0.18336  0  4.1208  0  0  -0.191327  0  4.143978  0  0  -0.13907  -0.177552  0  4.105394  0
C  C96  1  0.02848967  0.67383953  0.77269939  1  0  -0.050974  0  3.841133  0  0  -0.062702  0  4.082828  0  0  -0.058689  0  4.103359  0  0  -0.101812  -0.06563  0  4.068235  0
C  C97  1  0.52848358  0.82617661  0.72729615  1  0  -0.050944  0  3.841601  0  0  -0.062684  0  4.083279  0  0  -0.058674  0  4.103814  0  0  -0.101885  -0.065608  0  4.068684  0
C  C98  1  0.97152290  0.32617738  0.22730346  1  0  -0.050873  0  3.841388  0  0  -0.062551  0  4.083053  0  0  -0.058539  0  4.103586  0  0  -0.101837  -0.065481  0  4.06846  0
C  C99  1  0.47150465  0.17383525  0.27270195  1  0  -0.050852  0  3.841094  0  0  -0.062524  0  4.082749  0  0  -0.058509  0  4.103286  0  0  -0.101759  -0.065454  0  4.068158  0
C  C100  1  0.09324101  0.54130672  0.74748396  1  0  -0.202645  0  3.75449  0  0  -0.213979  0  4.003182  0  0  -0.222394  0  4.022559  0  0  -0.109265  -0.209225  0  3.990944  0
C  C101  1  0.59323547  0.95867865  0.75251099  1  0  -0.202685  0  3.754537  0  0  -0.213961  0  4.003269  0  0  -0.22238  0  4.022648  0  0  -0.109334  -0.209212  0  3.991039  0
C  C102  1  0.90676750  0.45868018  0.25251413  1  0  -0.202719  0  3.754988  0  0  -0.214042  0  4.003646  0  0  -0.222453  0  4.023027  0  0  -0.109351  -0.209294  0  3.991421  0
C  C103  1  0.40675412  0.04131442  0.24748952  1  0  -0.202528  0  3.754701  0  0  -0.213821  0  4.003321  0  0  -0.22224  0  4.022708  0  0  -0.109235  -0.209067  0  3.99108  0
C  C104  1  0.06223859  0.06394831  0.75455407  1  0  -0.206184  0  3.712964  0  0  -0.300389  0  3.968348  0  0  -0.297342  0  3.97659  0  0  -0.144937  -0.301794  0  3.961739  0
C  C105  1  0.56222801  0.43605009  0.74544376  1  0  -0.206144  0  3.712716  0  0  -0.300323  0  3.96818  0  0  -0.297269  0  3.976416  0  0  -0.144838  -0.301726  0  3.961571  0
C  C106  1  0.93776722  0.93604789  0.24544615  1  0  -0.206144  0  3.712814  0  0  -0.300338  0  3.968236  0  0  -0.297295  0  3.976475  0  0  -0.144895  -0.301745  0  3.961629  0
C  C107  1  0.43776563  0.56395150  0.25455029  1  0  -0.206245  0  3.712899  0  0  -0.300491  0  3.968304  0  0  -0.297447  0  3.976547  0  0  -0.144933  -0.30189  0  3.961693  0
C  C108  1  0.20574185  0.18432779  0.87485113  1  0  -0.177692  0  3.670185  0  0  -0.270011  0  3.921616  0  0  -0.268088  0  3.93098  0  0  -0.142773  -0.270847  0  3.914759  0
C  C109  1  0.70574149  0.31566712  0.62514756  1  0  -0.177616  0  3.670115  0  0  -0.27003  0  3.921502  0  0  -0.268096  0  3.930858  0  0  -0.142711  -0.270859  0  3.914641  0
C  C110  1  0.79425990  0.81566631  0.12514949  1  0  -0.177638  0  3.670116  0  0  -0.270045  0  3.921508  0  0  -0.26812  0  3.930865  0  0  -0.142719  -0.270877  0  3.914647  0
C  C111  1  0.29425756  0.68433129  0.37484862  1  0  -0.177722  0  3.670116  0  0  -0.270054  0  3.921522  0  0  -0.268124  0  3.930882  0  0  -0.142769  -0.270887  0  3.914666  0
C  C112  1  0.27376808  0.36965267  0.50605742  1  0  0.100522  0  3.622935  0  0  0.04176  0  3.898989  0  0  0.04937  0  3.903618  0  0  -0.068491  0.036821  0  3.895304  0
C  C113  1  0.77376882  0.13034888  0.99394069  1  0  0.100522  0  3.622957  0  0  0.04179  0  3.899003  0  0  0.049401  0  3.903632  0  0  -0.068448  0.036851  0  3.895316  0
C  C114  1  0.72623233  0.63034673  0.49394007  1  0  0.100515  0  3.622891  0  0  0.041839  0  3.898863  0  0  0.04945  0  3.903492  0  0  -0.068447  0.036899  0  3.895178  0
C  C115  1  0.22623023  0.86965569  0.00605791  1  0  0.100489  0  3.623104  0  0  0.04177  0  3.899065  0  0  0.04938  0  3.903696  0  0  -0.068471  0.036831  0  3.895378  0
C  C116  1  0.14360932  0.35335696  0.43382751  1  0  -0.146389  0  3.676359  0  0  -0.186282  0  3.934143  0  0  -0.188565  0  3.947924  0  0  -0.167119  -0.184709  0  3.924817  0
C  C117  1  0.64361446  0.14664034  0.06617037  1  0  -0.146325  0  3.676459  0  0  -0.186274  0  3.934265  0  0  -0.188557  0  3.948047  0  0  -0.167118  -0.184699  0  3.924932  0
C  C118  1  0.85638838  0.64663926  0.56617210  1  0  -0.146279  0  3.676431  0  0  -0.186228  0  3.934191  0  0  -0.18851  0  3.947971  0  0  -0.167061  -0.184653  0  3.924859  0
C  C119  1  0.35638864  0.85336102  0.93383095  1  0  -0.146359  0  3.676359  0  0  -0.186247  0  3.934087  0  0  -0.188527  0  3.94786  0  0  -0.167121  -0.184672  0  3.924759  0
C  C120  1  0.08395995  0.20081388  0.42712805  1  0  -0.14715  0  3.62879  0  0  -0.182581  0  3.876801  0  0  -0.184944  0  3.890718  0  0  -0.167824  -0.180817  0  3.867019  0
C  C121  1  0.58396668  0.29918911  0.07287283  1  0  -0.147126  0  3.628795  0  0  -0.182525  0  3.876786  0  0  -0.184892  0  3.890708  0  0  -0.167764  -0.180757  0  3.866996  0
C  C122  1  0.91603369  0.79918334  0.57287287  1  0  -0.14721  0  3.62895  0  0  -0.182524  0  3.876875  0  0  -0.184893  0  3.890801  0  0  -0.167828  -0.180756  0  3.867084  0
C  C123  1  0.41604183  0.70081424  0.92713173  1  0  -0.147211  0  3.628829  0  0  -0.182615  0  3.876807  0  0  -0.184978  0  3.890723  0  0  -0.167855  -0.180855  0  3.867031  0
C  C124  1  0.11658612  0.16226952  0.51311402  1  0  0.105493  0  3.557901  0  0  0.053455  0  3.820462  0  0  0.060377  0  3.826009  0  0  -0.063409  0.048955  0  3.816614  0
C  C125  1  0.61659165  0.33773450  0.98688679  1  0  0.105468  0  3.55803  0  0  0.053381  0  3.820598  0  0  0.060299  0  3.826147  0  0  -0.063445  0.048881  0  3.816751  0
C  C126  1  0.88340752  0.83773183  0.48688791  1  0  0.105484  0  3.557993  0  0  0.053329  0  3.820634  0  0  0.060245  0  3.826184  0  0  -0.063452  0.048828  0  3.816787  0
C  C127  1  0.38341551  0.66226888  0.01311656  1  0  0.105374  0  3.55803  0  0  0.053348  0  3.820575  0  0  0.060277  0  3.826118  0  0  -0.063474  0.048848  0  3.81673  0
N  N128  1  0.12317977  0.30210750  0.76253288  1  0  -0.606949  0  2.980772  0  0  -0.562672  0  3.267312  0  0  -0.581521  0  3.27845  0  0  -0.441125  -0.550238  0  3.259841  0
N  N129  1  0.62317168  0.19789235  0.73746630  1  0  -0.606965  0  2.981007  0  0  -0.562673  0  3.267583  0  0  -0.581513  0  3.278715  0  0  -0.441101  -0.550239  0  3.260113  0
N  N130  1  0.87682739  0.69789481  0.23747158  1  0  -0.606932  0  2.98094  0  0  -0.562659  0  3.267452  0  0  -0.581511  0  3.278588  0  0  -0.441148  -0.550229  0  3.25998  0
N  N131  1  0.37682467  0.80210504  0.26252917  1  0  -0.606947  0  2.98082  0  0  -0.562686  0  3.267355  0  0  -0.581532  0  3.278497  0  0  -0.441127  -0.550243  0  3.259875  0
N  N132  1  0.06978288  0.19554403  0.81092452  1  0  -0.126304  0  3.353007  0  0  -0.04298  0  3.604982  0  0  -0.051772  0  3.62357  0  0  -0.340287  -0.037013  0  3.591989  0
N  N133  1  0.56977855  0.30445424  0.68907512  1  0  -0.126192  0  3.352933  0  0  -0.04287  0  3.604903  0  0  -0.051668  0  3.623488  0  0  -0.340301  -0.036905  0  3.591909  0
N  N134  1  0.93022157  0.80445208  0.18907873  1  0  -0.12612  0  3.352846  0  0  -0.04282  0  3.604802  0  0  -0.051607  0  3.623388  0  0  -0.340272  -0.036849  0  3.591804  0
N  N135  1  0.43021914  0.69554312  0.31092095  1  0  -0.126154  0  3.35293  0  0  -0.042851  0  3.604906  0  0  -0.051648  0  3.623492  0  0  -0.340299  -0.036892  0  3.591913  0
O  O136  1  0.20112293  0.28197382  0.56182079  1  0  -0.410249  0  2.231113  0  0  -0.335554  0  2.487744  0  0  -0.34998  0  2.484849  0  0  -0.303336  -0.325507  0  2.489409  0
O  O137  1  0.70112640  0.21802937  0.93818053  1  0  -0.410161  0  2.2311  0  0  -0.335469  0  2.487735  0  0  -0.349895  0  2.48484  0  0  -0.3033  -0.325421  0  2.489402  0
O  O138  1  0.79887477  0.71803066  0.43818084  1  0  -0.410176  0  2.231125  0  0  -0.335475  0  2.487756  0  0  -0.349905  0  2.484866  0  0  -0.303317  -0.325429  0  2.489423  0
O  O139  1  0.29887130  0.78197614  0.06182120  1  0  -0.410179  0  2.231174  0  0  -0.335501  0  2.487781  0  0  -0.349926  0  2.484887  0  0  -0.303307  -0.325451  0  2.489445  0
