# generated using pymatgen
data_Cd3H36C42N8(Cl3O)2
_symmetry_space_group_name_H-M   'P 1'
_cell_length_a   10.42500794
_cell_length_b   10.79601727
_cell_length_c   11.75642162
_cell_angle_alpha   83.30185723
_cell_angle_beta   63.97963584
_cell_angle_gamma   74.35072641
_symmetry_Int_Tables_number   1
_chemical_formula_structural   Cd3H36C42N8(Cl3O)2
_chemical_formula_sum   'Cd3 H36 C42 N8 Cl6 O2'
_cell_volume   1144.97048777
_cell_formula_units_Z   1
loop_
 _symmetry_equiv_pos_site_id
 _symmetry_equiv_pos_as_xyz
  1  'x, y, z'
loop_
 _atom_site_type_symbol
 _atom_site_label
 _atom_site_symmetry_multiplicity
 _atom_site_fract_x
 _atom_site_fract_y
 _atom_site_fract_z
 _atom_site_occupancy
 _atom_site_hle17_bader_spin_density
 _atom_site_hle17_ddec_charge
 _atom_site_hle17_ddec_spin_density
 _atom_site_hle17_ddec_sum_bond_order
 _atom_site_hle17_magmom
 _atom_site_hse06_10hf_bader_spin_density
 _atom_site_hse06_10hf_ddec_charge
 _atom_site_hse06_10hf_ddec_spin_density
 _atom_site_hse06_10hf_ddec_sum_bond_order
 _atom_site_hse06_10hf_magmom
 _atom_site_hse06_bader_spin_density
 _atom_site_hse06_ddec_charge
 _atom_site_hse06_ddec_spin_density
 _atom_site_hse06_ddec_sum_bond_order
 _atom_site_hse06_magmom
 _atom_site_pbe_bader_spin_density
 _atom_site_pbe_cm5_charge
 _atom_site_pbe_ddec_charge
 _atom_site_pbe_ddec_spin_density
 _atom_site_pbe_ddec_sum_bond_order
 _atom_site_pbe_magmom
Cd  Cd0  1  0.00000176  0.99998977  0.99999814  1  0  0.963406  0  2.009282  0  0  0.799124  0  2.477407  0  0  0.845184  0  2.435988  0  0  0.608053  0.765879  0  2.507054  0
Cd  Cd1  1  0.06323931  0.65313722  0.98921269  1  0  0.950435  0  1.948651  0  0  0.782182  0  2.409749  0  0  0.830664  0  2.367384  0  0  0.590533  0.746979  0  2.439976  0
Cd  Cd2  1  0.93677054  0.34684665  0.01078601  1  0  0.950484  0  1.948579  0  0  0.782246  0  2.409661  0  0  0.830725  0  2.367299  0  0  0.590532  0.747041  0  2.439886  0
H  H3  1  0.42597270  0.51712475  0.24119956  1  0  0.111042  0  0.972511  0  0  0.120389  0  1.033381  0  0  0.122802  0  1.034301  0  0  0.110603  0.118624  0  1.033049  0
H  H4  1  0.57404516  0.48286643  0.75880711  1  0  0.111099  0  0.972442  0  0  0.120468  0  1.03327  0  0  0.122883  0  1.034186  0  0  0.110607  0.118702  0  1.03294  0
H  H5  1  0.53534323  0.28651231  0.17472399  1  0  0.105648  0  0.944022  0  0  0.114446  0  1.00597  0  0  0.117533  0  1.003594  0  0  0.107703  0.112241  0  1.007647  0
H  H6  1  0.46468649  0.71348311  0.82527671  1  0  0.10572  0  0.944001  0  0  0.114521  0  1.005933  0  0  0.117606  0  1.003562  0  0  0.107784  0.112315  0  1.007609  0
H  H7  1  0.45761409  0.19839843  0.03247182  1  0  0.101478  0  0.935366  0  0  0.113938  0  0.990468  0  0  0.11739  0  0.98881  0  0  0.106726  0.110915  0  0.99311  0
H  H8  1  0.54242277  0.80159385  0.96753068  1  0  0.101397  0  0.935472  0  0  0.113905  0  0.990518  0  0  0.117358  0  0.988858  0  0  0.106707  0.110882  0  0.993161  0
H  H9  1  0.28032748  0.34774260  0.95671260  1  0  0.077471  0  0.984031  0  0  0.080792  0  1.058768  0  0  0.083043  0  1.057013  0  0  0.098372  0.079135  0  1.059954  0
H  H10  1  0.71968784  0.65223635  0.04330407  1  0  0.077487  0  0.98401  0  0  0.080702  0  1.058864  0  0  0.082932  0  1.057161  0  0  0.098337  0.079066  0  1.06002  0
H  H11  1  0.13734649  0.67848327  0.44635460  1  0  0.098512  0  0.990917  0  0  0.107017  0  1.05813  0  0  0.108471  0  1.059752  0  0  0.099494  0.106545  0  1.056076  0
H  H12  1  0.86265883  0.32152082  0.55365640  1  0  0.098479  0  0.99086  0  0  0.107  0  1.058074  0  0  0.108441  0  1.059716  0  0  0.099455  0.106529  0  1.056019  0
H  H13  1  0.24592049  0.63001175  0.60266187  1  0  0.099756  0  0.964182  0  0  0.108431  0  1.029249  0  0  0.111257  0  1.028103  0  0  0.0931  0.106114  0  1.030565  0
H  H14  1  0.75410144  0.36998017  0.39733462  1  0  0.099815  0  0.963997  0  0  0.108447  0  1.029135  0  0  0.111273  0  1.027982  0  0  0.093039  0.106129  0  1.030449  0
H  H15  1  0.62098145  0.76811367  0.33759934  1  0  0.103287  0  0.958664  0  0  0.113603  0  1.019512  0  0  0.115935  0  1.019212  0  0  0.099645  0.111989  0  1.019802  0
H  H16  1  0.37901555  0.23190305  0.66238630  1  0  0.103273  0  0.958646  0  0  0.113579  0  1.019517  0  0  0.115908  0  1.019225  0  0  0.099636  0.111969  0  1.019811  0
H  H17  1  0.51156656  0.82022048  0.18495230  1  0  0.100523  0  0.963495  0  0  0.110428  0  1.028286  0  0  0.113213  0  1.026592  0  0  0.097484  0.108784  0  1.028878  0
H  H18  1  0.48841906  0.17978058  0.81504549  1  0  0.100521  0  0.963476  0  0  0.110406  0  1.028314  0  0  0.113193  0  1.026613  0  0  0.097466  0.108736  0  1.028934  0
H  H19  1  0.53164266  0.74774817  0.59620242  1  0  0.115335  0  0.936287  0  0  0.139038  0  0.991392  0  0  0.139785  0  0.992184  0  0  0.092427  0.138651  0  0.990367  0
H  H20  1  0.46836582  0.25226523  0.40378760  1  0  0.115192  0  0.936439  0  0  0.138913  0  0.991518  0  0  0.139658  0  0.992313  0  0  0.09237  0.138528  0  0.990489  0
H  H21  1  0.61342164  0.58992479  0.53466491  1  0  0.102954  0  0.975405  0  0  0.123782  0  1.041334  0  0  0.12387  0  1.043462  0  0  0.086641  0.1239  0  1.039414  0
H  H22  1  0.38657847  0.41008331  0.46534088  1  0  0.103056  0  0.975435  0  0  0.123843  0  1.041399  0  0  0.123928  0  1.043532  0  0  0.08668  0.123962  0  1.039478  0
H  H23  1  0.43358203  0.62560628  0.66174016  1  0  0.104312  0  0.960404  0  0  0.12604  0  1.022715  0  0  0.127241  0  1.022472  0  0  0.083872  0.124777  0  1.023378  0
H  H24  1  0.56641630  0.37441423  0.33825475  1  0  0.104332  0  0.960518  0  0  0.126087  0  1.022809  0  0  0.12729  0  1.022564  0  0  0.083907  0.124808  0  1.02349  0
H  H25  1  0.26316469  0.05714349  0.17933378  1  0  0.07846  0  0.910938  0  0  0.088154  0  0.975696  0  0  0.089416  0  0.974123  0  0  0.107983  0.086431  0  0.97886  0
H  H26  1  0.73681644  0.94284923  0.82067605  1  0  0.078584  0  0.910942  0  0  0.088316  0  0.975644  0  0  0.089579  0  0.974064  0  0  0.108025  0.086596  0  0.978808  0
H  H27  1  0.06819098  0.09197913  0.23420600  1  0  0.094451  0  0.935747  0  0  0.101535  0  1.005651  0  0  0.103129  0  1.004112  0  0  0.108617  0.100454  0  1.006878  0
H  H28  1  0.93179052  0.90801637  0.76578637  1  0  0.094513  0  0.935587  0  0  0.101607  0  1.005493  0  0  0.103199  0  1.003952  0  0  0.108715  0.100529  0  1.00672  0
H  H29  1  0.12236271  0.25979853  0.27870636  1  0  0.105298  0  0.970171  0  0  0.115868  0  1.032897  0  0  0.118418  0  1.032689  0  0  0.09924  0.113819  0  1.033686  0
H  H30  1  0.87762028  0.74020928  0.72128575  1  0  0.105149  0  0.970176  0  0  0.115736  0  1.032923  0  0  0.11829  0  1.032701  0  0  0.099211  0.113676  0  1.033726  0
H  H31  1  0.10815177  0.44383106  0.39245115  1  0  0.079097  0  0.970742  0  0  0.089957  0  1.033768  0  0  0.091923  0  1.033737  0  0  0.093556  0.088633  0  1.03348  0
H  H32  1  0.89186595  0.55617904  0.60752285  1  0  0.079053  0  0.970726  0  0  0.089955  0  1.033694  0  0  0.091914  0  1.033689  0  0  0.09355  0.088634  0  1.033399  0
H  H33  1  0.11851035  0.41368747  0.60280502  1  0  0.092192  0  0.972478  0  0  0.101788  0  1.037277  0  0  0.104774  0  1.035863  0  0  0.08918  0.099353  0  1.038794  0
H  H34  1  0.88150153  0.58632954  0.39717051  1  0  0.092225  0  0.972472  0  0  0.101797  0  1.037322  0  0  0.10479  0  1.035896  0  0  0.089138  0.099363  0  1.038838  0
H  H35  1  0.15074252  0.19384857  0.69428929  1  0  0.092168  0  0.962949  0  0  0.099964  0  1.030467  0  0  0.102637  0  1.028858  0  0  0.092433  0.098022  0  1.031532  0
H  H36  1  0.84923941  0.80617360  0.30571186  1  0  0.092086  0  0.962993  0  0  0.099918  0  1.030475  0  0  0.102564  0  1.028909  0  0  0.092401  0.097977  0  1.031537  0
H  H37  1  0.16812767  0.00617564  0.57890708  1  0  0.121462  0  0.935774  0  0  0.133354  0  0.992471  0  0  0.136864  0  0.99092  0  0  0.106054  0.130657  0  0.993975  0
H  H38  1  0.83183396  0.99384168  0.42110000  1  0  0.121322  0  0.935835  0  0  0.133161  0  0.992606  0  0  0.136669  0  0.991059  0  0  0.105973  0.130487  0  0.994085  0
C  C39  1  0.17260843  0.89576675  0.20022179  1  0  0.324511  0  3.617789  0  0  0.287192  0  3.89671  0  0  0.302294  0  3.908734  0  0  0.249192  0.276975  0  3.888438  0
C  C40  1  0.82737207  0.10422411  0.79979104  1  0  0.324441  0  3.618042  0  0  0.287119  0  3.897005  0  0  0.302211  0  3.909049  0  0  0.248936  0.276909  0  3.888729  0
C  C41  1  0.22973820  0.69002654  0.15776193  1  0  0.25559  0  3.693876  0  0  0.215459  0  3.965331  0  0  0.229337  0  3.978808  0  0  0.240293  0.206581  0  3.95573  0
C  C42  1  0.77026430  0.30996621  0.84224037  1  0  0.255626  0  3.693705  0  0  0.215347  0  3.965339  0  0  0.22923  0  3.978815  0  0  0.240275  0.206459  0  3.955754  0
C  C43  1  0.29676178  0.55205204  0.13316875  1  0  0.153784  0  3.781712  0  0  0.156102  0  4.025937  0  0  0.16066  0  4.045766  0  0  0.121826  0.152698  0  4.013091  0
C  C44  1  0.70324551  0.44793865  0.86684381  1  0  0.153923  0  3.781829  0  0  0.156445  0  4.025815  0  0  0.160996  0  4.045662  0  0  0.121932  0.153041  0  4.012973  0
C  C45  1  0.39598854  0.47639018  0.17874051  1  0  -0.124114  0  3.67448  0  0  -0.147451  0  3.923057  0  0  -0.152589  0  3.943508  0  0  -0.075563  -0.144073  0  3.909412  0
C  C46  1  0.60402459  0.52360313  0.82127373  1  0  -0.124268  0  3.674662  0  0  -0.147685  0  3.923213  0  0  -0.152823  0  3.943661  0  0  -0.075666  -0.144305  0  3.909568  0
C  C47  1  0.45605480  0.34740507  0.14193006  1  0  0.01163  0  3.680515  0  0  -0.006139  0  3.933334  0  0  -0.002918  0  3.95055  0  0  -0.060177  -0.00804  0  3.921621  0
C  C48  1  0.54396675  0.65258883  0.85808252  1  0  0.011558  0  3.680201  0  0  -0.006203  0  3.933028  0  0  -0.002994  0  3.950266  0  0  -0.06018  -0.008104  0  3.921315  0
C  C49  1  0.41419955  0.29874704  0.06238869  1  0  -0.114569  0  3.71382  0  0  -0.134188  0  3.976054  0  0  -0.139837  0  3.995808  0  0  -0.083183  -0.131076  0  3.964625  0
C  C50  1  0.58582395  0.70124297  0.93762440  1  0  -0.114402  0  3.713607  0  0  -0.134039  0  3.975812  0  0  -0.139687  0  3.995558  0  0  -0.083085  -0.130929  0  3.964388  0
C  C51  1  0.31522993  0.38113705  0.02015965  1  0  0.13259  0  3.719566  0  0  0.102785  0  3.977909  0  0  0.109161  0  3.996263  0  0  0.047301  0.098865  0  3.965458  0
C  C52  1  0.68477913  0.61884599  0.97986158  1  0  0.132747  0  3.719867  0  0  0.102975  0  3.978334  0  0  0.109355  0  3.996673  0  0  0.04731  0.099043  0  3.965882  0
C  C53  1  0.31938179  0.74916910  0.30678069  1  0  0.156481  0  3.809454  0  0  0.147655  0  4.067586  0  0  0.15174  0  4.088307  0  0  0.075061  0.14484  0  4.053801  0
C  C54  1  0.68061424  0.25082871  0.69322784  1  0  0.156554  0  3.8092  0  0  0.147616  0  4.067543  0  0  0.1517  0  4.088264  0  0  0.075001  0.144803  0  4.053747  0
C  C55  1  0.24395626  0.69629599  0.42350806  1  0  -0.130104  0  3.750553  0  0  -0.155757  0  4.007631  0  0  -0.157073  0  4.027107  0  0  -0.0914  -0.154906  0  3.993624  0
C  C56  1  0.75604474  0.30369875  0.57649717  1  0  -0.130112  0  3.750523  0  0  -0.155722  0  4.007593  0  0  -0.157026  0  4.02707  0  0  -0.091446  -0.154871  0  3.993583  0
C  C57  1  0.30525873  0.66967379  0.51023430  1  0  -0.107991  0  3.7156  0  0  -0.122607  0  3.953529  0  0  -0.126165  0  3.97441  0  0  -0.086624  -0.119677  0  3.938996  0
C  C58  1  0.69475500  0.33032135  0.48976674  1  0  -0.108006  0  3.715665  0  0  -0.122561  0  3.953572  0  0  -0.126109  0  3.974438  0  0  -0.086462  -0.119628  0  3.939035  0
C  C59  1  0.44180460  0.69420037  0.48081613  1  0  0.163529  0  3.72187  0  0  0.191141  0  3.948598  0  0  0.192618  0  3.972954  0  0  0.002852  0.189997  0  3.932144  0
C  C60  1  0.55820735  0.30580718  0.51917318  1  0  0.163505  0  3.722076  0  0  0.191041  0  3.94887  0  0  0.192518  0  3.97323  0  0  0.002909  0.189897  0  3.932414  0
C  C61  1  0.51467558  0.74829535  0.36274347  1  0  -0.104611  0  3.701836  0  0  -0.119058  0  3.936819  0  0  -0.122658  0  3.958826  0  0  -0.086257  -0.117448  0  3.922859  0
C  C62  1  0.48532598  0.25171071  0.63724412  1  0  -0.104556  0  3.701747  0  0  -0.118979  0  3.936785  0  0  -0.122579  0  3.958792  0  0  -0.086254  -0.117374  0  3.922821  0
C  C63  1  0.45385668  0.77692832  0.27547842  1  0  -0.138182  0  3.767664  0  0  -0.16325  0  4.025046  0  0  -0.165075  0  4.044779  0  0  -0.093747  -0.162174  0  4.012053  0
C  C64  1  0.54613259  0.22308019  0.72451627  1  0  -0.138273  0  3.767462  0  0  -0.163287  0  4.024938  0  0  -0.165118  0  4.044694  0  0  -0.093755  -0.162186  0  4.011955  0
C  C65  1  0.50839382  0.66255063  0.57378298  1  0  -0.339846  0  3.732765  0  0  -0.422967  0  3.96675  0  0  -0.425328  0  3.977898  0  0  -0.244786  -0.421142  0  3.958561  0
C  C66  1  0.49161121  0.33746388  0.42621082  1  0  -0.339831  0  3.733138  0  0  -0.422924  0  3.967082  0  0  -0.425284  0  3.978234  0  0  -0.244845  -0.421084  0  3.9589  0
C  C67  1  0.16358861  0.02375274  0.24281170  1  0  0.001885  0  3.668836  0  0  -0.058001  0  3.933214  0  0  -0.051826  0  3.935474  0  0  -0.048524  -0.062457  0  3.9326  0
C  C68  1  0.83638537  0.97624790  0.75719750  1  0  0.001762  0  3.669047  0  0  -0.058143  0  3.933464  0  0  -0.051951  0  3.9357  0  0  -0.048519  -0.062613  0  3.93287  0
C  C69  1  0.14491072  0.12115517  0.42301678  1  0  0.271441  0  3.801934  0  0  0.266223  0  4.057191  0  0  0.277283  0  4.072621  0  0  0.081257  0.258504  0  4.04671  0
C  C70  1  0.85505867  0.87885608  0.57698114  1  0  0.271483  0  3.8017  0  0  0.266306  0  4.056914  0  0  0.277357  0  4.072359  0  0  0.08128  0.258594  0  4.046426  0
C  C71  1  0.13026067  0.24365679  0.36882643  1  0  -0.220155  0  3.77822  0  0  -0.236279  0  4.019035  0  0  -0.242773  0  4.040834  0  0  -0.115654  -0.232052  0  4.004778  0
C  C72  1  0.86972426  0.75635188  0.63116313  1  0  -0.219867  0  3.77783  0  0  -0.236016  0  4.018584  0  0  -0.242504  0  4.040391  0  0  -0.11553  -0.231779  0  4.004321  0
C  C73  1  0.12103750  0.34836601  0.43426622  1  0  -0.054615  0  3.814128  0  0  -0.063795  0  4.058752  0  0  -0.063474  0  4.079722  0  0  -0.098554  -0.063602  0  4.042869  0
C  C74  1  0.87897114  0.65164638  0.56570853  1  0  -0.054661  0  3.814344  0  0  -0.063821  0  4.058935  0  0  -0.063505  0  4.079904  0  0  -0.0986  -0.063626  0  4.043049  0
C  C75  1  0.12610841  0.33199849  0.55174216  1  0  -0.118655  0  3.799591  0  0  -0.135209  0  4.056226  0  0  -0.138615  0  4.076884  0  0  -0.112526  -0.132544  0  4.040783  0
C  C76  1  0.87389246  0.66801994  0.44823667  1  0  -0.118753  0  3.799694  0  0  -0.135348  0  4.056372  0  0  -0.138755  0  4.077023  0  0  -0.112477  -0.132685  0  4.04093  0
C  C77  1  0.14378360  0.20839357  0.60355966  1  0  -0.049651  0  3.781365  0  0  -0.06408  0  4.037274  0  0  -0.063632  0  4.057832  0  0  -0.097619  -0.064152  0  4.022492  0
C  C78  1  0.85620391  0.79162738  0.39643263  1  0  -0.049449  0  3.781231  0  0  -0.063877  0  4.037108  0  0  -0.063413  0  4.057661  0  0  -0.097566  -0.063949  0  4.02234  0
C  C79  1  0.15346934  0.10294923  0.53986757  1  0  -0.173241  0  3.719105  0  0  -0.197055  0  3.97143  0  0  -0.201103  0  3.98872  0  0  -0.103535  -0.194423  0  3.959865  0
C  C80  1  0.84650350  0.89706569  0.46013028  1  0  -0.173126  0  3.719317  0  0  -0.196914  0  3.971673  0  0  -0.200956  0  3.988955  0  0  -0.103443  -0.194306  0  3.960098  0
N  N81  1  0.10778165  0.88008921  0.13001364  1  0  -0.267402  0  3.183213  0  0  -0.216952  0  3.462295  0  0  -0.233557  0  3.48226  0  0  -0.228718  -0.204865  0  3.447518  0
N  N82  1  0.89221458  0.11989809  0.86998747  1  0  -0.267418  0  3.182781  0  0  -0.216932  0  3.46182  0  0  -0.233535  0  3.481792  0  0  -0.228672  -0.204848  0  3.447044  0
N  N83  1  0.14258448  0.75341638  0.10467868  1  0  -0.268108  0  3.248144  0  0  -0.216934  0  3.527922  0  0  -0.232714  0  3.548259  0  0  -0.236967  -0.205027  0  3.512475  0
N  N84  1  0.85742361  0.24657040  0.89531359  1  0  -0.268052  0  3.247609  0  0  -0.216853  0  3.527429  0  0  -0.232631  0  3.547761  0  0  -0.236928  -0.204943  0  3.511982  0
N  N85  1  0.25104384  0.77739651  0.22049098  1  0  -0.177734  0  3.469368  0  0  -0.096917  0  3.689114  0  0  -0.11338  0  3.710215  0  0  -0.198379  -0.086641  0  3.674995  0
N  N86  1  0.74894205  0.22259889  0.77952179  1  0  -0.177682  0  3.469265  0  0  -0.096875  0  3.68917  0  0  -0.113352  0  3.710308  0  0  -0.198238  -0.086598  0  3.675051  0
N  N87  1  0.25823899  0.50459880  0.05415343  1  0  -0.340172  0  3.203387  0  0  -0.279062  0  3.454387  0  0  -0.296239  0  3.474504  0  0  -0.313086  -0.267001  0  3.440611  0
N  N88  1  0.74177006  0.49538422  0.94586524  1  0  -0.340476  0  3.203843  0  0  -0.279394  0  3.454775  0  0  -0.29657  0  3.474891  0  0  -0.313179  -0.267331  0  3.441002  0
Cl  Cl89  1  0.89830616  0.50605163  0.17113096  1  0  -0.54029  0  0.965561  0  0  -0.471581  0  1.235313  0  0  -0.491355  0  1.21505  0  0  -0.29761  -0.457424  0  1.250457  0
Cl  Cl90  1  0.10171016  0.49393196  0.82886439  1  0  -0.540266  0  0.965471  0  0  -0.4716  0  1.235285  0  0  -0.491346  0  1.214967  0  0  -0.297636  -0.457441  0  1.250427  0
Cl  Cl91  1  0.82052421  0.84326802  0.06347570  1  0  -0.576734  0  0.940586  0  0  -0.514812  0  1.206954  0  0  -0.533094  0  1.185832  0  0  -0.318089  -0.501008  0  1.222178  0
Cl  Cl92  1  0.17947960  0.15671421  0.93652556  1  0  -0.576733  0  0.940521  0  0  -0.514824  0  1.20689  0  0  -0.533113  0  1.185759  0  0  -0.318078  -0.501016  0  1.222109  0
Cl  Cl93  1  0.82053154  0.17214106  0.18038380  1  0  -0.57359  0  0.922277  0  0  -0.514711  0  1.183078  0  0  -0.533533  0  1.163135  0  0  -0.320366  -0.50023  0  1.197847  0
Cl  Cl94  1  0.17945538  0.82784469  0.81960837  1  0  -0.573579  0  0.922321  0  0  -0.514708  0  1.183141  0  0  -0.533534  0  1.163202  0  0  -0.320364  -0.500227  0  1.197906  0
O  O95  1  0.14986280  0.01260524  0.36921667  1  0  -0.267297  0  2.342902  0  0  -0.200027  0  2.573972  0  0  -0.217097  0  2.5778  0  0  -0.174102  -0.187476  0  2.570357  0
O  O96  1  0.85009260  0.98740190  0.63079653  1  0  -0.267543  0  2.342871  0  0  -0.200309  0  2.57401  0  0  -0.217385  0  2.577843  0  0  -0.174282  -0.187757  0  2.570399  0
