# generated using pymatgen
data_AgH8C14(NO)3
_symmetry_space_group_name_H-M   'P 1'
_cell_length_a   8.56678097
_cell_length_b   9.38536940
_cell_length_c   9.73244264
_cell_angle_alpha   90.71331104
_cell_angle_beta   112.48798487
_cell_angle_gamma   116.92303936
_symmetry_Int_Tables_number   1
_chemical_formula_structural   AgH8C14(NO)3
_chemical_formula_sum   'Ag2 H16 C28 N6 O6'
_cell_volume   628.06637617
_cell_formula_units_Z   2
loop_
 _symmetry_equiv_pos_site_id
 _symmetry_equiv_pos_as_xyz
  1  'x, y, z'
loop_
 _atom_site_type_symbol
 _atom_site_label
 _atom_site_symmetry_multiplicity
 _atom_site_fract_x
 _atom_site_fract_y
 _atom_site_fract_z
 _atom_site_occupancy
 _atom_site_hle17_bader_spin_density
 _atom_site_hle17_ddec_charge
 _atom_site_hle17_ddec_spin_density
 _atom_site_hle17_ddec_sum_bond_order
 _atom_site_hle17_magmom
 _atom_site_hse06_10hf_bader_spin_density
 _atom_site_hse06_10hf_ddec_charge
 _atom_site_hse06_10hf_ddec_spin_density
 _atom_site_hse06_10hf_ddec_sum_bond_order
 _atom_site_hse06_10hf_magmom
 _atom_site_hse06_bader_spin_density
 _atom_site_hse06_ddec_charge
 _atom_site_hse06_ddec_spin_density
 _atom_site_hse06_ddec_sum_bond_order
 _atom_site_hse06_magmom
 _atom_site_pbe_bader_spin_density
 _atom_site_pbe_cm5_charge
 _atom_site_pbe_ddec_charge
 _atom_site_pbe_ddec_spin_density
 _atom_site_pbe_ddec_sum_bond_order
 _atom_site_pbe_magmom
Ag  Ag0  1  0.71021052  0.52731449  0.60197147  1  0  0.499004  0  1.43702  0  0  0.350978  0  1.889963  0  0  0.383456  0  1.84186  0  0  0.455398  0.328705  0  1.923462  0
Ag  Ag1  1  0.28978450  0.47268947  0.39802802  1  0  0.498951  0  1.437054  0  0  0.350969  0  1.889975  0  0  0.383429  0  1.841901  0  0  0.455395  0.328697  0  1.923473  0
H  H2  1  0.83892085  0.11145916  0.80872828  1  0  0.115819  0  0.963438  0  0  0.123278  0  1.028502  0  0  0.126811  0  1.026771  0  0  0.108012  0.119689  0  1.03194  0
H  H3  1  0.16106626  0.88853977  0.19126544  1  0  0.115698  0  0.963451  0  0  0.123163  0  1.028526  0  0  0.126695  0  1.026794  0  0  0.107989  0.119563  0  1.031974  0
H  H4  1  0.71486289  0.02736736  0.00333181  1  0  0.108531  0  0.937314  0  0  0.120464  0  0.994936  0  0  0.123455  0  0.992177  0  0  0.11311  0.118049  0  0.996774  0
H  H5  1  0.28513525  0.97263543  0.99666666  1  0  0.108489  0  0.937342  0  0  0.120419  0  0.994972  0  0  0.12341  0  0.99221  0  0  0.113115  0.118003  0  0.996809  0
H  H6  1  0.63607512  0.74854800  0.05671788  1  0  0.112584  0  0.963134  0  0  0.120167  0  1.025623  0  0  0.123434  0  1.024776  0  0  0.107377  0.118742  0  1.024272  0
H  H7  1  0.36393502  0.25146480  0.94329187  1  0  0.112587  0  0.963086  0  0  0.120181  0  1.025573  0  0  0.123443  0  1.024733  0  0  0.107378  0.118768  0  1.024213  0
H  H8  1  0.65557805  0.55402863  0.89126347  1  0  0.079597  0  0.956845  0  0  0.088154  0  1.021334  0  0  0.089966  0  1.020406  0  0  0.113846  0.08677  0  1.022496  0
H  H9  1  0.34442700  0.44598409  0.10874766  1  0  0.079687  0  0.956742  0  0  0.088257  0  1.02122  0  0  0.09006  0  1.020304  0  0  0.113901  0.08687  0  1.02238  0
H  H10  1  0.75503348  0.15024295  0.23056677  1  0  0.125492  0  0.948403  0  0  0.134376  0  1.008383  0  0  0.137676  0  1.007304  0  0  0.113118  0.131978  0  1.009365  0
H  H11  1  0.24495149  0.84974993  0.76943339  1  0  0.125463  0  0.948461  0  0  0.134391  0  1.008412  0  0  0.137689  0  1.007334  0  0  0.113109  0.131994  0  1.00939  0
H  H12  1  0.88731232  0.36856052  0.09115483  1  0  0.112564  0  0.943819  0  0  0.120347  0  1.005739  0  0  0.12377  0  1.002522  0  0  0.110697  0.118032  0  1.007822  0
H  H13  1  0.11267996  0.63142519  0.90884156  1  0  0.112542  0  0.943932  0  0  0.120322  0  1.005862  0  0  0.123748  0  1.002647  0  0  0.110691  0.118005  0  1.007948  0
H  H14  1  0.93017045  0.64459961  0.16510172  1  0  0.105991  0  0.963043  0  0  0.11828  0  1.020335  0  0  0.121027  0  1.019756  0  0  0.108504  0.116003  0  1.021593  0
H  H15  1  0.06984989  0.35539997  0.83490108  1  0  0.106034  0  0.963041  0  0  0.118307  0  1.020355  0  0  0.121082  0  1.01974  0  0  0.108532  0.11603  0  1.021615  0
H  H16  1  0.83955784  0.69495102  0.36871350  1  0  0.080229  0  0.970975  0  0  0.088513  0  1.039164  0  0  0.090766  0  1.036959  0  0  0.112505  0.086739  0  1.040898  0
H  H17  1  0.16045561  0.30505205  0.63128600  1  0  0.080236  0  0.970842  0  0  0.088498  0  1.039054  0  0  0.090751  0  1.036846  0  0  0.112512  0.086727  0  1.040787  0
C  C18  1  0.89552082  0.92461550  0.64224724  1  0  -0.089997  0  3.734522  0  0  -0.090672  0  3.986463  0  0  -0.094408  0  4.013152  0  0  -0.006509  -0.088405  0  3.966361  0
C  C19  1  0.10448949  0.07537303  0.35775933  1  0  -0.089816  0  3.734745  0  0  -0.090494  0  3.986684  0  0  -0.094225  0  4.01337  0  0  -0.006449  -0.088228  0  3.966582  0
C  C20  1  0.96399610  0.97434383  0.55111819  1  0  0.006756  0  3.974863  0  0  0.008874  0  4.221077  0  0  0.009413  0  4.246316  0  0  -0.01194  0.008528  0  4.203906  0
C  C21  1  0.03601931  0.02561572  0.44889091  1  0  0.006621  0  3.975146  0  0  0.008724  0  4.221392  0  0  0.009262  0  4.246634  0  0  -0.011983  0.008379  0  4.204217  0
C  C22  1  0.82028641  0.87837482  0.75087470  1  0  0.249664  0  3.877043  0  0  0.247458  0  4.1066  0  0  0.256414  0  4.126471  0  0  0.120661  0.242631  0  4.089999  0
C  C23  1  0.17971400  0.12162078  0.24912859  1  0  0.249527  0  3.877142  0  0  0.247353  0  4.106704  0  0  0.256309  0  4.12657  0  0  0.120703  0.242523  0  4.090107  0
C  C24  1  0.80394039  0.99085170  0.83362746  1  0  -0.137724  0  3.673838  0  0  -0.156273  0  3.918398  0  0  -0.162705  0  3.938505  0  0  -0.072308  -0.151805  0  3.903491  0
C  C25  1  0.19605636  0.00914863  0.16636847  1  0  -0.137624  0  3.673827  0  0  -0.156174  0  3.918363  0  0  -0.162604  0  3.93847  0  0  -0.072325  -0.151696  0  3.903457  0
C  C26  1  0.73536305  0.94382881  0.94296662  1  0  0.013881  0  3.697652  0  0  -0.007506  0  3.950805  0  0  -0.00384  0  3.968075  0  0  -0.060821  -0.008261  0  3.935293  0
C  C27  1  0.26462671  0.05617258  0.05702595  1  0  0.013988  0  3.697694  0  0  -0.007396  0  3.950847  0  0  -0.003727  0  3.968113  0  0  -0.060803  -0.008149  0  3.935331  0
C  C28  1  0.68758757  0.78716345  0.97003406  1  0  -0.115422  0  3.718149  0  0  -0.128048  0  3.970737  0  0  -0.13453  0  3.992488  0  0  -0.082287  -0.122809  0  3.95384  0
C  C29  1  0.31241676  0.21284801  0.02997374  1  0  -0.115432  0  3.718057  0  0  -0.128053  0  3.970628  0  0  -0.134532  0  3.992379  0  0  -0.082258  -0.122827  0  3.953731  0
C  C30  1  0.70057529  0.68027801  0.88028075  1  0  0.125894  0  3.711079  0  0  0.094286  0  3.960017  0  0  0.100769  0  3.979519  0  0  0.041337  0.089352  0  3.948965  0
C  C31  1  0.29942709  0.31973224  0.11973050  1  0  0.125764  0  3.710853  0  0  0.094164  0  3.959844  0  0  0.10065  0  3.979351  0  0  0.041277  0.089233  0  3.948791  0
C  C32  1  0.55309991  0.06614217  0.47949125  1  0  0.015515  0  3.977574  0  0  0.01453  0  4.225117  0  0  0.01434  0  4.2534  0  0  -0.014374  0.014243  0  4.206917  0
C  C33  1  0.44689148  0.93386654  0.52050499  1  0  0.015681  0  3.977224  0  0  0.014723  0  4.224738  0  0  0.014536  0  4.253023  0  0  -0.014221  0.014433  0  4.206537  0
C  C34  1  0.64613095  0.18771153  0.44053486  1  0  -0.092638  0  3.740144  0  0  -0.091697  0  3.992105  0  0  -0.096488  0  4.019965  0  0  -0.009399  -0.088822  0  3.974022  0
C  C35  1  0.35385294  0.81228615  0.55946189  1  0  -0.092684  0  3.740028  0  0  -0.091744  0  3.992001  0  0  -0.096538  0  4.019865  0  0  -0.009398  -0.088866  0  3.973915  0
C  C36  1  0.73233384  0.31145920  0.37094773  1  0  0.257918  0  3.876266  0  0  0.252885  0  4.105689  0  0  0.262694  0  4.125684  0  0  0.119509  0.246128  0  4.0924  0
C  C37  1  0.26766046  0.68854351  0.62904842  1  0  0.257991  0  3.876245  0  0  0.252947  0  4.105705  0  0  0.262761  0  4.125685  0  0  0.119476  0.246189  0  4.092416  0
C  C38  1  0.78014761  0.27393774  0.25755485  1  0  -0.140135  0  3.654932  0  0  -0.156927  0  3.900519  0  0  -0.16385  0  3.919306  0  0  -0.07105  -0.153197  0  3.889437  0
C  C39  1  0.21984317  0.72605647  0.74244726  1  0  -0.140325  0  3.655  0  0  -0.157189  0  3.900631  0  0  -0.164109  0  3.919415  0  0  -0.071142  -0.153456  0  3.889547  0
C  C40  1  0.85238920  0.39400465  0.18189851  1  0  -0.003559  0  3.720721  0  0  -0.022341  0  3.97737  0  0  -0.01812  0  3.992334  0  0  -0.068967  -0.025303  0  3.968023  0
C  C41  1  0.14760506  0.60598232  0.81810061  1  0  -0.003374  0  3.721152  0  0  -0.022136  0  3.97773  0  0  -0.017927  0  3.992712  0  0  -0.06892  -0.0251  0  3.968381  0
C  C42  1  0.87349289  0.54741403  0.22118584  1  0  -0.103012  0  3.69621  0  0  -0.116659  0  3.945214  0  0  -0.122688  0  3.96555  0  0  -0.080612  -0.112935  0  3.932202  0
C  C43  1  0.12651444  0.45258044  0.77881258  1  0  -0.103164  0  3.696555  0  0  -0.116796  0  3.945511  0  0  -0.122854  0  3.965852  0  0  -0.080629  -0.113071  0  3.932501  0
C  C44  1  0.82597436  0.57708984  0.33612827  1  0  0.126889  0  3.700824  0  0  0.094823  0  3.949778  0  0  0.101587  0  3.969433  0  0  0.044226  0.090335  0  3.936434  0
C  C45  1  0.17404038  0.42291326  0.66387268  1  0  0.127098  0  3.700608  0  0  0.095066  0  3.94957  0  0  0.10183  0  3.969228  0  0  0.044348  0.090575  0  3.936233  0
N  N46  1  0.76271992  0.72213086  0.77165126  1  0  -0.335694  0  3.255544  0  0  -0.251627  0  3.524655  0  0  -0.271137  0  3.539053  0  0  -0.335263  -0.239806  0  3.515743  0
N  N47  1  0.23727622  0.27786834  0.22835576  1  0  -0.33558  0  3.255524  0  0  -0.251597  0  3.524719  0  0  -0.271106  0  3.539113  0  0  -0.335298  -0.239776  0  3.515804  0
N  N48  1  0.75794628  0.46283988  0.41157766  1  0  -0.333802  0  3.282285  0  0  -0.248002  0  3.553095  0  0  -0.268479  0  3.569114  0  0  -0.336187  -0.233806  0  3.541753  0
N  N49  1  0.24205580  0.53716540  0.58842009  1  0  -0.333947  0  3.282304  0  0  -0.248164  0  3.553151  0  0  -0.268639  0  3.569162  0  0  -0.336286  -0.233969  0  3.541813  0
N  N50  1  0.58007124  0.26075507  0.78374271  1  0  0.687919  0  4.158014  0  0  0.733091  0  4.430711  0  0  0.762396  0  4.435651  0  0  0.089364  0.713286  0  4.426447  0
N  N51  1  0.41992942  0.73924772  0.21625044  1  0  0.687821  0  4.158281  0  0  0.733057  0  4.430949  0  0  0.762367  0  4.435878  0  0  0.089351  0.713252  0  4.426676  0
O  O52  1  0.76134037  0.33381188  0.81866716  1  0  -0.501271  0  1.767094  0  0  -0.489003  0  1.99045  0  0  -0.506413  0  1.983964  0  0  -0.207053  -0.47595  0  1.993748  0
O  O53  1  0.23866019  0.66618850  0.18132800  1  0  -0.501229  0  1.767112  0  0  -0.488988  0  1.990475  0  0  -0.506396  0  1.983984  0  0  -0.207069  -0.475934  0  1.993768  0
O  O54  1  0.47359707  0.31083964  0.69085282  1  0  -0.510382  0  1.815174  0  0  -0.49705  0  2.063117  0  0  -0.515892  0  2.054294  0  0  -0.211511  -0.48358  0  2.068808  0
O  O55  1  0.52640587  0.68915829  0.30913387  1  0  -0.510325  0  1.815205  0  0  -0.497038  0  2.063164  0  0  -0.515877  0  2.054335  0  0  -0.21149  -0.483572  0  2.068863  0
O  O56  1  0.50647679  0.14272920  0.84073824  1  0  -0.460654  0  1.748654  0  0  -0.454732  0  1.956438  0  0  -0.469446  0  1.952102  0  0  -0.189448  -0.444559  0  1.959182  0
O  O57  1  0.49352087  0.85727720  0.15925804  1  0  -0.460634  0  1.748788  0  0  -0.454739  0  1.956601  0  0  -0.469468  0  1.952277  0  0  -0.189441  -0.44457  0  1.959345  0
