# generated using pymatgen
data_BaH8C6N2O7
_symmetry_space_group_name_H-M   'P 1'
_cell_length_a   7.42790722
_cell_length_b   9.53605778
_cell_length_c   13.74314139
_cell_angle_alpha   89.99987166
_cell_angle_beta   96.29221581
_cell_angle_gamma   89.99935229
_symmetry_Int_Tables_number   1
_chemical_formula_structural   BaH8C6N2O7
_chemical_formula_sum   'Ba4 H32 C24 N8 O28'
_cell_volume   967.60297125
_cell_formula_units_Z   4
loop_
 _symmetry_equiv_pos_site_id
 _symmetry_equiv_pos_as_xyz
  1  'x, y, z'
loop_
 _atom_site_type_symbol
 _atom_site_label
 _atom_site_symmetry_multiplicity
 _atom_site_fract_x
 _atom_site_fract_y
 _atom_site_fract_z
 _atom_site_occupancy
 _atom_site_hle17_bader_spin_density
 _atom_site_hle17_ddec_charge
 _atom_site_hle17_ddec_spin_density
 _atom_site_hle17_ddec_sum_bond_order
 _atom_site_hle17_magmom
 _atom_site_hse06_10hf_bader_spin_density
 _atom_site_hse06_10hf_ddec_charge
 _atom_site_hse06_10hf_ddec_spin_density
 _atom_site_hse06_10hf_ddec_sum_bond_order
 _atom_site_hse06_10hf_magmom
 _atom_site_hse06_bader_spin_density
 _atom_site_hse06_ddec_charge
 _atom_site_hse06_ddec_spin_density
 _atom_site_hse06_ddec_sum_bond_order
 _atom_site_hse06_magmom
 _atom_site_pbe_bader_spin_density
 _atom_site_pbe_cm5_charge
 _atom_site_pbe_ddec_charge
 _atom_site_pbe_ddec_spin_density
 _atom_site_pbe_ddec_sum_bond_order
 _atom_site_pbe_magmom
Ba  Ba0  1  0.82882304  0.41066187  0.68318785  1  0  1.624883  0  1.128504  0  0  1.463669  0  1.531864  0  0  1.504654  0  1.488199  0  0  0.895249  1.432049  0  1.564535  0
Ba  Ba1  1  0.67117276  0.91065800  0.31681163  1  0  1.624921  0  1.128412  0  0  1.46372  0  1.531768  0  0  1.504707  0  1.488104  0  0  0.895265  1.432101  0  1.564438  0
Ba  Ba2  1  0.17117600  0.58933873  0.31681305  1  0  1.624886  0  1.128492  0  0  1.463674  0  1.531847  0  0  1.504658  0  1.488183  0  0  0.895266  1.432055  0  1.564516  0
Ba  Ba3  1  0.32882627  0.08934259  0.68318854  1  0  1.624933  0  1.12842  0  0  1.463729  0  1.531772  0  0  1.504718  0  1.488108  0  0  0.895255  1.432109  0  1.564442  0
H  H4  1  0.09699425  0.42712332  0.89313561  1  0  0.388445  0  0.923581  0  0  0.350789  0  1.003702  0  0  0.360899  0  0.989039  0  0  0.2872  0.343453  0  1.014333  0
H  H5  1  0.40300426  0.92712333  0.10686448  1  0  0.388432  0  0.923612  0  0  0.350777  0  1.003722  0  0  0.360887  0  0.989057  0  0  0.287187  0.34344  0  1.014353  0
H  H6  1  0.90300477  0.57287727  0.10686383  1  0  0.388422  0  0.923619  0  0  0.35077  0  1.003729  0  0  0.360881  0  0.989063  0  0  0.287199  0.343434  0  1.014359  0
H  H7  1  0.59699342  0.07287727  0.89313634  1  0  0.388415  0  0.923659  0  0  0.350757  0  1.00376  0  0  0.360866  0  0.989097  0  0  0.287188  0.34342  0  1.014391  0
H  H8  1  0.04148303  0.27304737  0.85847828  1  0  0.409787  0  0.898285  0  0  0.382028  0  0.958164  0  0  0.392554  0  0.942961  0  0  0.294318  0.374495  0  0.968978  0
H  H9  1  0.45851372  0.77304468  0.14152051  1  0  0.409825  0  0.898215  0  0  0.382062  0  0.95811  0  0  0.39259  0  0.942903  0  0  0.294343  0.374528  0  0.968926  0
H  H10  1  0.95851463  0.72695427  0.14152109  1  0  0.409863  0  0.898179  0  0  0.382104  0  0.95806  0  0  0.39263  0  0.942856  0  0  0.294366  0.37457  0  0.968876  0
H  H11  1  0.54148395  0.22695486  0.85847958  1  0  0.409851  0  0.898172  0  0  0.382093  0  0.958058  0  0  0.39262  0  0.942853  0  0  0.294354  0.37456  0  0.968872  0
H  H12  1  0.00713331  0.20334632  0.49997667  1  0  0.420597  0  0.867385  0  0  0.390977  0  0.937544  0  0  0.40213  0  0.920946  0  0  0.306876  0.382956  0  0.949475  0
H  H13  1  0.49286322  0.70334746  0.50002877  1  0  0.420571  0  0.867314  0  0  0.390957  0  0.93754  0  0  0.402108  0  0.920942  0  0  0.306854  0.382937  0  0.949469  0
H  H14  1  0.99286302  0.79664903  0.50002407  1  0  0.420571  0  0.867445  0  0  0.390939  0  0.937606  0  0  0.402093  0  0.92101  0  0  0.306866  0.382913  0  0.949539  0
H  H15  1  0.50713718  0.29664684  0.49997293  1  0  0.420627  0  0.8673  0  0  0.390984  0  0.937528  0  0  0.402138  0  0.920932  0  0  0.306848  0.382954  0  0.949463  0
H  H16  1  0.11853608  0.33281541  0.54463041  1  0  0.419651  0  0.883688  0  0  0.391484  0  0.94462  0  0  0.402413  0  0.928638  0  0  0.30212  0.383697  0  0.956018  0
H  H17  1  0.38146387  0.83281347  0.45537211  1  0  0.41969  0  0.883736  0  0  0.391523  0  0.944586  0  0  0.402451  0  0.928606  0  0  0.302123  0.383736  0  0.955985  0
H  H18  1  0.88145889  0.66718204  0.45537026  1  0  0.419652  0  0.883736  0  0  0.391481  0  0.944634  0  0  0.402412  0  0.928651  0  0  0.302133  0.383693  0  0.956033  0
H  H19  1  0.61853789  0.16717979  0.54463113  1  0  0.419659  0  0.883715  0  0  0.391491  0  0.944616  0  0  0.402422  0  0.928633  0  0  0.302111  0.383703  0  0.956016  0
H  H20  1  0.87059115  0.42914035  0.43877419  1  0  0.416235  0  0.891595  0  0  0.385863  0  0.956712  0  0  0.396618  0  0.940881  0  0  0.302726  0.378255  0  0.96791  0
H  H21  1  0.62940304  0.92913609  0.56122808  1  0  0.416177  0  0.891692  0  0  0.385801  0  0.956802  0  0  0.396555  0  0.940972  0  0  0.30269  0.37819  0  0.968004  0
H  H22  1  0.12940653  0.57085920  0.56122591  1  0  0.416251  0  0.891689  0  0  0.385877  0  0.956715  0  0  0.396632  0  0.940884  0  0  0.302733  0.37827  0  0.967912  0
H  H23  1  0.37059870  0.07086346  0.43877297  1  0  0.416212  0  0.89167  0  0  0.385836  0  0.956755  0  0  0.396591  0  0.940925  0  0  0.302702  0.378225  0  0.967958  0
H  H24  1  0.67640806  0.48424154  0.43918916  1  0  0.423989  0  0.863967  0  0  0.398485  0  0.92564  0  0  0.407668  0  0.912353  0  0  0.310649  0.391919  0  0.935151  0
H  H25  1  0.82358660  0.98423662  0.56080795  1  0  0.424071  0  0.86387  0  0  0.39855  0  0.925565  0  0  0.407736  0  0.912273  0  0  0.310686  0.391984  0  0.935076  0
H  H26  1  0.32358691  0.51575591  0.56081078  1  0  0.424039  0  0.863921  0  0  0.398539  0  0.925565  0  0  0.407721  0  0.912281  0  0  0.310681  0.391973  0  0.935075  0
H  H27  1  0.17641649  0.01576187  0.43919318  1  0  0.424128  0  0.863818  0  0  0.398607  0  0.925491  0  0  0.407794  0  0.912197  0  0  0.31071  0.392041  0  0.935002  0
H  H28  1  0.67379507  0.80553117  0.00625803  1  0  0.105424  0  0.957785  0  0  0.11386  0  1.017666  0  0  0.117688  0  1.014541  0  0  0.12193  0.111019  0  1.019973  0
H  H29  1  0.82620906  0.30552466  0.99373918  1  0  0.10534  0  0.957868  0  0  0.113779  0  1.017735  0  0  0.117605  0  1.01461  0  0  0.121918  0.110935  0  1.020046  0
H  H30  1  0.32620802  0.19447152  0.99374164  1  0  0.105404  0  0.957796  0  0  0.113841  0  1.017664  0  0  0.11767  0  1.014538  0  0  0.12193  0.110999  0  1.019973  0
H  H31  1  0.17378996  0.69447489  0.00626026  1  0  0.105315  0  0.957845  0  0  0.113761  0  1.017722  0  0  0.117587  0  1.014598  0  0  0.121905  0.110918  0  1.020031  0
H  H32  1  0.74545002  0.57228000  0.92753355  1  0  0.100309  0  0.933468  0  0  0.102988  0  1.003539  0  0  0.107165  0  0.999937  0  0  0.125751  0.099944  0  1.006376  0
H  H33  1  0.75456035  0.07227383  0.07246513  1  0  0.100129  0  0.933646  0  0  0.102976  0  1.003512  0  0  0.107155  0  0.999908  0  0  0.125775  0.099931  0  1.006354  0
H  H34  1  0.25455444  0.42772374  0.07246766  1  0  0.100235  0  0.933504  0  0  0.102926  0  1.003561  0  0  0.107104  0  0.999958  0  0  0.125733  0.099881  0  1.006402  0
H  H35  1  0.24544681  0.92772571  0.92753623  1  0  0.100166  0  0.933617  0  0  0.102957  0  1.003534  0  0  0.107137  0  0.99993  0  0  0.12576  0.099912  0  1.006373  0
C  C36  1  0.89004390  0.79040539  0.76880201  1  0  0.022113  0  3.710249  0  0  0.02426  0  3.959208  0  0  0.021113  0  3.977452  0  0  0.120458  0.025537  0  3.948088  0
C  C37  1  0.60996450  0.29040524  0.23119401  1  0  0.022257  0  3.709999  0  0  0.024124  0  3.959332  0  0  0.020973  0  3.97758  0  0  0.120437  0.025408  0  3.948207  0
C  C38  1  0.10995919  0.20959520  0.23119839  1  0  0.022124  0  3.710203  0  0  0.024278  0  3.959137  0  0  0.02113  0  3.977385  0  0  0.120419  0.02556  0  3.948015  0
C  C39  1  0.39003993  0.70959536  0.76880574  1  0  0.022109  0  3.710229  0  0  0.024218  0  3.959233  0  0  0.021069  0  3.977481  0  0  0.120453  0.025501  0  3.948112  0
C  C40  1  0.84996131  0.91856642  0.81219702  1  0  0.08565  0  3.668566  0  0  0.07949  0  3.923986  0  0  0.082265  0  3.937067  0  0  0.141365  0.076893  0  3.91612  0
C  C41  1  0.65003700  0.41856606  0.18779531  1  0  0.085633  0  3.668539  0  0  0.079507  0  3.923991  0  0  0.082283  0  3.937074  0  0  0.141364  0.076909  0  3.916125  0
C  C42  1  0.15003905  0.08143522  0.18780105  1  0  0.085725  0  3.668538  0  0  0.079556  0  3.923941  0  0  0.082329  0  3.93702  0  0  0.141387  0.076962  0  3.916078  0
C  C43  1  0.34996472  0.58143454  0.81220355  1  0  0.085691  0  3.668577  0  0  0.079474  0  3.924003  0  0  0.082247  0  3.937082  0  0  0.141342  0.076881  0  3.91614  0
C  C44  1  0.73787582  0.79997788  0.93836857  1  0  0.09609  0  3.651106  0  0  0.066276  0  3.912682  0  0  0.070136  0  3.927079  0  0  0.060166  0.063769  0  3.902918  0
C  C45  1  0.76212973  0.29997483  0.06162728  1  0  0.096162  0  3.650991  0  0  0.066375  0  3.912549  0  0  0.070235  0  3.926947  0  0  0.060162  0.063868  0  3.902785  0
C  C46  1  0.26212726  0.20002481  0.06163037  1  0  0.096158  0  3.651088  0  0  0.066391  0  3.912608  0  0  0.070253  0  3.927003  0  0  0.060198  0.063883  0  3.902846  0
C  C47  1  0.23787063  0.70002472  0.93837152  1  0  0.096245  0  3.650942  0  0  0.066438  0  3.912521  0  0  0.070297  0  3.926922  0  0  0.060159  0.063932  0  3.902756  0
C  C48  1  0.77626509  0.67245339  0.89484909  1  0  0.077249  0  3.686243  0  0  0.048755  0  3.957144  0  0  0.050142  0  3.973029  0  0  0.058903  0.047609  0  3.946772  0
C  C49  1  0.72374512  0.17244739  0.10514941  1  0  0.077551  0  3.686081  0  0  0.048923  0  3.956992  0  0  0.050313  0  3.972871  0  0  0.058947  0.047776  0  3.946621  0
C  C50  1  0.22373665  0.32755035  0.10515196  1  0  0.077381  0  3.68618  0  0  0.04884  0  3.957122  0  0  0.050227  0  3.97301  0  0  0.058919  0.047693  0  3.94675  0
C  C51  1  0.27625662  0.82755111  0.89485164  1  0  0.077503  0  3.686074  0  0  0.048917  0  3.95703  0  0  0.050306  0  3.972909  0  0  0.058979  0.047769  0  3.946662  0
C  C52  1  0.97809721  0.77933349  0.67446723  1  0  0.650101  0  3.90116  0  0  0.592457  0  4.207046  0  0  0.626102  0  4.198792  0  0  0.227859  0.569397  0  4.212215  0
C  C53  1  0.52190595  0.27933381  0.32552852  1  0  0.650083  0  3.900963  0  0  0.592499  0  4.206906  0  0  0.626144  0  4.19865  0  0  0.227841  0.569436  0  4.212078  0
C  C54  1  0.02190318  0.22066815  0.32553302  1  0  0.65011  0  3.901198  0  0  0.592459  0  4.207087  0  0  0.626104  0  4.198833  0  0  0.227857  0.569397  0  4.212257  0
C  C55  1  0.47809170  0.72066573  0.67446939  1  0  0.650173  0  3.901021  0  0  0.592551  0  4.206912  0  0  0.626194  0  4.198654  0  0  0.227846  0.569489  0  4.212082  0
C  C56  1  0.88950142  0.06198488  0.77324927  1  0  0.65675  0  3.952668  0  0  0.598442  0  4.260001  0  0  0.633904  0  4.247886  0  0  0.22944  0.573972  0  4.267783  0
C  C57  1  0.61048196  0.56197973  0.22674208  1  0  0.656407  0  3.952967  0  0  0.598281  0  4.260006  0  0  0.633743  0  4.247896  0  0  0.229389  0.573806  0  4.267789  0
C  C58  1  0.11049624  0.93801781  0.22674937  1  0  0.656729  0  3.952563  0  0  0.598463  0  4.259835  0  0  0.633934  0  4.247705  0  0  0.229431  0.57398  0  4.267636  0
C  C59  1  0.38951300  0.43801772  0.77325713  1  0  0.656562  0  3.952977  0  0  0.59843  0  4.260037  0  0  0.633906  0  4.247901  0  0  0.229414  0.573944  0  4.267839  0
N  N60  1  0.84763166  0.66837081  0.80972882  1  0  -0.307854  0  3.178494  0  0  -0.268789  0  3.444195  0  0  -0.276441  0  3.462426  0  0  -0.323374  -0.262803  0  3.432459  0
N  N61  1  0.65237997  0.16836726  0.19026977  1  0  -0.308064  0  3.17838  0  0  -0.268978  0  3.444332  0  0  -0.276629  0  3.46256  0  0  -0.323477  -0.262996  0  3.432597  0
N  N62  1  0.15237008  0.33163189  0.19027150  1  0  -0.307919  0  3.178536  0  0  -0.268845  0  3.444248  0  0  -0.276498  0  3.46248  0  0  -0.323345  -0.262861  0  3.432513  0
N  N63  1  0.34762584  0.83163123  0.80973151  1  0  -0.307992  0  3.178401  0  0  -0.268952  0  3.44422  0  0  -0.276603  0  3.462448  0  0  -0.323444  -0.26297  0  3.432489  0
N  N64  1  0.77002287  0.92229984  0.89564919  1  0  -0.286737  0  3.076225  0  0  -0.242318  0  3.331493  0  0  -0.251321  0  3.343351  0  0  -0.284389  -0.23584  0  3.323458  0
N  N65  1  0.72997945  0.42229799  0.10434409  1  0  -0.28675  0  3.076032  0  0  -0.242326  0  3.331254  0  0  -0.251331  0  3.343111  0  0  -0.284394  -0.235847  0  3.323217  0
N  N66  1  0.22998020  0.07770285  0.10434902  1  0  -0.28686  0  3.076342  0  0  -0.24246  0  3.331589  0  0  -0.251465  0  3.343446  0  0  -0.284448  -0.23598  0  3.323553  0
N  N67  1  0.27002090  0.57770261  0.89565398  1  0  -0.286813  0  3.076067  0  0  -0.24238  0  3.331319  0  0  -0.251386  0  3.34318  0  0  -0.284383  -0.235899  0  3.32328  0
O  O68  1  0.99232389  0.36300069  0.88012237  1  0  -0.849564  0  1.849522  0  0  -0.79781  0  2.02576  0  0  -0.817899  0  1.996614  0  0  -0.61229  -0.782889  0  2.046195  0
O  O69  1  0.50767533  0.86299887  0.11987738  1  0  -0.849594  0  1.84948  0  0  -0.797828  0  2.025658  0  0  -0.817934  0  1.996545  0  0  -0.612303  -0.782907  0  2.046092  0
O  O70  1  0.00767513  0.63699991  0.11987780  1  0  -0.849617  0  1.849454  0  0  -0.79786  0  2.025672  0  0  -0.817952  0  1.996529  0  0  -0.612332  -0.782939  0  2.046105  0
O  O71  1  0.49232370  0.13700068  0.88012352  1  0  -0.849607  0  1.84951  0  0  -0.797835  0  2.025657  0  0  -0.817948  0  1.996563  0  0  -0.612316  -0.782914  0  2.046092  0
O  O72  1  0.05467891  0.24613624  0.56288458  1  0  -0.887236  0  1.843001  0  0  -0.826523  0  2.029294  0  0  -0.846958  0  1.997303  0  0  -0.623515  -0.812121  0  2.052358  0
O  O73  1  0.44531559  0.74613169  0.43711923  1  0  -0.887219  0  1.842969  0  0  -0.826515  0  2.029262  0  0  -0.846945  0  1.997277  0  0  -0.623465  -0.812115  0  2.052327  0
O  O74  1  0.94531605  0.75386226  0.43711536  1  0  -0.88723  0  1.843108  0  0  -0.826486  0  2.029366  0  0  -0.846925  0  1.997368  0  0  -0.62352  -0.812076  0  2.052452  0
O  O75  1  0.55468209  0.25386261  0.56288232  1  0  -0.887251  0  1.842912  0  0  -0.826522  0  2.029249  0  0  -0.84696  0  1.997249  0  0  -0.623454  -0.812103  0  2.052355  0
O  O76  1  0.79777661  0.49408883  0.47560411  1  0  -0.851171  0  1.862473  0  0  -0.793642  0  2.036294  0  0  -0.814017  0  2.007413  0  0  -0.584135  -0.779084  0  2.056591  0
O  O77  1  0.70221523  0.99408300  0.52439647  1  0  -0.851229  0  1.862507  0  0  -0.793695  0  2.03629  0  0  -0.814071  0  2.007408  0  0  -0.584164  -0.779133  0  2.056589  0
O  O78  1  0.20221973  0.50591071  0.52439737  1  0  -0.851215  0  1.862524  0  0  -0.793686  0  2.036252  0  0  -0.814059  0  2.007368  0  0  -0.584165  -0.779128  0  2.056549  0
O  O79  1  0.29778652  0.00591655  0.47560531  1  0  -0.851337  0  1.862482  0  0  -0.793797  0  2.03621  0  0  -0.814173  0  2.007327  0  0  -0.584199  -0.779236  0  2.05651  0
O  O80  1  0.00714882  0.65630476  0.64510916  1  0  -0.678864  0  2.067934  0  0  -0.617134  0  2.312183  0  0  -0.643911  0  2.304124  0  0  -0.347286  -0.598157  0  2.317656  0
O  O81  1  0.49284968  0.15630717  0.35488775  1  0  -0.678819  0  2.067858  0  0  -0.617047  0  2.312049  0  0  -0.643823  0  2.303991  0  0  -0.347227  -0.598068  0  2.317523  0
O  O82  1  0.99285021  0.34369583  0.35489101  1  0  -0.678874  0  2.067911  0  0  -0.617147  0  2.312195  0  0  -0.643923  0  2.304135  0  0  -0.347297  -0.598168  0  2.317669  0
O  O83  1  0.50715070  0.84369343  0.64511250  1  0  -0.678862  0  2.0679  0  0  -0.617116  0  2.312126  0  0  -0.643893  0  2.304067  0  0  -0.347241  -0.598135  0  2.317601  0
O  O84  1  0.01759131  0.89135470  0.63072575  1  0  -0.672832  0  1.964585  0  0  -0.607746  0  2.189006  0  0  -0.632934  0  2.179005  0  0  -0.319721  -0.589899  0  2.195593  0
O  O85  1  0.48241038  0.39135505  0.36926803  1  0  -0.672861  0  1.964733  0  0  -0.607766  0  2.189142  0  0  -0.632953  0  2.179143  0  0  -0.319734  -0.589916  0  2.195726  0
O  O86  1  0.98241178  0.10864694  0.36927465  1  0  -0.672832  0  1.964667  0  0  -0.607749  0  2.189096  0  0  -0.632937  0  2.179095  0  0  -0.3197  -0.5899  0  2.195686  0
O  O87  1  0.51759269  0.60864659  0.63073019  1  0  -0.672869  0  1.964658  0  0  -0.607803  0  2.189082  0  0  -0.632988  0  2.179081  0  0  -0.319748  -0.589952  0  2.195673  0
O  O88  1  0.04932438  0.10812184  0.79708101  1  0  -0.695736  0  1.99569  0  0  -0.631177  0  2.234088  0  0  -0.660185  0  2.224722  0  0  -0.356714  -0.609659  0  2.239441  0
O  O89  1  0.45066938  0.60811588  0.20291062  1  0  -0.695531  0  1.996161  0  0  -0.630987  0  2.234398  0  0  -0.659991  0  2.225033  0  0  -0.356614  -0.609487  0  2.239791  0
O  O90  1  0.95067327  0.89188190  0.20291618  1  0  -0.695703  0  1.995737  0  0  -0.631155  0  2.234098  0  0  -0.660166  0  2.224728  0  0  -0.356669  -0.609646  0  2.23949  0
O  O91  1  0.54932827  0.39188261  0.79708802  1  0  -0.695625  0  1.996181  0  0  -0.6311  0  2.234443  0  0  -0.660107  0  2.225069  0  0  -0.356607  -0.609598  0  2.23985  0
O  O92  1  0.75941649  0.12778001  0.72775132  1  0  -0.667282  0  1.985035  0  0  -0.604719  0  2.22468  0  0  -0.631815  0  2.216093  0  0  -0.333589  -0.584538  0  2.23073  0
O  O93  1  0.74057137  0.62778091  0.27224600  1  0  -0.667161  0  1.984646  0  0  -0.604681  0  2.22422  0  0  -0.631783  0  2.21564  0  0  -0.333615  -0.584494  0  2.230266  0
O  O94  1  0.24057846  0.87222164  0.27224790  1  0  -0.667304  0  1.984833  0  0  -0.604754  0  2.224437  0  0  -0.631855  0  2.215848  0  0  -0.33362  -0.584568  0  2.230491  0
O  O95  1  0.25942087  0.37222178  0.72775233  1  0  -0.667249  0  1.984706  0  0  -0.604731  0  2.224221  0  0  -0.631835  0  2.215631  0  0  -0.33364  -0.584542  0  2.230277  0
