# generated using pymatgen
data_CuSiH16C24N4(O2F3)2
_symmetry_space_group_name_H-M   'P 1'
_cell_length_a   7.98107327
_cell_length_b   13.73165716
_cell_length_c   13.73155198
_cell_angle_alpha   90.09857886
_cell_angle_beta   90.20310293
_cell_angle_gamma   90.20185893
_symmetry_Int_Tables_number   1
_chemical_formula_structural   CuSiH16C24N4(O2F3)2
_chemical_formula_sum   'Cu1 Si1 H16 C24 N4 O4 F6'
_cell_volume   1504.86589144
_cell_formula_units_Z   1
loop_
 _symmetry_equiv_pos_site_id
 _symmetry_equiv_pos_as_xyz
  1  'x, y, z'
loop_
 _atom_site_type_symbol
 _atom_site_label
 _atom_site_symmetry_multiplicity
 _atom_site_fract_x
 _atom_site_fract_y
 _atom_site_fract_z
 _atom_site_occupancy
 _atom_site_pbe_bader_charge
 _atom_site_pbe_bader_spin_density
 _atom_site_pbe_cm5_charge
 _atom_site_pbe_ddec_charge
 _atom_site_pbe_ddec_spin_density
 _atom_site_pbe_ddec_sum_bond_order
 _atom_site_pbe_magmom
Cu  Cu0  1  0.50001201  0.49999549  0.50000755  1  1.09535  0.570838  0.775771  0.700663  0.733544  2.26024  0.569
Si  Si1  1  0.00000131  0.49999875  0.49999967  1  3.217681  -0.000198  0.244465  1.720811  -0.000365  3.952038  0.0
H  H2  1  0.23720410  0.65175425  0.50029339  1  0.218858  0.002149  0.11979  0.113669  0.001016  1.055756  0.002
H  H3  1  0.21762169  0.83176837  0.49996495  1  0.13847  0.001412  0.117729  0.129928  0.000743  0.975564  0.001
H  H4  1  0.76081758  0.66115887  0.49957647  1  0.211562  0.002598  0.128376  0.136972  0.00125  1.022282  0.002
H  H5  1  0.23921629  0.33883281  0.50038328  1  0.2118  0.002601  0.128312  0.136815  0.001252  1.021948  0.002
H  H6  1  0.76283149  0.34823392  0.49981930  1  0.219114  0.002148  0.119675  0.113289  0.001016  1.055903  0.002
H  H7  1  0.78240877  0.16821758  0.50011059  1  0.13843  0.001412  0.117677  0.129972  0.000743  0.975796  0.001
H  H8  1  0.23719097  0.50038566  0.65176444  1  0.218816  0.002149  0.11984  0.113685  0.001016  1.05602  0.002
H  H9  1  0.21761810  0.50002385  0.83178126  1  0.138355  0.001412  0.117615  0.129785  0.000743  0.975838  0.001
H  H10  1  0.76080312  0.49958317  0.66116942  1  0.211368  0.0026  0.128319  0.136872  0.001251  1.022032  0.002
H  H11  1  0.23922349  0.50044277  0.33883987  1  0.212018  0.002596  0.128272  0.136878  0.00125  1.022021  0.002
H  H12  1  0.76283524  0.49950265  0.34825202  1  0.218454  0.00215  0.119838  0.113695  0.001016  1.056257  0.002
H  H13  1  0.78240565  0.49988120  0.16823449  1  0.138861  0.001411  0.117573  0.129918  0.000743  0.975793  0.001
H  H14  1  0.76929742  0.92063868  0.49994410  1  0.584232  0.000348  0.323483  0.347955  0.000255  0.910992  0.0
H  H15  1  0.23071646  0.07935517  0.50003020  1  0.584113  0.000348  0.323558  0.34796  0.000255  0.910947  0.0
H  H16  1  0.76929524  0.49991799  0.92065346  1  0.584091  0.000348  0.323568  0.348028  0.000255  0.910932  0.0
H  H17  1  0.23071760  0.50010357  0.07936311  1  0.583744  0.000348  0.323569  0.348028  0.000255  0.910827  0.0
C  C18  1  0.34996471  0.69635164  0.50001635  1  0.401989  -0.000836  0.03977  0.062976  -0.001303  3.930041  -0.001
C  C19  1  0.34014041  0.79701443  0.49992572  1  0.033783  0.006014  -0.072139  -0.134569  0.004048  3.931503  0.005
C  C20  1  0.48801128  0.85297279  0.49986129  1  0.047715  -0.003167  -0.007589  0.025152  -0.003555  4.153613  -0.002
C  C21  1  0.64289281  0.80282989  0.49983846  1  0.444765  0.006092  0.100341  0.243097  0.003967  4.022577  0.005
C  C22  1  0.64294006  0.70103209  0.49980903  1  0.567989  -0.001256  0.046943  -0.017981  -0.00134  3.853001  -0.001
C  C23  1  0.49046543  0.95570236  0.49992026  1  -0.088375  -0.001018  -0.034994  -0.101557  -0.001135  4.14486  0.0
C  C24  1  0.50956101  0.04428497  0.50007298  1  -0.322714  -0.001059  -0.034795  -0.101032  -0.001135  4.144366  0.0
C  C25  1  0.51202524  0.14701966  0.50014580  1  0.047372  -0.003167  -0.007751  0.024745  -0.003556  4.153713  -0.002
C  C26  1  0.35713612  0.19715817  0.50014678  1  0.445493  0.006095  0.100376  0.243206  0.003969  4.022486  0.005
C  C27  1  0.35710515  0.29895598  0.50017623  1  0.568794  -0.001259  0.04707  -0.017827  -0.001341  3.852633  -0.001
C  C28  1  0.65007452  0.30363722  0.50005702  1  0.401947  -0.000834  0.039958  0.063711  -0.001303  3.928962  -0.001
C  C29  1  0.65989751  0.20297370  0.50012943  1  0.033689  0.006015  -0.072031  -0.134717  0.004048  3.931507  0.005
C  C30  1  0.34994985  0.50008970  0.69636141  1  0.401567  -0.000835  0.039782  0.063076  -0.001303  3.929928  -0.001
C  C31  1  0.34013242  0.49999186  0.79702272  1  0.03504  0.006014  -0.072063  -0.134486  0.004047  3.931631  0.005
C  C32  1  0.48800172  0.49988427  0.85298458  1  0.046575  -0.003167  -0.007691  0.024994  -0.003556  4.153371  -0.002
C  C33  1  0.64288104  0.49985391  0.80284445  1  0.444873  0.006093  0.10037  0.243084  0.003967  4.022562  0.005
C  C34  1  0.64292142  0.49983830  0.70104660  1  0.568952  -0.001256  0.047067  -0.017873  -0.001341  3.853149  -0.001
C  C35  1  0.49046148  0.49992139  0.95571421  1  -0.322965  -0.001059  -0.034892  -0.101275  -0.001136  4.144412  0.0
C  C36  1  0.50955616  0.50004410  0.04429284  1  -0.088248  -0.001018  -0.034823  -0.101167  -0.001135  4.144483  0.0
C  C37  1  0.51202846  0.50008123  0.14702467  1  0.047014  -0.003168  -0.007612  0.025105  -0.003556  4.153488  -0.002
C  C38  1  0.35714427  0.50014873  0.19716993  1  0.445764  0.006089  0.100331  0.242889  0.003965  4.022749  0.005
C  C39  1  0.35710136  0.50016215  0.29896486  1  0.568338  -0.001255  0.047077  -0.017947  -0.001339  3.853174  -0.001
C  C40  1  0.65007021  0.49983865  0.30365217  1  0.401521  -0.000834  0.039968  0.063326  -0.001303  3.930343  -0.001
C  C41  1  0.65989142  0.49994377  0.20299087  1  0.033896  0.006014  -0.072123  -0.134789  0.004047  3.93188  0.005
N  N42  1  0.49899500  0.64992492  0.49995223  1  -1.177769  0.094445  -0.327213  -0.191891  0.062844  3.596993  0.083
N  N43  1  0.50103530  0.35006317  0.50007306  1  -1.178668  0.094467  -0.327312  -0.192029  0.062858  3.59694  0.083
N  N44  1  0.49898799  0.50000718  0.64993526  1  -1.17816  0.094442  -0.327258  -0.191971  0.062849  3.597254  0.083
N  N45  1  0.50104347  0.49995688  0.35008346  1  -1.17832  0.09443  -0.32732  -0.19204  0.062839  3.596976  0.083
O  O46  1  0.79216293  0.85055033  0.49983606  1  -1.087258  0.001229  -0.336728  -0.409729  0.000663  2.256946  0.001
O  O47  1  0.20786471  0.14944499  0.50013243  1  -1.087539  0.00123  -0.336758  -0.40971  0.000663  2.256909  0.001
O  O48  1  0.79215701  0.49983311  0.85056472  1  -1.087269  0.00123  -0.336872  -0.409819  0.000663  2.256734  0.001
O  O49  1  0.20786968  0.50020959  0.14945260  1  -1.087399  0.001229  -0.336876  -0.409699  0.000663  2.256562  0.001
F  F50  1  0.21711737  0.49524658  0.49525536  1  -0.837353  -0.001725  -0.203428  -0.532766  -0.001876  1.351566  -0.001
F  F51  1  0.78288281  0.50474656  0.50474806  1  -0.837429  -0.001725  -0.203423  -0.532765  -0.001876  1.351738  -0.001
F  F52  1  0.99999971  0.58791617  0.41207692  1  -0.838902  0.000204  -0.251419  -0.543618  0.000184  1.066046  0.0
F  F53  1  0.99999677  0.41207988  0.58792258  1  -0.838793  0.000204  -0.251393  -0.543591  0.000184  1.066166  0.0
F  F54  1  0.01146870  0.58796271  0.58795782  1  -0.837659  0.000215  -0.250972  -0.542705  0.000191  1.068422  0.0
F  F55  1  0.98852772  0.41203406  0.41204050  1  -0.837579  0.000215  -0.25101  -0.54273  0.000191  1.068395  0.0
