# generated using pymatgen
data_ZnH14C15NO5
_symmetry_space_group_name_H-M   'P 1'
_cell_length_a   9.60113851
_cell_length_b   11.23365085
_cell_length_c   13.64741639
_cell_angle_alpha   84.46447888
_cell_angle_beta   62.65388037
_cell_angle_gamma   81.86929600
_symmetry_Int_Tables_number   1
_chemical_formula_structural   ZnH14C15NO5
_chemical_formula_sum   'Zn2 H28 C30 N2 O10'
_cell_volume   1293.48639947
_cell_formula_units_Z   2
loop_
 _symmetry_equiv_pos_site_id
 _symmetry_equiv_pos_as_xyz
  1  'x, y, z'
loop_
 _atom_site_type_symbol
 _atom_site_label
 _atom_site_symmetry_multiplicity
 _atom_site_fract_x
 _atom_site_fract_y
 _atom_site_fract_z
 _atom_site_occupancy
 _atom_site_pbe_bader_charge
 _atom_site_pbe_bader_spin_density
 _atom_site_pbe_cm5_charge
 _atom_site_pbe_ddec_charge
 _atom_site_pbe_ddec_spin_density
 _atom_site_pbe_ddec_sum_bond_order
 _atom_site_pbe_magmom
Zn  Zn0  1  0.65929441  0.48286117  0.47828179  1  1.285587  0  0.665961  0.849891  0  2.422809  0
Zn  Zn1  1  0.34117524  0.51011244  0.53102348  1  1.29155  0  0.668484  0.878951  0  2.39156  0
H  H2  1  0.15278473  0.39948777  0.88228655  1  0.078233  0  0.103182  0.106286  0  1.0156  0
H  H3  1  0.85850211  0.55872801  0.13155839  1  0.083521  0  0.106108  0.110425  0  0.99734  0
H  H4  1  0.72607325  0.58026003  0.86899636  1  0.038726  0  0.099362  0.095856  0  1.016227  0
H  H5  1  0.91647718  0.61089363  0.93488933  1  0.068839  0  0.106074  0.107837  0  0.986185  0
H  H6  1  0.37029303  0.38583611  0.29006167  1  0.096645  0  0.101886  0.116186  0  1.019209  0
H  H7  1  0.30609227  0.13392126  0.50917372  1  0.073227  0  0.096161  0.107193  0  1.044731  0
H  H8  1  0.82577271  0.01098886  0.55416406  1  0.03672  0  0.103303  0.067398  0  0.964161  0
H  H9  1  0.75560207  0.16767900  0.57280655  1  0.060658  0  0.093893  0.061685  0  1.037358  0
H  H10  1  0.90082513  0.04043248  0.35272362  1  0.028442  0  0.095676  0.092087  0  0.966101  0
H  H11  1  0.83974514  0.19670024  0.37041791  1  0.061585  0  0.092556  0.097268  0  0.989765  0
H  H12  1  0.04397237  0.21460874  0.43489586  1  -0.001095  0  0.075744  0.092985  0  1.035146  0
H  H13  1  0.28390691  0.91840282  0.52086248  1  0.061325  0  0.095352  0.085982  0  1.000103  0
H  H14  1  0.13497268  0.15177423  0.30251157  1  0.032083  0  0.090242  0.119273  0  1.006434  0
H  H15  1  0.10303561  0.05779506  0.42107143  1  0.023408  0  0.087834  0.113748  0  1.004468  0
H  H16  1  0.03509397  0.17983360  0.68336366  1  0.07055  0  0.11863  0.095836  0  0.953745  0
H  H17  1  0.87967191  0.25757358  0.65748171  1  0.046414  0  0.104497  0.061475  0  1.023908  0
H  H18  1  0.92777450  0.28076997  0.86244203  1  0.033068  0  0.102004  0.102723  0  0.957181  0
H  H19  1  0.77972114  0.36634537  0.83600805  1  0.041835  0  0.088245  0.075962  0  1.043625  0
H  H20  1  0.65751026  0.18004012  0.84329741  1  0.050943  0  0.08927  0.11745  0  0.996146  0
H  H21  1  0.67018449  0.19464152  0.96704789  1  0.027584  0  0.095743  0.130618  0  0.989468  0
H  H22  1  0.80650521  0.08983704  0.86879025  1  0.012602  0  0.08948  0.114605  0  0.998108  0
H  H23  1  0.62517348  0.87569088  0.48880081  1  0.103495  0  0.100295  0.119286  0  1.039319  0
H  H24  1  0.76512226  0.44527816  0.64592052  1  0.202692  0  0.137917  0.123343  0  1.006572  0
H  H25  1  0.98527379  0.45962511  0.41095015  1  0.426811  0  0.315877  0.284741  0  0.919424  0
H  H26  1  0.09493181  0.58287279  0.48914801  1  0.45208  0  0.321639  0.316184  0  0.908565  0
H  H27  1  0.18534632  0.34139556  0.22253498  1  0.030414  0  0.095639  0.093416  0  1.030638  0
H  H28  1  0.09935827  0.35459852  0.07894123  1  0.072616  0  0.102873  0.10631  0  0.995815  0
H  H29  1  0.58217517  0.53729675  0.81361200  1  0.059644  0  0.098442  0.095884  0  1.045179  0
C  C30  1  0.49970296  0.72698908  0.49613170  1  1.522585  0  0.200005  0.636616  0  4.179377  0
C  C31  1  0.63714080  0.49592806  0.17342021  1  -0.00878  0  -0.011308  -0.066799  0  3.920784  0
C  C32  1  0.40078676  0.07212519  0.51434235  1  0.008925  0  -0.118003  -0.216164  0  4.035538  0
C  C33  1  0.59801574  0.48644861  0.29345278  1  1.589852  0  0.215855  0.603182  0  4.165044  0
C  C34  1  0.51434647  0.12709526  0.52138830  1  0.522024  0  0.084343  0.119401  0  3.962924  0
C  C35  1  0.39392729  0.94513862  0.51327923  1  -0.074015  0  -0.086549  -0.004727  0  4.037911  0
C  C36  1  0.51112924  0.85553692  0.50049152  1  -0.004525  0  -0.10703  -0.245659  0  3.895889  0
C  C37  1  0.87979261  0.44631365  0.57213907  1  0.645578  0  0.111505  0.085712  0  3.870488  0
C  C38  1  0.02537708  0.44197418  0.58607076  1  1.360166  0  0.255817  0.431664  0  4.097958  0
C  C39  1  0.50235927  0.26251566  0.51883103  1  1.553478  0  0.206788  0.535667  0  4.222229  0
C  C40  1  0.41192390  0.48943545  0.71787498  1  1.564709  0  0.211943  0.590799  0  4.175184  0
C  C41  1  0.56174907  0.49977380  0.02329410  1  -0.019192  0  -0.003367  0.030326  0  3.94187  0
C  C42  1  0.20597247  0.39415094  0.02039569  1  -0.072862  0  -0.090571  -0.136066  0  3.99061  0
C  C43  1  0.37367448  0.46888565  0.83728677  1  0.004103  0  -0.021851  -0.032723  0  3.989871  0
C  C44  1  0.77674962  0.54221795  0.10073796  1  -0.018826  0  -0.084775  -0.096973  0  3.99329  0
C  C45  1  0.80834309  0.57185191  0.99075648  1  -0.0723  0  -0.09132  -0.08441  0  4.048125  0
C  C46  1  0.70116644  0.55320742  0.95379836  1  -0.030872  0  -0.091023  -0.131904  0  4.016041  0
C  C47  1  0.77701778  0.09082034  0.52194086  1  0.423667  0  -0.067862  0.029053  0  3.905955  0
C  C48  1  0.88965866  0.11676111  0.40168060  1  -0.020704  0  -0.172162  -0.145204  0  3.979691  0
C  C49  1  0.05138216  0.13625552  0.38938293  1  -0.061316  0  -0.241452  -0.340461  0  3.96808  0
C  C50  1  0.95101037  0.26158395  0.70114916  1  0.365367  0  -0.050551  0.0261  0  3.838305  0
C  C51  1  0.84997999  0.27801649  0.82369167  1  0.007043  0  -0.167874  -0.13788  0  3.986704  0
C  C52  1  0.52891326  0.47018413  0.13557092  1  -0.00142  0  -0.000756  0.061225  0  3.948094  0
C  C53  1  0.74035479  0.17974891  0.87835977  1  -0.050608  0  -0.237926  -0.349478  0  3.955684  0
C  C54  1  0.45231796  0.47311877  0.98391548  1  0.001351  0  -0.004799  0.030494  0  3.949574  0
C  C55  1  0.31369344  0.41879254  0.05805627  1  -0.008141  0  -0.008006  0.080152  0  4.021102  0
C  C56  1  0.28823508  0.38785563  0.16864008  1  -0.067033  0  -0.100767  -0.155081  0  4.05191  0
C  C57  1  0.39100650  0.41174638  0.20590587  1  -0.044133  0  -0.093715  -0.127413  0  4.008532  0
C  C58  1  0.47851587  0.49610377  0.87379036  1  -0.06146  0  -0.087077  -0.146533  0  3.967817  0
C  C59  1  0.23447771  0.41886063  0.91211984  1  -0.007479  0  -0.087637  -0.09566  0  4.002361  0
N  N60  1  0.87692283  0.45875182  0.47897917  1  -1.179898  0  -0.434489  -0.367416  0  3.252326  0
N  N61  1  0.12466686  0.52009216  0.53752841  1  -1.243597  0  -0.485882  -0.55956  0  3.235673  0
O  O62  1  0.63337872  0.66127227  0.45515894  1  -1.166338  0  -0.341048  -0.57198  0  2.292666  0
O  O63  1  0.04973783  0.36009453  0.65456982  1  -1.043021  0  -0.13456  -0.15972  0  2.539891  0
O  O64  1  0.36503399  0.68851084  0.53281262  1  -1.168119  0  -0.33041  -0.562278  0  2.265826  0
O  O65  1  0.70876590  0.44866769  0.31975888  1  -1.16481  0  -0.328412  -0.557115  0  2.264216  0
O  O66  1  0.45693087  0.52328776  0.35989736  1  -1.175239  0  -0.313237  -0.553923  0  2.350259  0
O  O67  1  0.60792417  0.30942498  0.52997453  1  -1.165708  0  -0.316892  -0.547813  0  2.394482  0
O  O68  1  0.38923929  0.32107336  0.50526463  1  -1.162278  0  -0.312781  -0.540617  0  2.344376  0
O  O69  1  0.55046262  0.51520811  0.65144211  1  -1.191258  0  -0.32103  -0.568416  0  2.340773  0
O  O70  1  0.30464714  0.47734083  0.69041674  1  -1.154477  0  -0.314448  -0.538301  0  2.312859  0
O  O71  1  0.62945266  0.05561619  0.53681831  1  -1.080644  0  -0.169055  -0.160998  0  2.606501  0
