# generated using pymatgen
data_KBH6C6(N3O2)2
_symmetry_space_group_name_H-M   'P 1'
_cell_length_a   6.15390037
_cell_length_b   7.70294403
_cell_length_c   23.06795027
_cell_angle_alpha   90.00230846
_cell_angle_beta   90.00013886
_cell_angle_gamma   92.86109582
_symmetry_Int_Tables_number   1
_chemical_formula_structural   KBH6C6(N3O2)2
_chemical_formula_sum   'K4 B4 H24 C24 N24 O16'
_cell_volume   1092.13044676
_cell_formula_units_Z   4
loop_
 _symmetry_equiv_pos_site_id
 _symmetry_equiv_pos_as_xyz
  1  'x, y, z'
loop_
 _atom_site_type_symbol
 _atom_site_label
 _atom_site_symmetry_multiplicity
 _atom_site_fract_x
 _atom_site_fract_y
 _atom_site_fract_z
 _atom_site_occupancy
 _atom_site_hle17_bader_spin_density
 _atom_site_hle17_ddec_charge
 _atom_site_hle17_ddec_spin_density
 _atom_site_hle17_ddec_sum_bond_order
 _atom_site_hle17_magmom
 _atom_site_hse06_10hf_bader_spin_density
 _atom_site_hse06_10hf_ddec_charge
 _atom_site_hse06_10hf_ddec_spin_density
 _atom_site_hse06_10hf_ddec_sum_bond_order
 _atom_site_hse06_10hf_magmom
 _atom_site_hse06_bader_spin_density
 _atom_site_hse06_ddec_charge
 _atom_site_hse06_ddec_spin_density
 _atom_site_hse06_ddec_sum_bond_order
 _atom_site_hse06_magmom
 _atom_site_pbe_bader_spin_density
 _atom_site_pbe_cm5_charge
 _atom_site_pbe_ddec_charge
 _atom_site_pbe_ddec_spin_density
 _atom_site_pbe_ddec_sum_bond_order
 _atom_site_pbe_magmom
K  K0  1  0.80689985  0.72882016  0.44538872  1  0  0.896882  0  0.442665  0  0  0.822883  0  0.646665  0  0  0.838051  0  0.625383  0  0  0.772875  0.811711  0  0.661798  0
K  K1  1  0.19309505  0.77125177  0.94541339  1  0  0.89683  0  0.442758  0  0  0.822808  0  0.646835  0  0  0.837973  0  0.625543  0  0  0.772801  0.811634  0  0.661972  0
K  K2  1  0.19308557  0.27119868  0.55457538  1  0  0.896919  0  0.442533  0  0  0.822808  0  0.646721  0  0  0.837974  0  0.625435  0  0  0.772697  0.811635  0  0.661861  0
K  K3  1  0.80691257  0.22880258  0.05460402  1  0  0.896856  0  0.4427  0  0  0.822853  0  0.646721  0  0  0.838015  0  0.62543  0  0  0.772792  0.811677  0  0.661857  0
B  B4  1  0.23331206  0.79300145  0.37094469  1  0  0.290644  0  3.353139  0  0  0.104174  0  3.671825  0  0  0.11997  0  3.676878  0  0  -0.277292  0.093653  0  3.667879  0
B  B5  1  0.76671661  0.70696480  0.87095776  1  0  0.290726  0  3.35338  0  0  0.10399  0  3.672035  0  0  0.119763  0  3.677126  0  0  -0.277371  0.09347  0  3.668089  0
B  B6  1  0.76666141  0.20694572  0.62905018  1  0  0.290849  0  3.353236  0  0  0.104119  0  3.671987  0  0  0.119867  0  3.677089  0  0  -0.27715  0.093593  0  3.668083  0
B  B7  1  0.23333655  0.29303725  0.12905402  1  0  0.290773  0  3.352875  0  0  0.104175  0  3.6716  0  0  0.119972  0  3.676623  0  0  -0.277159  0.093662  0  3.667655  0
H  H8  1  0.36130794  0.40123896  0.40384815  1  0  0.157405  0  0.962051  0  0  0.159446  0  1.030178  0  0  0.16355  0  1.027767  0  0  0.126325  0.156481  0  1.032051  0
H  H9  1  0.63866617  0.09874661  0.90386145  1  0  0.157237  0  0.961941  0  0  0.159292  0  1.030089  0  0  0.163396  0  1.027677  0  0  0.126277  0.156329  0  1.031963  0
H  H10  1  0.63857543  0.59873884  0.59612201  1  0  0.157463  0  0.961893  0  0  0.159525  0  1.029968  0  0  0.163629  0  1.027563  0  0  0.126416  0.156563  0  1.03184  0
H  H11  1  0.36135411  0.90124307  0.09613039  1  0  0.157394  0  0.961951  0  0  0.159481  0  1.030024  0  0  0.163593  0  1.027608  0  0  0.126317  0.156516  0  1.031898  0
H  H12  1  0.09374827  0.14275398  0.35404836  1  0  0.120213  0  0.938648  0  0  0.125615  0  1.004318  0  0  0.129217  0  1.000994  0  0  0.131046  0.122974  0  1.006771  0
H  H13  1  0.90620722  0.35719665  0.85405551  1  0  0.120269  0  0.938716  0  0  0.125667  0  1.004382  0  0  0.129271  0  1.001053  0  0  0.131056  0.123029  0  1.006831  0
H  H14  1  0.90617739  0.85717144  0.64592613  1  0  0.120229  0  0.938426  0  0  0.125678  0  1.004037  0  0  0.129284  0  1.000707  0  0  0.131113  0.123013  0  1.006517  0
H  H15  1  0.09379354  0.64279263  0.14593373  1  0  0.120311  0  0.938586  0  0  0.125742  0  1.004215  0  0  0.129345  0  1.000891  0  0  0.13114  0.123104  0  1.006664  0
H  H16  1  0.60367798  0.63114904  0.19953376  1  0  0.142624  0  0.954764  0  0  0.148158  0  1.018296  0  0  0.151333  0  1.017786  0  0  0.113856  0.145918  0  1.018778  0
H  H17  1  0.39632921  0.86887117  0.69955280  1  0  0.14282  0  0.954718  0  0  0.148347  0  1.018242  0  0  0.151524  0  1.017729  0  0  0.113916  0.146106  0  1.018733  0
H  H18  1  0.39632921  0.36889102  0.80046372  1  0  0.142753  0  0.954606  0  0  0.148254  0  1.018222  0  0  0.151429  0  1.017712  0  0  0.113886  0.146013  0  1.018703  0
H  H19  1  0.60370764  0.13112924  0.30046895  1  0  0.142617  0  0.954608  0  0  0.148109  0  1.018252  0  0  0.151283  0  1.017745  0  0  0.113791  0.14587  0  1.018735  0
H  H20  1  0.24823807  0.79376225  0.24600266  1  0  0.114827  0  0.965227  0  0  0.117335  0  1.037258  0  0  0.121256  0  1.033597  0  0  0.121958  0.114439  0  1.040006  0
H  H21  1  0.75180345  0.70624901  0.74601370  1  0  0.114821  0  0.965153  0  0  0.117444  0  1.037088  0  0  0.121379  0  1.033416  0  0  0.121991  0.114542  0  1.039849  0
H  H22  1  0.75176325  0.20624523  0.75399742  1  0  0.114809  0  0.965098  0  0  0.117341  0  1.037118  0  0  0.121263  0  1.033452  0  0  0.121979  0.114444  0  1.03986  0
H  H23  1  0.24821151  0.29372628  0.25399981  1  0  0.114628  0  0.965275  0  0  0.117251  0  1.03721  0  0  0.121181  0  1.03354  0  0  0.121942  0.114347  0  1.039972  0
H  H24  1  0.05818075  0.81256578  0.34868043  1  0  -0.190178  0  0.973258  0  0  -0.148595  0  1.069202  0  0  -0.153061  0  1.069955  0  0  0.048023  -0.145461  0  1.068585  0
H  H25  1  0.94183652  0.68738819  0.84869401  1  0  -0.190192  0  0.973231  0  0  -0.148618  0  1.06924  0  0  -0.153077  0  1.069993  0  0  0.047995  -0.145482  0  1.068614  0
H  H26  1  0.94177609  0.18736937  0.65131271  1  0  -0.190299  0  0.973432  0  0  -0.148606  0  1.069303  0  0  -0.153067  0  1.070082  0  0  0.048003  -0.145471  0  1.068675  0
H  H27  1  0.05822526  0.31262961  0.15131387  1  0  -0.190281  0  0.973468  0  0  -0.148644  0  1.069381  0  0  -0.153113  0  1.070153  0  0  0.048005  -0.145508  0  1.068757  0
H  H28  1  0.22670880  0.69817632  0.41301179  1  0  -0.203612  0  0.991574  0  0  -0.164936  0  1.094252  0  0  -0.16983  0  1.094198  0  0  0.047601  -0.16141  0  1.09411  0
H  H29  1  0.77330559  0.80180589  0.91302341  1  0  -0.203647  0  0.991845  0  0  -0.164927  0  1.094505  0  0  -0.16981  0  1.094439  0  0  0.047637  -0.161404  0  1.094369  0
H  H30  1  0.77323932  0.30179241  0.58698699  1  0  -0.203662  0  0.991511  0  0  -0.164969  0  1.094196  0  0  -0.169848  0  1.094141  0  0  0.047566  -0.161445  0  1.094059  0
H  H31  1  0.22673960  0.19820119  0.08698751  1  0  -0.203651  0  0.991598  0  0  -0.164957  0  1.094273  0  0  -0.169842  0  1.094208  0  0  0.047576  -0.161433  0  1.094135  0
C  C32  1  0.54040516  0.16569733  0.42965844  1  0  0.140687  0  3.815069  0  0  0.112991  0  4.103815  0  0  0.112255  0  4.125528  0  0  0.179664  0.113395  0  4.089247  0
C  C33  1  0.45959951  0.33431655  0.92968297  1  0  0.140986  0  3.814202  0  0  0.113125  0  4.10321  0  0  0.112377  0  4.124932  0  0  0.179551  0.113517  0  4.088668  0
C  C34  1  0.45950690  0.83431482  0.57031259  1  0  0.141066  0  3.814532  0  0  0.113224  0  4.103474  0  0  0.112488  0  4.125181  0  0  0.179505  0.113604  0  4.088951  0
C  C35  1  0.54044247  0.66569176  0.07032621  1  0  0.141009  0  3.814924  0  0  0.113348  0  4.103592  0  0  0.112611  0  4.125309  0  0  0.179555  0.113746  0  4.089038  0
C  C36  1  0.37457951  0.26163215  0.40490430  1  0  -0.229294  0  3.710782  0  0  -0.255704  0  3.980297  0  0  -0.261025  0  3.99944  0  0  -0.094872  -0.252194  0  3.967464  0
C  C37  1  0.62540773  0.23836540  0.90491906  1  0  -0.228689  0  3.710034  0  0  -0.255057  0  3.97957  0  0  -0.26038  0  3.998735  0  0  -0.094491  -0.251547  0  3.966736  0
C  C38  1  0.62534302  0.73835034  0.59506543  1  0  -0.229244  0  3.711068  0  0  -0.255615  0  3.980634  0  0  -0.260951  0  3.999804  0  0  -0.094785  -0.252089  0  3.967788  0
C  C39  1  0.37462580  0.76163235  0.09507538  1  0  -0.22925  0  3.711066  0  0  -0.255694  0  3.980556  0  0  -0.261026  0  3.999714  0  0  -0.094732  -0.252183  0  3.967722  0
C  C40  1  0.24062077  0.13334307  0.37954035  1  0  0.048927  0  3.625535  0  0  0.00434  0  3.885572  0  0  0.008983  0  3.901803  0  0  0.041389  0.001516  0  3.874416  0
C  C41  1  0.75936198  0.36663191  0.87955288  1  0  0.048585  0  3.626227  0  0  0.003868  0  3.886268  0  0  0.008504  0  3.902509  0  0  0.041285  0.001043  0  3.875117  0
C  C42  1  0.75927482  0.86660901  0.62043545  1  0  0.049205  0  3.625957  0  0  0.004383  0  3.885964  0  0  0.009014  0  3.902206  0  0  0.041433  0.001588  0  3.874813  0
C  C43  1  0.24068417  0.63335311  0.12044069  1  0  0.048818  0  3.626078  0  0  0.004024  0  3.886137  0  0  0.008649  0  3.902386  0  0  0.041299  0.001201  0  3.874987  0
C  C44  1  0.66455814  0.59115064  0.29419632  1  0  0.166668  0  3.81171  0  0  0.126633  0  4.097435  0  0  0.127099  0  4.118689  0  0  0.177814  0.126318  0  4.083092  0
C  C45  1  0.33547448  0.90883395  0.79421482  1  0  0.165955  0  3.812521  0  0  0.126083  0  4.097794  0  0  0.126601  0  4.118967  0  0  0.17746  0.125767  0  4.08345  0
C  C46  1  0.33542949  0.40883449  0.70579768  1  0  0.166344  0  3.812021  0  0  0.126351  0  4.097549  0  0  0.126822  0  4.118778  0  0  0.177615  0.126043  0  4.083204  0
C  C47  1  0.66459407  0.09119308  0.20580304  1  0  0.166408  0  3.812731  0  0  0.126472  0  4.098113  0  0  0.127043  0  4.11921  0  0  0.177644  0.126112  0  4.083832  0
C  C48  1  0.55773538  0.64854894  0.24432948  1  0  -0.223718  0  3.735442  0  0  -0.254014  0  4.01443  0  0  -0.260244  0  4.03577  0  0  -0.106735  -0.249971  0  4.000029  0
C  C49  1  0.44228658  0.85144761  0.74434502  1  0  -0.223697  0  3.735691  0  0  -0.254087  0  4.014684  0  0  -0.260329  0  4.036013  0  0  -0.106791  -0.250048  0  4.00029  0
C  C50  1  0.44228002  0.35144064  0.75566670  1  0  -0.223734  0  3.735538  0  0  -0.254082  0  4.01451  0  0  -0.26031  0  4.035841  0  0  -0.106732  -0.250037  0  4.000103  0
C  C51  1  0.55773267  0.14856153  0.25567283  1  0  -0.223724  0  3.735325  0  0  -0.254093  0  4.014251  0  0  -0.260356  0  4.035569  0  0  -0.10665  -0.250038  0  3.999863  0
C  C52  1  0.37999000  0.72875382  0.26677039  1  0  0.041689  0  3.63027  0  0  -0.003402  0  3.893482  0  0  0.001245  0  3.910658  0  0  0.029326  -0.006077  0  3.881702  0
C  C53  1  0.62004498  0.77125635  0.76678716  1  0  0.041437  0  3.630643  0  0  -0.003954  0  3.893846  0  0  0.000685  0  3.911017  0  0  0.029098  -0.006628  0  3.882075  0
C  C54  1  0.61999795  0.27124170  0.73322579  1  0  0.041608  0  3.630502  0  0  -0.003505  0  3.893718  0  0  0.001143  0  3.910884  0  0  0.029223  -0.006173  0  3.881924  0
C  C55  1  0.37998232  0.22875037  0.23322636  1  0  0.042009  0  3.630468  0  0  -0.003044  0  3.893623  0  0  0.001584  0  3.91082  0  0  0.029444  -0.005713  0  3.881841  0
N  N56  1  0.32629679  0.97595324  0.39014585  1  0  -0.026369  0  3.488935  0  0  0.074757  0  3.713169  0  0  0.062173  0  3.738866  0  0  -0.106445  0.083129  0  3.695699  0
N  N57  1  0.67372455  0.52402745  0.89016400  1  0  -0.026332  0  3.488991  0  0  0.075094  0  3.712897  0  0  0.062515  0  3.738604  0  0  -0.106469  0.083462  0  3.695434  0
N  N58  1  0.67366049  0.02404944  0.60983819  1  0  -0.027041  0  3.488903  0  0  0.074617  0  3.712691  0  0  0.062058  0  3.738377  0  0  -0.106464  0.082984  0  3.695219  0
N  N59  1  0.32634948  0.47596593  0.10984561  1  0  -0.026455  0  3.489261  0  0  0.075184  0  3.712948  0  0  0.062617  0  3.738645  0  0  -0.106387  0.083545  0  3.695491  0
N  N60  1  0.51079819  0.99317456  0.42084616  1  0  -0.304596  0  2.951125  0  0  -0.298938  0  3.230685  0  0  -0.302627  0  3.246071  0  0  -0.280049  -0.296097  0  3.220256  0
N  N61  1  0.48923972  0.50683943  0.92086750  1  0  -0.304753  0  2.950704  0  0  -0.299146  0  3.230234  0  0  -0.302829  0  3.245618  0  0  -0.279999  -0.296305  0  3.219816  0
N  N62  1  0.48915092  0.00682666  0.57913744  1  0  -0.304537  0  2.950976  0  0  -0.299006  0  3.230422  0  0  -0.302686  0  3.245787  0  0  -0.280069  -0.29616  0  3.22001  0
N  N63  1  0.51084126  0.49316838  0.07914688  1  0  -0.304738  0  2.951293  0  0  -0.299264  0  3.230729  0  0  -0.302962  0  3.246112  0  0  -0.280178  -0.29642  0  3.220308  0
N  N64  1  0.72538884  0.23012709  0.46138587  1  0  0.509783  0  3.927504  0  0  0.541756  0  4.216723  0  0  0.564469  0  4.221607  0  0  0.049211  0.526534  0  4.213327  0
N  N65  1  0.27460228  0.26990001  0.96139811  1  0  0.509342  0  3.927318  0  0  0.541358  0  4.216526  0  0  0.564076  0  4.221411  0  0  0.048951  0.52614  0  4.213136  0
N  N66  1  0.27450604  0.76990808  0.53859340  1  0  0.509075  0  3.928331  0  0  0.54111  0  4.217503  0  0  0.563822  0  4.222377  0  0  0.048858  0.525897  0  4.214112  0
N  N67  1  0.72544954  0.73011110  0.03860717  1  0  0.509429  0  3.927234  0  0  0.541406  0  4.216408  0  0  0.56412  0  4.221287  0  0  0.049101  0.526185  0  4.213021  0
N  N68  1  0.38874303  0.71677816  0.32593986  1  0  -0.026687  0  3.479708  0  0  0.073623  0  3.702641  0  0  0.060564  0  3.728189  0  0  -0.109784  0.082372  0  3.685215  0
N  N69  1  0.61128671  0.78319648  0.82595373  1  0  -0.026525  0  3.480523  0  0  0.074305  0  3.70289  0  0  0.061259  0  3.728456  0  0  -0.109417  0.08305  0  3.685454  0
N  N70  1  0.61124063  0.28318351  0.67405372  1  0  -0.026377  0  3.479708  0  0  0.073973  0  3.702608  0  0  0.060933  0  3.728172  0  0  -0.109611  0.082716  0  3.68518  0
N  N71  1  0.38878740  0.21679950  0.17406542  1  0  -0.026234  0  3.480419  0  0  0.073719  0  3.703765  0  0  0.060671  0  3.729332  0  0  -0.109836  0.08246  0  3.686333  0
N  N72  1  0.56283547  0.63234874  0.34351586  1  0  -0.307842  0  2.954758  0  0  -0.295016  0  3.232477  0  0  -0.29934  0  3.247462  0  0  -0.277987  -0.291617  0  3.222263  0
N  N73  1  0.43719598  0.86760414  0.84353430  1  0  -0.307291  0  2.95504  0  0  -0.294741  0  3.232603  0  0  -0.299086  0  3.247578  0  0  -0.277687  -0.291333  0  3.222379  0
N  N74  1  0.43714621  0.36760120  0.65647902  1  0  -0.307591  0  2.954669  0  0  -0.294816  0  3.23234  0  0  -0.299136  0  3.247317  0  0  -0.277652  -0.291424  0  3.222132  0
N  N75  1  0.56287059  0.13241116  0.15648658  1  0  -0.30787  0  2.955408  0  0  -0.29499  0  3.233151  0  0  -0.299355  0  3.248107  0  0  -0.277814  -0.291573  0  3.222947  0
N  N76  1  0.85609119  0.49448598  0.29650786  1  0  0.458893  0  3.980891  0  0  0.521572  0  4.234015  0  0  0.543766  0  4.239201  0  0  0.05304  0.506625  0  4.230519  0
N  N77  1  0.14394583  0.00550956  0.79652554  1  0  0.458906  0  3.982577  0  0  0.522046  0  4.234937  0  0  0.544233  0  4.240114  0  0  0.053227  0.507097  0  4.231438  0
N  N78  1  0.14393381  0.50549861  0.70349308  1  0  0.458772  0  3.980786  0  0  0.521718  0  4.233488  0  0  0.543916  0  4.238672  0  0  0.053114  0.506771  0  4.229986  0
N  N79  1  0.85609682  0.99452084  0.20350575  1  0  0.458883  0  3.981049  0  0  0.521867  0  4.233689  0  0  0.544031  0  4.238871  0  0  0.053342  0.506934  0  4.230197  0
O  O80  1  0.87028505  0.12857835  0.47395098  1  0  -0.410227  0  1.786432  0  0  -0.38954  0  2.009777  0  0  -0.401063  0  2.005418  0  0  -0.175682  -0.381704  0  2.012778  0
O  O81  1  0.12972705  0.37148704  0.97398131  1  0  -0.410239  0  1.785973  0  0  -0.389548  0  2.009343  0  0  -0.401052  0  2.0049  0  0  -0.175552  -0.381708  0  2.012343  0
O  O82  1  0.12966228  0.87152412  0.52600922  1  0  -0.410108  0  1.786416  0  0  -0.389383  0  2.009685  0  0  -0.400925  0  2.005327  0  0  -0.175529  -0.381542  0  2.01268  0
O  O83  1  0.87033810  0.62853473  0.02603004  1  0  -0.410138  0  1.786171  0  0  -0.389496  0  2.00961  0  0  -0.401018  0  2.005211  0  0  -0.175517  -0.381656  0  2.012611  0
O  O84  1  0.73400591  0.38670413  0.47581222  1  0  -0.430943  0  1.769109  0  0  -0.407579  0  1.988506  0  0  -0.418372  0  1.980468  0  0  -0.193585  -0.400251  0  1.994085  0
O  O85  1  0.26589578  0.11332657  0.97580050  1  0  -0.430855  0  1.769593  0  0  -0.407516  0  1.989058  0  0  -0.418305  0  1.981007  0  0  -0.193634  -0.400188  0  1.994639  0
O  O86  1  0.26577579  0.61335081  0.52418786  1  0  -0.430701  0  1.770082  0  0  -0.407407  0  1.98959  0  0  -0.41818  0  1.981536  0  0  -0.193576  -0.400084  0  1.995173  0
O  O87  1  0.73413342  0.88668927  0.02419784  1  0  -0.430893  0  1.769475  0  0  -0.407554  0  1.988923  0  0  -0.418341  0  1.980874  0  0  -0.193694  -0.400227  0  1.994506  0
O  O88  1  0.91590386  0.43627474  0.34415301  1  0  -0.375533  0  1.746023  0  0  -0.367126  0  1.942408  0  0  -0.379069  0  1.938681  0  0  -0.141974  -0.359141  0  1.945173  0
O  O89  1  0.08410330  0.06369497  0.84417017  1  0  -0.375725  0  1.746726  0  0  -0.367476  0  1.94288  0  0  -0.379427  0  1.93916  0  0  -0.142183  -0.359491  0  1.945647  0
O  O90  1  0.08405945  0.56371248  0.65584707  1  0  -0.375503  0  1.745669  0  0  -0.367257  0  1.941997  0  0  -0.379199  0  1.938269  0  0  -0.142049  -0.359266  0  1.944758  0
O  O91  1  0.91597029  0.93628411  0.15586285  1  0  -0.375523  0  1.745485  0  0  -0.367318  0  1.941806  0  0  -0.379268  0  1.938096  0  0  -0.142104  -0.359332  0  1.944566  0
O  O92  1  0.95337362  0.47158011  0.24988533  1  0  -0.360224  0  1.766186  0  0  -0.348391  0  1.964883  0  0  -0.359257  0  1.960604  0  0  -0.127711  -0.341097  0  1.968036  0
O  O93  1  0.04671719  0.02843396  0.74990008  1  0  -0.35996  0  1.766958  0  0  -0.348352  0  1.965434  0  0  -0.359239  0  1.961186  0  0  -0.127642  -0.341057  0  1.968581  0
O  O94  1  0.04667657  0.52843096  0.75012212  1  0  -0.360289  0  1.765995  0  0  -0.348473  0  1.964497  0  0  -0.359368  0  1.960243  0  0  -0.12777  -0.34118  0  1.967652  0
O  O95  1  0.95333709  0.97160447  0.25013858  1  0  -0.360414  0  1.766355  0  0  -0.348604  0  1.964866  0  0  -0.35947  0  1.960596  0  0  -0.127924  -0.341311  0  1.968015  0
