# generated using pymatgen
data_CdH5(C2O)4
_symmetry_space_group_name_H-M   'P 1'
_cell_length_a   6.56097159
_cell_length_b   9.06740897
_cell_length_c   27.99740000
_cell_angle_alpha   95.14932674
_cell_angle_beta   90.00000000
_cell_angle_gamma   111.20968930
_symmetry_Int_Tables_number   1
_chemical_formula_structural   CdH5(C2O)4
_chemical_formula_sum   'Cd8 H40 C64 O32'
_cell_volume   1545.55806645
_cell_formula_units_Z   8
loop_
 _symmetry_equiv_pos_site_id
 _symmetry_equiv_pos_as_xyz
  1  'x, y, z'
loop_
 _atom_site_type_symbol
 _atom_site_label
 _atom_site_symmetry_multiplicity
 _atom_site_fract_x
 _atom_site_fract_y
 _atom_site_fract_z
 _atom_site_occupancy
 _atom_site_hle17_bader_spin_density
 _atom_site_hle17_ddec_charge
 _atom_site_hle17_ddec_spin_density
 _atom_site_hle17_ddec_sum_bond_order
 _atom_site_hle17_magmom
 _atom_site_hse06_10hf_bader_spin_density
 _atom_site_hse06_10hf_ddec_charge
 _atom_site_hse06_10hf_ddec_spin_density
 _atom_site_hse06_10hf_ddec_sum_bond_order
 _atom_site_hse06_10hf_magmom
 _atom_site_hse06_bader_spin_density
 _atom_site_hse06_ddec_charge
 _atom_site_hse06_ddec_spin_density
 _atom_site_hse06_ddec_sum_bond_order
 _atom_site_hse06_magmom
 _atom_site_pbe_bader_charge
 _atom_site_pbe_bader_spin_density
 _atom_site_pbe_cm5_charge
 _atom_site_pbe_ddec_charge
 _atom_site_pbe_ddec_spin_density
 _atom_site_pbe_ddec_sum_bond_order
 _atom_site_pbe_magmom
Cd  Cd0  1  0.68256487  0.58942890  0.71947705  1  0  1.261562  0  1.604413  0  0  1.090232  0  2.042078  0  0  1.151591  0  1.982006  0  1.312418  0  0.744246  1.046217  0  2.083306  0
Cd  Cd1  1  0.09270389  0.41015619  0.78060969  1  0  1.261489  0  1.603731  0  0  1.089935  0  2.040873  0  0  1.151315  0  1.980881  0  1.311683  0  0.744142  1.046093  0  2.082088  0
Cd  Cd2  1  0.31743596  0.41057098  0.28052316  1  0  1.261528  0  1.60443  0  0  1.090189  0  2.042106  0  0  1.151547  0  1.982035  0  1.312363  0  0.744225  1.046173  0  2.083336  0
Cd  Cd3  1  0.90729753  0.58984487  0.21939056  1  0  1.261506  0  1.603729  0  0  1.08995  0  2.040885  0  0  1.151329  0  1.980894  0  1.311685  0  0.744147  1.046108  0  2.0821  0
Cd  Cd4  1  0.18294699  0.81715571  0.77948468  1  0  1.30555  0  1.631014  0  0  1.137232  0  2.07614  0  0  1.193888  0  2.016727  0  1.369802  0  0.787601  1.095316  0  2.117796  0
Cd  Cd5  1  0.36499259  0.18252683  0.72055202  1  0  1.305243  0  1.631656  0  0  1.13696  0  2.076432  0  0  1.193623  0  2.017132  0  1.37153  0  0.787647  1.095055  0  2.118611  0
Cd  Cd6  1  0.81705324  0.18284297  0.22051514  1  0  1.30553  0  1.631016  0  0  1.137208  0  2.076156  0  0  1.193877  0  2.01672  0  1.369923  0  0.787591  1.095292  0  2.117813  0
Cd  Cd7  1  0.63500731  0.81747423  0.27944822  1  0  1.305232  0  1.631694  0  0  1.136948  0  2.07647  0  0  1.193613  0  2.017166  0  1.371538  0  0.787632  1.095044  0  2.118648  0
H  H8  1  0.11978490  0.57922797  0.70621004  1  0  0.412091  0  0.890783  0  0  0.383365  0  0.951856  0  0  0.393614  0  0.937468  0  0.630295  0  0.273334  0.375836  0  0.962477  0
H  H9  1  0.54008947  0.42037257  0.79383964  1  0  0.412267  0  0.89033  0  0  0.383343  0  0.951818  0  0  0.393607  0  0.937398  0  0.626062  0  0.273341  0.375974  0  0.962125  0
H  H10  1  0.88021652  0.42077309  0.29378985  1  0  0.412103  0  0.890765  0  0  0.383379  0  0.951836  0  0  0.393627  0  0.937448  0  0.630302  0  0.273345  0.375849  0  0.962456  0
H  H11  1  0.45990983  0.57962731  0.20616021  1  0  0.412314  0  0.890257  0  0  0.3834  0  0.951727  0  0  0.393663  0  0.937308  0  0.626059  0  0.273369  0.376031  0  0.962034  0
H  H12  1  0.39819734  0.21795375  0.57630402  1  0  0.093857  0  0.967069  0  0  0.10033  0  1.037178  0  0  0.103251  0  1.035821  0  0.084654  0  0.09763  0.098075  0  1.038516  0
H  H13  1  0.17960288  0.78190707  0.92378537  1  0  0.093623  0  0.968243  0  0  0.100043  0  1.038401  0  0  0.102988  0  1.037006  0  0.111422  0  0.097297  0.097851  0  1.039612  0
H  H14  1  0.60179739  0.78204612  0.42369619  1  0  0.093883  0  0.967064  0  0  0.100363  0  1.03717  0  0  0.103283  0  1.035814  0  0.084621  0  0.097622  0.098107  0  1.038509  0
H  H15  1  0.82039947  0.21809280  0.07621520  1  0  0.093618  0  0.968227  0  0  0.10005  0  1.038377  0  0  0.102998  0  1.036976  0  0.111458  0  0.097294  0.097858  0  1.039588  0
H  H16  1  0.17878843  0.12308025  0.49907580  1  0  0.087237  0  0.976778  0  0  0.098097  0  1.042233  0  0  0.100138  0  1.042565  0  0.046269  0  0.096082  0.096801  0  1.041664  0
H  H17  1  0.05488248  0.87699925  0.00094245  1  0  0.087246  0  0.976423  0  0  0.098359  0  1.0415  0  0  0.100478  0  1.041723  0  0.057322  0  0.095935  0.096737  0  1.041667  0
H  H18  1  0.82120748  0.87692199  0.50092484  1  0  0.08722  0  0.976833  0  0  0.098132  0  1.042213  0  0  0.100139  0  1.042589  0  0.046133  0  0.096131  0.096841  0  1.041639  0
H  H19  1  0.94511835  0.12300062  0.99905812  1  0  0.087251  0  0.97642  0  0  0.098364  0  1.041504  0  0  0.100483  0  1.041725  0  0.056879  0  0.095949  0.096742  0  1.041673  0
H  H20  1  0.80140077  0.41236324  0.54085729  1  0  0.099105  0  0.939591  0  0  0.112892  0  0.994099  0  0  0.115637  0  0.993688  0  0.063001  0  0.103574  0.110772  0  0.995023  0
H  H21  1  0.38828630  0.58789454  0.95907006  1  0  0.099409  0  0.939492  0  0  0.11307  0  0.994432  0  0  0.11587  0  0.993971  0  0.043327  0  0.103621  0.110946  0  0.994925  0
H  H22  1  0.19860210  0.58764376  0.45914313  1  0  0.099201  0  0.939552  0  0  0.112946  0  0.994096  0  0  0.115692  0  0.993684  0  0.062884  0  0.103576  0.110825  0  0.99502  0
H  H23  1  0.61171546  0.41210415  0.04093012  1  0  0.099424  0  0.939508  0  0  0.113089  0  0.994448  0  0  0.115891  0  0.993987  0  0.043311  0  0.103629  0.11096  0  0.994956  0
H  H24  1  0.02431440  0.50983480  0.61667125  1  0  0.106074  0  0.950547  0  0  0.113392  0  1.015507  0  0  0.11676  0  1.013358  0  0.107731  0  0.104598  0.111182  0  1.016424  0
H  H25  1  0.51391950  0.48999749  0.88335302  1  0  0.10651  0  0.950158  0  0  0.114363  0  1.014242  0  0  0.117799  0  1.012022  0  0.119819  0  0.104668  0.11177  0  1.01601  0
H  H26  1  0.97568821  0.49016863  0.38332835  1  0  0.106081  0  0.95051  0  0  0.113397  0  1.015468  0  0  0.116765  0  1.013319  0  0.107791  0  0.104619  0.111186  0  1.016387  0
H  H27  1  0.48608464  0.51000595  0.11664658  1  0  0.106553  0  0.950117  0  0  0.114397  0  1.014208  0  0  0.117832  0  1.011989  0  0.119799  0  0.104669  0.11182  0  1.01596  0
H  H28  1  0.12694830  0.24892615  0.42321180  1  0  0.107472  0  0.94183  0  0  0.118104  0  1.001453  0  0  0.121794  0  0.998683  0  0.124993  0  0.10752  0.115064  0  1.003835  0
H  H29  1  0.87729978  0.75147186  0.07667747  1  0  0.108095  0  0.942462  0  0  0.118665  0  1.001876  0  0  0.122228  0  0.99921  0  0.101171  0  0.107991  0.115845  0  1.004274  0
H  H30  1  0.87305007  0.75107490  0.57678880  1  0  0.107468  0  0.94182  0  0  0.118109  0  1.001432  0  0  0.121798  0  0.998662  0  0.124977  0  0.107518  0.115069  0  1.003814  0
H  H31  1  0.12270198  0.24852682  0.92332342  1  0  0.108115  0  0.942468  0  0  0.118663  0  1.001904  0  0  0.122227  0  0.999236  0  0.101201  0  0.10799  0.115842  0  1.004305  0
H  H32  1  0.31794210  0.03240099  0.42777895  1  0  0.104571  0  0.973904  0  0  0.113292  0  1.041402  0  0  0.116196  0  1.040923  0  0.10102  0  0.103684  0.111193  0  1.041999  0
H  H33  1  0.28501094  0.96822404  0.07220407  1  0  0.104602  0  0.973689  0  0  0.113171  0  1.041451  0  0  0.11597  0  1.041167  0  0.088008  0  0.104166  0.111315  0  1.0414  0
H  H34  1  0.68205627  0.96760007  0.57222094  1  0  0.104568  0  0.973898  0  0  0.113264  0  1.041432  0  0  0.116169  0  1.04095  0  0.10103  0  0.103666  0.111163  0  1.042034  0
H  H35  1  0.71498632  0.03176870  0.92779558  1  0  0.104528  0  0.973749  0  0  0.113134  0  1.041473  0  0  0.115924  0  1.041211  0  0.088064  0  0.104172  0.111278  0  1.041422  0
H  H36  1  0.53777220  0.15819222  0.50159655  1  0  0.086992  0  0.978214  0  0  0.097734  0  1.04348  0  0  0.099954  0  1.042374  0  0.09272  0  0.100078  0.096018  0  1.044543  0
H  H37  1  0.37873351  0.84231396  0.99837408  1  0  0.086385  0  0.97887  0  0  0.096857  0  1.044778  0  0  0.099045  0  1.043719  0  0.098806  0  0.100137  0.09531  0  1.045444  0
H  H38  1  0.46222618  0.84180884  0.49840369  1  0  0.086998  0  0.978256  0  0  0.097733  0  1.043522  0  0  0.099953  0  1.042413  0  0.092738  0  0.100082  0.096018  0  1.044584  0
H  H39  1  0.62126434  0.15767997  0.00162595  1  0  0.086363  0  0.978901  0  0  0.096828  0  1.044818  0  0  0.099015  0  1.04376  0  0.098751  0  0.10016  0.095289  0  1.04549  0
H  H40  1  0.18378887  0.01102099  0.35129223  1  0  0.102722  0  0.945769  0  0  0.112981  0  1.008051  0  0  0.114019  0  1.007615  0  0.116062  0  0.115296  0.112204  0  1.008479  0
H  H41  1  0.17214090  0.98888380  0.14877630  1  0  0.102485  0  0.945942  0  0  0.113383  0  1.00757  0  0  0.114473  0  1.007054  0  0.118802  0  0.115442  0.112615  0  1.008014  0
H  H42  1  0.81621043  0.98897888  0.64870834  1  0  0.102719  0  0.945751  0  0  0.112975  0  1.008031  0  0  0.114014  0  1.007594  0  0.116061  0  0.115285  0.112198  0  1.008459  0
H  H43  1  0.82785476  0.01111489  0.85122352  1  0  0.102483  0  0.945918  0  0  0.113412  0  1.007532  0  0  0.114502  0  1.007017  0  0.118664  0  0.115435  0.112643  0  1.007978  0
H  H44  1  0.20406093  0.83496068  0.37192791  1  0  0.095371  0  0.939478  0  0  0.105461  0  1.00546  0  0  0.106178  0  1.00611  0  0.118045  0  0.112866  0.10471  0  1.005523  0
H  H45  1  0.36773346  0.16506652  0.12805703  1  0  0.094256  0  0.940805  0  0  0.104643  0  1.006905  0  0  0.105349  0  1.007619  0  0.112314  0  0.112852  0.104443  0  1.00606  0
H  H46  1  0.79594050  0.16504038  0.62807198  1  0  0.095355  0  0.939457  0  0  0.105426  0  1.00545  0  0  0.106143  0  1.006099  0  0.118032  0  0.112845  0.104676  0  1.005513  0
H  H47  1  0.63226466  0.83493097  0.87194240  1  0  0.094283  0  0.940798  0  0  0.104666  0  1.006923  0  0  0.105372  0  1.007637  0  0.112255  0  0.112857  0.104465  0  1.006081  0
C  C48  1  0.36581850  0.43226830  0.64578485  1  0  0.655075  0  3.898917  0  0  0.605328  0  4.186316  0  0  0.639927  0  4.18013  0  1.549029  0  0.198411  0.581557  0  4.189964  0
C  C49  1  0.93343894  0.56756518  0.85431446  1  0  0.655506  0  3.902041  0  0  0.605759  0  4.189164  0  0  0.640495  0  4.183059  0  1.555354  0  0.198249  0.582069  0  4.192929  0
C  C50  1  0.63418352  0.56773395  0.35421543  1  0  0.655101  0  3.899002  0  0  0.605352  0  4.186419  0  0  0.639952  0  4.180236  0  1.548957  0  0.19841  0.58159  0  4.190056  0
C  C51  1  0.06656460  0.43243707  0.14568582  1  0  0.655562  0  3.901935  0  0  0.60578  0  4.18911  0  0  0.640512  0  4.183013  0  1.555355  0  0.198253  0.582092  0  4.192871  0
C  C52  1  0.22677237  0.37065508  0.60096741  1  0  -0.068529  0  3.756698  0  0  -0.046653  0  3.988824  0  0  -0.054636  0  4.01053  0  0.01746  0  -0.022931  -0.040878  0  3.973648  0
C  C53  1  0.85567425  0.62915107  0.89907896  1  0  -0.069265  0  3.759965  0  0  -0.047316  0  3.992167  0  0  -0.055446  0  4.01411  0  0.054948  0  -0.023374  -0.042093  0  3.977794  0
C  C54  1  0.77322507  0.62934717  0.39903251  1  0  -0.068561  0  3.756666  0  0  -0.04671  0  3.988822  0  0  -0.05469  0  4.010524  0  0.017524  0  -0.022928  -0.040938  0  3.973646  0
C  C55  1  0.14433082  0.37085118  0.10092132  1  0  -0.069225  0  3.759937  0  0  -0.047259  0  3.992142  0  0  -0.055389  0  4.014088  0  0.054947  0  -0.023352  -0.042035  0  3.977769  0
C  C56  1  0.26893814  0.26107742  0.56773768  1  0  -0.069718  0  3.759309  0  0  -0.092271  0  4.007099  0  0  -0.091671  0  4.028086  0  -0.101626  0  -0.090005  -0.092501  0  3.992027  0
C  C57  1  0.00721874  0.73877627  0.93233400  1  0  -0.068948  0  3.760452  0  0  -0.091168  0  4.007288  0  0  -0.09052  0  4.028308  0  -0.065084  0  -0.089654  -0.09177  0  3.993686  0
C  C58  1  0.73106082  0.73892483  0.43226367  1  0  -0.069883  0  3.759433  0  0  -0.092446  0  4.007264  0  0  -0.091848  0  4.028246  0  -0.101744  0  -0.09004  -0.092678  0  3.9922  0
C  C59  1  0.99278573  0.26122479  0.06766624  1  0  -0.068964  0  3.760467  0  0  -0.091197  0  4.0073  0  0  -0.090549  0  4.028324  0  -0.065048  0  -0.089627  -0.091798  0  3.993695  0
C  C60  1  0.14742660  0.20932997  0.52477002  1  0  -0.132249  0  3.764592  0  0  -0.148717  0  4.008625  0  0  -0.153685  0  4.031525  0  0.015197  0  -0.09722  -0.145983  0  3.992668  0
C  C61  1  0.93730359  0.79070556  0.97525409  1  0  -0.133442  0  3.765017  0  0  -0.150522  0  4.008958  0  0  -0.155642  0  4.031804  0  -0.024066  0  -0.097561  -0.146961  0  3.993817  0
C  C62  1  0.85256779  0.79067228  0.47523062  1  0  -0.132152  0  3.764593  0  0  -0.148626  0  4.008631  0  0  -0.153573  0  4.031547  0  0.015331  0  -0.097278  -0.145898  0  3.99267  0
C  C63  1  0.06269664  0.20929312  0.02474609  1  0  -0.133441  0  3.765008  0  0  -0.150541  0  4.008956  0  0  -0.155659  0  4.0318  0  -0.023516  0  -0.097614  -0.14698  0  3.993814  0
C  C64  1  0.97758236  0.26262128  0.51437760  1  0  0.057068  0  3.801875  0  0  0.072469  0  4.031498  0  0  0.074118  0  4.05612  0  -0.048558  0  -0.006711  0.071977  0  4.01539  0
C  C65  1  0.71409470  0.73768284  0.98557324  1  0  0.058473  0  3.802275  0  0  0.074287  0  4.032078  0  0  0.076058  0  4.056713  0  -0.085931  0  -0.006384  0.073073  0  4.014794  0
C  C66  1  0.02241449  0.73737978  0.48562229  1  0  0.057088  0  3.801856  0  0  0.072429  0  4.03156  0  0  0.074084  0  4.056166  0  -0.048584  0  -0.006714  0.071937  0  4.015453  0
C  C67  1  0.28590646  0.26231465  0.01442726  1  0  0.058516  0  3.802147  0  0  0.074374  0  4.031906  0  0  0.076147  0  4.056537  0  -0.086018  0  -0.006329  0.073162  0  4.01462  0
C  C68  1  0.93186695  0.36911121  0.54848981  1  0  -0.119083  0  3.730129  0  0  -0.138708  0  3.9814  0  0  -0.143255  0  4.002393  0  -0.023249  0  -0.089928  -0.136579  0  3.967385  0
C  C69  1  0.56207208  0.63102415  0.95146326  1  0  -0.119822  0  3.729938  0  0  -0.140116  0  3.982088  0  0  -0.144816  0  4.003219  0  -0.016954  0  -0.089546  -0.136328  0  3.966299  0
C  C70  1  0.06813109  0.63089222  0.45150943  1  0  -0.119306  0  3.730299  0  0  -0.138886  0  3.981599  0  0  -0.143435  0  4.002593  0  -0.023081  0  -0.089947  -0.136755  0  3.967581  0
C  C71  1  0.43792934  0.36897691  0.04853627  1  0  -0.119857  0  3.729907  0  0  -0.140183  0  3.982073  0  0  -0.144886  0  4.003207  0  -0.016983  0  -0.089615  -0.136398  0  3.966288  0
C  C72  1  0.05701797  0.42422926  0.59098790  1  0  -0.053757  0  3.720099  0  0  -0.077135  0  3.971062  0  0  -0.075266  0  3.989459  0  -0.093909  0  -0.081363  -0.078012  0  3.957104  0
C  C73  1  0.63229677  0.57566008  0.90901374  1  0  -0.05368  0  3.720526  0  0  -0.077319  0  3.970927  0  0  -0.075449  0  3.989392  0  -0.125877  0  -0.081048  -0.07827  0  3.957846  0
C  C74  1  0.94298099  0.57577299  0.40901238  1  0  -0.053587  0  3.719939  0  0  -0.076938  0  3.970864  0  0  -0.075069  0  3.989261  0  -0.093986  0  -0.081332  -0.077814  0  3.956905  0
C  C75  1  0.36770618  0.42434098  0.09098614  1  0  -0.053764  0  3.720472  0  0  -0.07739  0  3.970884  0  0  -0.07552  0  3.989351  0  -0.125892  0  -0.081045  -0.078355  0  3.957797  0
C  C76  1  0.84880450  0.20312360  0.46888623  1  0  0.021694  0  3.819851  0  0  0.035825  0  4.056462  0  0  0.032057  0  4.081565  0  0.041715  0  -0.017835  0.038486  0  4.036855  0
C  C77  1  0.64486758  0.79731007  0.03105087  1  0  0.021573  0  3.816903  0  0  0.036108  0  4.052509  0  0  0.032407  0  4.077299  0  0.025649  0  -0.018606  0.038214  0  4.03515  0
C  C78  1  0.15119506  0.79687984  0.53111409  1  0  0.021695  0  3.819919  0  0  0.035838  0  4.056533  0  0  0.032068  0  4.081634  0  0.041866  0  -0.017834  0.038499  0  4.036925  0
C  C79  1  0.35513206  0.20268742  0.96894891  1  0  0.02158  0  3.816703  0  0  0.036116  0  4.052294  0  0  0.032412  0  4.077087  0  0.025675  0  -0.018591  0.038221  0  4.034937  0
C  C80  1  0.94938288  0.19668904  0.42512264  1  0  -0.083292  0  3.717549  0  0  -0.116201  0  3.971169  0  0  -0.113582  0  3.989922  0  -0.059928  0  -0.077405  -0.1161  0  3.954645  0
C  C81  1  0.75201300  0.80374463  0.07478981  1  0  -0.082392  0  3.715052  0  0  -0.115032  0  3.966856  0  0  -0.112176  0  3.985385  0  -0.066188  0  -0.077479  -0.11682  0  3.95443  0
C  C82  1  0.05061490  0.80331083  0.57487757  1  0  -0.083328  0  3.717554  0  0  -0.116241  0  3.971176  0  0  -0.11362  0  3.989926  0  -0.059954  0  -0.07742  -0.116141  0  3.954652  0
C  C83  1  0.24798604  0.19625167  0.92520994  1  0  -0.082448  0  3.715101  0  0  -0.115059  0  3.966891  0  0  -0.112203  0  3.98542  0  -0.06639  0  -0.077489  -0.116846  0  3.954463  0
C  C84  1  0.82919764  0.13256570  0.38198312  1  0  -0.180523  0  3.730871  0  0  -0.167374  0  3.981634  0  0  -0.179313  0  4.002061  0  0.002845  0  -0.030495  -0.159742  0  3.967216  0
C  C85  1  0.69614077  0.86789293  0.11795078  1  0  -0.181902  0  3.730645  0  0  -0.16813  0  3.979088  0  0  -0.180214  0  3.999512  0  -0.030268  0  -0.030903  -0.160177  0  3.96571  0
C  C86  1  0.17080166  0.86743417  0.61801709  1  0  -0.180381  0  3.730919  0  0  -0.167225  0  3.9817  0  0  -0.179162  0  4.002127  0  0.002844  0  -0.030447  -0.159592  0  3.967282  0
C  C87  1  0.30385523  0.13210337  0.88204861  1  0  -0.181851  0  3.730655  0  0  -0.168098  0  3.979125  0  0  -0.180187  0  3.999544  0  -0.030084  0  -0.030915  -0.160144  0  3.965745  0
C  C88  1  0.59883150  0.06425883  0.38354436  1  0  0.296511  0  3.741425  0  0  0.277232  0  3.99985  0  0  0.292019  0  4.01372  0  0.437364  0  0.099728  0.26722  0  3.991092  0
C  C89  1  0.53407651  0.93623189  0.11641511  1  0  0.296099  0  3.744421  0  0  0.278907  0  3.999487  0  0  0.293807  0  4.013213  0  0.455758  0  0.100715  0.268528  0  3.990331  0
C  C90  1  0.40116569  0.93573985  0.61645546  1  0  0.296447  0  3.741486  0  0  0.277127  0  3.999908  0  0  0.291913  0  4.013779  0  0.437352  0  0.099723  0.267115  0  3.99115  0
C  C91  1  0.46591678  0.06376203  0.88358492  1  0  0.296048  0  3.744461  0  0  0.27886  0  3.999495  0  0  0.293762  0  4.013217  0  0.455767  0  0.100707  0.268481  0  3.990336  0
C  C92  1  0.49544664  0.07843530  0.42657004  1  0  -0.20149  0  3.757971  0  0  -0.221372  0  4.013846  0  0  -0.228811  0  4.033365  0  -0.021785  0  -0.107484  -0.216961  0  4.001573  0
C  C93  1  0.41644465  0.92213030  0.07340340  1  0  -0.2021  0  3.758332  0  0  -0.223022  0  4.014514  0  0  -0.230442  0  4.033985  0  -0.023352  0  -0.108533  -0.217985  0  4.001213  0
C  C94  1  0.50455326  0.92156576  0.57343021  1  0  -0.201419  0  3.757949  0  0  -0.22129  0  4.013835  0  0  -0.228728  0  4.033352  0  -0.02194  0  -0.107449  -0.21688  0  4.001561  0
C  C95  1  0.58355049  0.07786125  0.92659657  1  0  -0.201965  0  3.758291  0  0  -0.222922  0  4.014477  0  0  -0.230345  0  4.033943  0  -0.023449  0  -0.108496  -0.217886  0  4.001177  0
C  C96  1  0.61989954  0.14948762  0.46829725  1  0  -0.065619  0  3.752303  0  0  -0.085963  0  3.996746  0  0  -0.083638  0  4.015925  0  -0.097802  0  -0.081166  -0.087061  0  3.983198  0
C  C97  1  0.46961720  0.85101261  0.03166679  1  0  -0.064548  0  3.751042  0  0  -0.084959  0  3.995814  0  0  -0.082645  0  4.014952  0  -0.040732  0  -0.080635  -0.085954  0  3.982433  0
C  C98  1  0.38009824  0.85051225  0.53170296  1  0  -0.065633  0  3.752357  0  0  -0.085961  0  3.996784  0  0  -0.083633  0  4.015961  0  -0.097627  0  -0.081151  -0.087057  0  3.983235  0
C  C99  1  0.53038065  0.14898131  0.96833325  1  0  -0.064522  0  3.750889  0  0  -0.084936  0  3.995704  0  0  -0.082618  0  4.014842  0  -0.0407  0  -0.080646  -0.085944  0  3.982334  0
C  C100  1  0.94986595  0.15697757  0.33625197  1  0  0.687959  0  3.871376  0  0  0.633213  0  4.168168  0  0  0.671004  0  4.157591  0  1.549995  0  0.213204  0.607151  0  4.175694  0
C  C101  1  0.79223742  0.84333131  0.16367507  1  0  0.688903  0  3.87084  0  0  0.633252  0  4.16865  0  0  0.670987  0  4.158063  0  1.546188  0  0.212663  0.60738  0  4.175283  0
C  C102  1  0.05013454  0.84302468  0.66374831  1  0  0.687798  0  3.871408  0  0  0.633007  0  4.168278  0  0  0.670798  0  4.157704  0  1.549993  0  0.21311  0.606945  0  4.175802  0
C  C103  1  0.20776434  0.15666737  0.83632474  1  0  0.688864  0  3.870777  0  0  0.633159  0  4.168684  0  0  0.670912  0  4.158073  0  1.546172  0  0.212636  0.607287  0  4.175317  0
C  C104  1  0.25332396  0.91830450  0.34401555  1  0  -0.068866  0  3.616237  0  0  -0.122828  0  3.867409  0  0  -0.119464  0  3.868533  0  0.369579  0  -0.064075  -0.125158  0  3.866537  0
C  C105  1  0.33421252  0.08187008  0.15600117  1  0  -0.066899  0  3.616947  0  0  -0.12285  0  3.868001  0  0  -0.11955  0  3.869164  0  0.370067  0  -0.06432  -0.12532  0  3.867247  0
C  C106  1  0.74667746  0.08169655  0.65598470  1  0  -0.068842  0  3.616168  0  0  -0.122787  0  3.867323  0  0  -0.119421  0  3.868443  0  0.369586  0  -0.064019  -0.125115  0  3.866451  0
C  C107  1  0.66578407  0.91812742  0.84399861  1  0  -0.066999  0  3.616937  0  0  -0.123052  0  3.86812  0  0  -0.119754  0  3.869281  0  0.370159  0  -0.064357  -0.125521  0  3.867371  0
C  C108  1  0.16305675  0.82536827  0.29636244  1  0  0.710745  0  3.827404  0  0  0.657399  0  4.122151  0  0  0.692681  0  4.114337  0  1.596299  0  0.218161  0.633385  0  4.126688  0
C  C109  1  0.33705884  0.17482889  0.20363529  1  0  0.707585  0  3.832896  0  0  0.656735  0  4.124108  0  0  0.691952  0  4.116365  0  1.613235  0  0.217458  0.632503  0  4.128824  0
C  C110  1  0.83694493  0.17463635  0.70363719  1  0  0.710836  0  3.827304  0  0  0.657419  0  4.122159  0  0  0.6927  0  4.114342  0  1.59648  0  0.218124  0.633405  0  4.126697  0
C  C111  1  0.66294139  0.82516979  0.79636418  1  0  0.707763  0  3.832768  0  0  0.656892  0  4.124029  0  0  0.692111  0  4.116284  0  1.613231  0  0.217502  0.632653  0  4.128756  0
O  O112  1  0.49304159  0.35977076  0.65774419  1  0  -0.706455  0  1.975264  0  0  -0.636313  0  2.227285  0  0  -0.666871  0  2.215134  0  -1.185451  0  -0.348359  -0.614381  0  2.235227  0
O  O113  1  0.13312914  0.64018989  0.84240811  1  0  -0.705932  0  1.976392  0  0  -0.635772  0  2.228343  0  0  -0.6664  0  2.216137  0  -1.188474  0  -0.34827  -0.614154  0  2.236092  0
O  O114  1  0.50696195  0.64023149  0.34225609  1  0  -0.706478  0  1.975314  0  0  -0.636338  0  2.22736  0  0  -0.666889  0  2.215189  0  -1.185436  0  -0.348361  -0.614408  0  2.235297  0
O  O115  1  0.86687169  0.35980998  0.15759210  1  0  -0.705978  0  1.976263  0  0  -0.635804  0  2.228236  0  0  -0.666432  0  2.21603  0  -1.188547  0  -0.348285  -0.614184  0  2.235983  0
O  O116  1  0.36158074  0.55651923  0.66979806  1  0  -0.616362  0  1.965033  0  0  -0.553067  0  2.19575  0  0  -0.580566  0  2.186039  0  -1.161898  0  -0.312394  -0.533883  0  2.202357  0
O  O117  1  0.80521854  0.44320016  0.83029115  1  0  -0.616733  0  1.966132  0  0  -0.553042  0  2.196691  0  0  -0.580679  0  2.18693  0  -1.165658  0  -0.312208  -0.53396  0  2.203119  0
O  O118  1  0.63842280  0.44348302  0.33020258  1  0  -0.616327  0  1.964993  0  0  -0.553025  0  2.1957  0  0  -0.580525  0  2.185989  0  -1.161811  0  -0.312361  -0.533844  0  2.202303  0
O  O119  1  0.19478195  0.55680209  0.16970877  1  0  -0.616758  0  1.966166  0  0  -0.553066  0  2.196752  0  0  -0.580702  0  2.186993  0  -1.165695  0  -0.312214  -0.533986  0  2.203182  0
O  O120  1  0.14064787  0.26221481  0.33957205  1  0  -0.62239  0  2.014248  0  0  -0.557678  0  2.265808  0  0  -0.587023  0  2.25305  0  -1.156566  0  -0.316901  -0.537484  0  2.27427  0
O  O121  1  0.87741620  0.73787419  0.16032610  1  0  -0.623211  0  2.013902  0  0  -0.558609  0  2.26621  0  0  -0.587822  0  2.253379  0  -1.140369  0  -0.316519  -0.538051  0  2.274419  0
O  O122  1  0.85935322  0.73778862  0.66042898  1  0  -0.622339  0  2.014273  0  0  -0.557626  0  2.265872  0  0  -0.586971  0  2.253114  0  -1.156534  0  -0.316893  -0.537433  0  2.274335  0
O  O123  1  0.12259039  0.26212805  0.83967383  1  0  -0.623213  0  2.01388  0  0  -0.558569  0  2.266189  0  0  -0.587788  0  2.25335  0  -1.140321  0  -0.316516  -0.538012  0  2.274401  0
O  O124  1  0.86056019  0.07719450  0.29643260  1  0  -0.705422  0  2.125509  0  0  -0.630746  0  2.402436  0  0  -0.662108  0  2.386495  0  -1.171286  0  -0.336659  -0.608421  0  2.41359  0
O  O125  1  0.78289372  0.92309417  0.20351600  1  0  -0.705259  0  2.125276  0  0  -0.631029  0  2.403454  0  0  -0.662268  0  2.387313  0  -1.170154  0  -0.336427  -0.608465  0  2.413731  0
O  O126  1  0.13944182  0.92280774  0.70356768  1  0  -0.705361  0  2.125464  0  0  -0.630652  0  2.402372  0  0  -0.662012  0  2.386432  0  -1.171321  0  -0.336582  -0.608328  0  2.413523  0
O  O127  1  0.21710592  0.07690332  0.79648414  1  0  -0.705251  0  2.125233  0  0  -0.631015  0  2.403442  0  0  -0.662258  0  2.387294  0  -1.170184  0  -0.336426  -0.608454  0  2.41372  0
O  O128  1  0.48538492  0.98823606  0.34225186  1  0  -0.268966  0  2.449313  0  0  -0.190634  0  2.683965  0  0  -0.210315  0  2.685805  0  -1.089858  0  -0.168066  -0.176893  0  2.682714  0
O  O129  1  0.49676025  0.01230933  0.15770134  1  0  -0.269138  0  2.45085  0  0  -0.191124  0  2.68535  0  0  -0.210757  0  2.687106  0  -1.090179  0  -0.168311  -0.177137  0  2.683735  0
O  O130  1  0.51461345  0.01176500  0.65774838  1  0  -0.269054  0  2.449236  0  0  -0.190622  0  2.683803  0  0  -0.210303  0  2.685642  0  -1.089819  0  -0.168113  -0.176882  0  2.682554  0
O  O131  1  0.50323515  0.98768578  0.84229873  1  0  -0.269098  0  2.450888  0  0  -0.190998  0  2.68534  0  0  -0.210626  0  2.687092  0  -1.090121  0  -0.168287  -0.177007  0  2.683718  0
O  O132  1  0.95528161  0.76438377  0.29191631  1  0  -0.684049  0  2.112936  0  0  -0.607888  0  2.380892  0  0  -0.641945  0  2.370012  0  -1.175631  0  -0.326887  -0.583781  0  2.388059  0
O  O133  1  0.19035744  0.23587163  0.20807132  1  0  -0.681389  0  2.114293  0  0  -0.607031  0  2.382374  0  0  -0.641017  0  2.37138  0  -1.183642  0  -0.326654  -0.583099  0  2.389264  0
O  O134  1  0.04472041  0.23561848  0.70808361  1  0  -0.68403  0  2.113026  0  0  -0.607846  0  2.381003  0  0  -0.64191  0  2.370138  0  -1.175648  0  -0.326826  -0.583739  0  2.388172  0
O  O135  1  0.80964279  0.76412705  0.79192849  1  0  -0.681464  0  2.114271  0  0  -0.607089  0  2.382359  0  0  -0.641076  0  2.371365  0  -1.183662  0  -0.326655  -0.583142  0  2.389221  0
O  O136  1  0.28624714  0.80382189  0.26395748  1  0  -0.626772  0  2.017978  0  0  -0.559942  0  2.273064  0  0  -0.589399  0  2.259178  0  -1.15101  0  -0.307168  -0.539153  0  2.282094  0
O  O137  1  0.48181977  0.19629327  0.23602680  1  0  -0.626543  0  2.020968  0  0  -0.559874  0  2.274021  0  0  -0.5893  0  2.260156  0  -1.156426  0  -0.306682  -0.538794  0  2.28301  0
O  O138  1  0.71375487  0.19618036  0.73604244  1  0  -0.626858  0  2.017803  0  0  -0.560019  0  2.272929  0  0  -0.589472  0  2.259035  0  -1.15118  0  -0.307216  -0.53923  0  2.28196  0
O  O139  1  0.51817953  0.80370660  0.76397270  1  0  -0.626617  0  2.020939  0  0  -0.559935  0  2.273998  0  0  -0.589357  0  2.260129  0  -1.156361  0  -0.306701  -0.538853  0  2.28299  0
O  O140  1  0.02914647  0.58068626  0.73415181  1  0  -1.018254  0  1.837449  0  0  -0.910939  0  2.092626  0  0  -0.953274  0  2.06245  0  -1.209935  0  -0.593043  -0.880335  0  2.113177  0
O  O141  1  0.44806401  0.41906283  0.76590541  1  0  -1.018391  0  1.836399  0  0  -0.911076  0  2.091403  0  0  -0.953323  0  2.061165  0  -1.206151  0  -0.593144  -0.880241  0  2.111514  0
O  O142  1  0.97085436  0.41931361  0.26584805  1  0  -1.018241  0  1.837422  0  0  -0.910917  0  2.092598  0  0  -0.953254  0  2.062423  0  -1.20995  0  -0.593038  -0.88031  0  2.113147  0
O  O143  1  0.55193741  0.58093822  0.23409448  1  0  -1.018438  0  1.836365  0  0  -0.911109  0  2.09136  0  0  -0.953357  0  2.061121  0  -1.206139  0  -0.593154  -0.880275  0  2.111472  0
