# generated using pymatgen
data_NiH12(CN)8
_symmetry_space_group_name_H-M   'P 1'
_cell_length_a   7.04398397
_cell_length_b   11.68152694
_cell_length_c   15.44480000
_cell_angle_alpha   90.00000000
_cell_angle_beta   90.00000000
_cell_angle_gamma   90.00000000
_symmetry_Int_Tables_number   1
_chemical_formula_structural   NiH12(CN)8
_chemical_formula_sum   'Ni4 H48 C32 N32'
_cell_volume   1270.86746891
_cell_formula_units_Z   4
loop_
 _symmetry_equiv_pos_site_id
 _symmetry_equiv_pos_as_xyz
  1  'x, y, z'
loop_
 _atom_site_type_symbol
 _atom_site_label
 _atom_site_symmetry_multiplicity
 _atom_site_fract_x
 _atom_site_fract_y
 _atom_site_fract_z
 _atom_site_occupancy
 _atom_site_hle17_ddec_charge
 _atom_site_hle17_ddec_spin_density
 _atom_site_hle17_ddec_sum_bond_order
 _atom_site_hle17_magmom
 _atom_site_hse06_10hf_ddec_charge
 _atom_site_hse06_10hf_ddec_spin_density
 _atom_site_hse06_10hf_ddec_sum_bond_order
 _atom_site_hse06_10hf_magmom
 _atom_site_hse06_ddec_charge
 _atom_site_hse06_ddec_spin_density
 _atom_site_hse06_ddec_sum_bond_order
 _atom_site_hse06_magmom
 _atom_site_pbe_bader_charge
 _atom_site_pbe_bader_spin_density
 _atom_site_pbe_cm5_charge
 _atom_site_pbe_ddec_charge
 _atom_site_pbe_ddec_spin_density
 _atom_site_pbe_ddec_sum_bond_order
 _atom_site_pbe_magmom
Ni  Ni0  1  0.62378478  0.52434155  0.65528074  1  0.877622  1.758532  2.230389  1.492  0.884525  1.802474  2.639001  1.598  0.96443  1.860513  2.565845  1.687  1.165058  1.534752  0.716397  0.829011  1.750907  2.690424  1.522
Ni  Ni1  1  0.87623567  0.47566727  0.15527686  1  0.877716  1.758534  2.230136  1.492  0.884566  1.802486  2.638754  1.598  0.964395  1.860531  2.565792  1.687  1.165162  1.534755  0.716373  0.829079  1.750927  2.690167  1.522
Ni  Ni2  1  0.37623453  0.02434185  0.84471732  1  0.877785  1.758532  2.229939  1.492  0.884691  1.802488  2.638542  1.598  0.96456  1.860529  2.565477  1.687  1.16508  1.534762  0.716414  0.829174  1.750921  2.689962  1.522
Ni  Ni3  1  0.12377371  0.97566269  0.34472055  1  0.877828  1.758529  2.229875  1.492  0.88476  1.802488  2.638452  1.598  0.964569  1.860533  2.565529  1.687  1.165224  1.534759  0.716387  0.829267  1.750921  2.689865  1.522
H  H4  1  0.48988186  0.47366667  0.80901727  1  0.28439  -0.001856  0.937891  -0.002  0.270505  -0.000222  1.006301  0.0  0.276024  -0.000423  1.004245  -0.001  0.447421  -0.000102  0.286187  0.266674  -8e-06  1.00758  0.0
H  H5  1  0.01011927  0.52632588  0.30902440  1  0.284339  -0.001856  0.937833  -0.002  0.270471  -0.000221  1.006226  0.0  0.275995  -0.000422  1.004167  -0.001  0.447366  -0.000102  0.286146  0.266641  -8e-06  1.007503  0.0
H  H6  1  0.51012467  0.97366381  0.69096978  1  0.284431  -0.001855  0.937984  -0.002  0.270585  -0.000222  1.006346  0.0  0.276109  -0.000422  1.004289  -0.001  0.447229  -0.0001  0.286178  0.266753  -8e-06  1.007627  0.0
H  H7  1  0.98988158  0.02634159  0.19097949  1  0.284388  -0.001858  0.937876  -0.002  0.27056  -0.000222  1.00624  0.0  0.276083  -0.000423  1.004183  -0.001  0.447336  -0.000101  0.286168  0.266728  -9e-06  1.007523  0.0
H  H8  1  0.35808855  0.57656247  0.76483736  1  0.280722  -0.001949  0.929078  -0.002  0.268711  -0.000292  0.995484  0.0  0.273992  -0.000485  0.993673  -0.001  0.44143  -5.9e-05  0.286678  0.264977  -8.5e-05  0.996709  0.0
H  H9  1  0.14192253  0.42343266  0.26484189  1  0.280576  -0.001948  0.92908  -0.002  0.268629  -0.000291  0.995403  0.0  0.273913  -0.000485  0.993589  -0.001  0.441464  -5.9e-05  0.286704  0.264896  -8.4e-05  0.996624  0.0
H  H10  1  0.64192934  0.07655848  0.73516005  1  0.280675  -0.001948  0.929083  -0.002  0.268705  -0.000292  0.995465  0.0  0.273989  -0.000486  0.993652  -0.001  0.441499  -5.9e-05  0.286719  0.264971  -8.5e-05  0.996687  0.0
H  H11  1  0.85808117  0.92344349  0.23515876  1  0.280701  -0.001948  0.928992  -0.002  0.268736  -0.000292  0.995354  0.0  0.274022  -0.000485  0.993535  -0.001  0.441586  -6e-05  0.286714  0.265002  -8.5e-05  0.996583  0.0
H  H12  1  0.15162300  0.41980813  0.76345760  1  0.062819  0.003218  0.916383  0.005  0.080308  0.00205  0.97395  0.003  0.077999  0.001378  0.976534  0.002  0.04995  0.005979  0.102591  0.082357  0.002685  0.971842  0.004
H  H13  1  0.34839091  0.58018528  0.26346343  1  0.062712  0.003218  0.916421  0.005  0.080269  0.002049  0.973948  0.003  0.07796  0.001378  0.976531  0.002  0.050381  0.005974  0.102546  0.082315  0.002684  0.971852  0.004
H  H14  1  0.84838779  0.91980869  0.73653592  1  0.062705  0.003216  0.916481  0.005  0.080239  0.00205  0.974046  0.003  0.077928  0.001378  0.97663  0.002  0.050362  0.005975  0.102535  0.082284  0.002684  0.971948  0.004
H  H15  1  0.65161420  0.08020013  0.23654304  1  0.06273  0.003219  0.916507  0.005  0.080252  0.00205  0.974077  0.003  0.077943  0.001378  0.97666  0.002  0.049858  0.005979  0.102582  0.082299  0.002685  0.971972  0.004
H  H16  1  0.34236165  0.32943895  0.73346822  1  0.064397  -0.000144  0.943897  0.0  0.08016  -0.000143  1.007972  0.0  0.07889  -0.000125  1.010179  0.0  0.034658  3.5e-05  0.10465  0.081142  -0.00016  1.006445  0.0
H  H17  1  0.15764516  0.67055617  0.23347858  1  0.064418  -0.000144  0.94389  0.0  0.080193  -0.000143  1.00795  0.0  0.078923  -0.000125  1.010157  0.0  0.034721  3.4e-05  0.104657  0.081177  -0.00016  1.006421  0.0
H  H18  1  0.65764062  0.82943951  0.76652207  1  0.064392  -0.000143  0.943869  0.0  0.080218  -0.000143  1.007893  0.0  0.078949  -0.000125  1.010098  0.0  0.034611  3.4e-05  0.104641  0.081201  -0.00016  1.006364  0.0
H  H19  1  0.84235995  0.17056332  0.26653307  1  0.064344  -0.000143  0.94392  0.0  0.080177  -0.000143  1.007958  0.0  0.078904  -0.000125  1.010168  0.0  0.03461  3.4e-05  0.104648  0.081158  -0.00016  1.006431  0.0
H  H20  1  0.12483560  0.37814834  0.60666956  1  0.067912  0.002251  0.92554  0.003  0.081489  0.001265  0.987164  0.002  0.079947  0.00075  0.98935  0.001  0.054549  0.003993  0.100683  0.083004  0.001808  0.985323  0.002
H  H21  1  0.37516695  0.62185449  0.10667539  1  0.067926  0.00225  0.925473  0.003  0.081486  0.001264  0.987152  0.002  0.079948  0.000749  0.989338  0.001  0.054647  0.003991  0.100667  0.082999  0.001807  0.985319  0.002
H  H22  1  0.87515389  0.87813520  0.89332397  1  0.067997  0.002251  0.925584  0.003  0.081518  0.001264  0.98725  0.002  0.079982  0.000749  0.989435  0.001  0.055072  0.00399  0.100708  0.08303  0.001807  0.985416  0.002
H  H23  1  0.62482680  0.12185136  0.39333109  1  0.067938  0.002252  0.925571  0.003  0.08146  0.001265  0.987196  0.002  0.079918  0.00075  0.989382  0.001  0.054494  0.003993  0.100647  0.082976  0.001808  0.985353  0.002
H  H24  1  0.17585787  0.52472763  0.62374586  1  0.083788  -0.0002  0.922958  0.0  0.097863  -0.000177  0.982643  0.0  0.096769  -0.00014  0.984681  0.0  0.051974  -4.2e-05  0.111031  0.098792  -0.000215  0.981194  0.0
H  H25  1  0.32414895  0.47527177  0.12374586  1  0.083863  -0.000199  0.922894  0.0  0.097868  -0.000177  0.982683  0.0  0.096773  -0.00014  0.984726  0.0  0.051991  -4.2e-05  0.110991  0.098812  -0.000215  0.981216  0.0
H  H26  1  0.82414867  0.02472194  0.87625479  1  0.083872  -0.000201  0.922999  0.0  0.097906  -0.000177  0.982712  0.0  0.096818  -0.00014  0.984749  0.0  0.052107  -4.2e-05  0.11099  0.098848  -0.000215  0.981248  0.0
H  H27  1  0.67585759  0.97526976  0.37625220  1  0.083862  -0.000199  0.922868  0.0  0.097867  -0.000177  0.982586  0.0  0.096774  -0.00014  0.984619  0.0  0.05198  -4.2e-05  0.111025  0.098808  -0.000215  0.981123  0.0
H  H28  1  0.47260755  0.26407592  0.61887367  1  0.100607  -4.1e-05  0.949357  0.0  0.120645  -3e-05  1.00726  0.0  0.120568  -4.3e-05  1.008357  0.0  0.052722  0.000322  0.103645  0.120855  -1.6e-05  1.006404  0.0
H  H29  1  0.02738933  0.73592776  0.11888403  1  0.10058  -4e-05  0.949133  0.0  0.12063  -3e-05  1.007069  0.0  0.120555  -4.2e-05  1.00817  0.0  0.052679  0.000322  0.103643  0.120842  -1.6e-05  1.006214  0.0
H  H30  1  0.52736775  0.76407563  0.88111792  1  0.100516  -3.9e-05  0.949248  0.0  0.12055  -2.9e-05  1.007181  0.0  0.120475  -4.2e-05  1.008281  0.0  0.052601  0.000322  0.103581  0.120762  -1.6e-05  1.006326  0.0
H  H31  1  0.97261437  0.23592378  0.38113022  1  0.100568  -4e-05  0.949411  0.0  0.120601  -3e-05  1.007332  0.0  0.120523  -4.2e-05  1.008428  0.0  0.052845  0.000322  0.103623  0.12081  -1.6e-05  1.006478  0.0
H  H32  1  0.59876769  0.31100044  0.52551797  1  0.093071  0.000524  0.957383  0.001  0.110196  0.000386  1.024221  0.0  0.110174  0.000215  1.024932  0.0  0.058015  0.001523  0.100248  0.110316  0.000571  1.02367  0.001
H  H33  1  0.90122011  0.68900582  0.02553416  1  0.093103  0.000523  0.957258  0.001  0.110243  0.000386  1.024148  0.0  0.110222  0.000215  1.024857  0.0  0.057775  0.001523  0.100265  0.110365  0.000571  1.023598  0.001
H  H34  1  0.40120619  0.81099500  0.97446325  1  0.09315  0.000524  0.9572  0.001  0.110228  0.000386  1.024143  0.0  0.110209  0.000215  1.024849  0.0  0.05766  0.001523  0.10025  0.110348  0.000571  1.023594  0.001
H  H35  1  0.09876655  0.18899498  0.47448785  1  0.093158  0.000525  0.95733  0.001  0.110286  0.000386  1.024165  0.0  0.110264  0.000215  1.024878  0.0  0.057826  0.001523  0.100284  0.110405  0.000571  1.023616  0.001
H  H36  1  0.35486026  0.27007771  0.51631682  1  0.0795  0.003274  0.951551  0.005  0.095958  0.001865  1.020819  0.002  0.095656  0.00118  1.021482  0.001  0.028064  0.005859  0.091285  0.096555  0.002562  1.020009  0.003
H  H37  1  0.14513662  0.72993368  0.01632718  1  0.079423  0.003273  0.951558  0.005  0.095916  0.001866  1.02081  0.002  0.09561  0.00118  1.021479  0.001  0.027751  0.00586  0.091305  0.096516  0.002562  1.019999  0.003
H  H38  1  0.64512498  0.77006029  0.98367217  1  0.079463  0.003274  0.951671  0.005  0.095936  0.001865  1.020913  0.002  0.095634  0.00118  1.021579  0.001  0.027791  0.005858  0.091282  0.096533  0.002562  1.020105  0.003
H  H39  1  0.85485288  0.22992456  0.48368318  1  0.079555  0.003273  0.951498  0.005  0.095973  0.001865  1.020804  0.002  0.09567  0.001179  1.021467  0.001  0.027994  0.00586  0.091313  0.09657  0.002562  1.019994  0.003
H  H40  1  0.50058461  0.48252682  0.45145874  1  0.100035  0.000328  0.940283  0.001  0.119645  0.000182  0.999868  0.0  0.119035  9.5e-05  1.001412  0.0  0.074199  0.000977  0.102133  0.120314  0.000269  0.998605  0.001
H  H41  1  0.99941028  0.51748029  0.95146975  1  0.100052  0.000325  0.940378  0.001  0.119646  0.000182  0.999982  0.0  0.119037  9.5e-05  1.001526  0.0  0.074438  0.000977  0.102117  0.120317  0.000269  0.998719  0.001
H  H42  1  0.49940630  0.98251710  0.04853349  1  0.100103  0.000329  0.940372  0.001  0.119708  0.000182  0.99995  0.0  0.119098  9.5e-05  1.001493  0.0  0.074644  0.000977  0.102149  0.120376  0.000269  0.998688  0.001
H  H43  1  0.00057212  0.01747032  0.54854255  1  0.100009  0.000328  0.940354  0.001  0.119626  0.000182  0.999944  0.0  0.119017  9.5e-05  1.001486  0.0  0.073549  0.000978  0.102105  0.120295  0.000269  0.99868  0.001
H  H44  1  0.33765693  0.57852368  0.50188283  1  0.098404  0.000149  0.958228  0.001  0.113691  4e-05  1.024115  0.0  0.11258  -5e-06  1.026379  0.0  0.066315  0.00061  0.100548  0.11475  8.1e-05  1.022302  0.0
H  H45  1  0.16233569  0.42148599  0.00188996  1  0.0984  0.000149  0.958176  0.001  0.11369  4e-05  1.024068  0.0  0.112579  -5e-06  1.026332  0.0  0.066319  0.00061  0.100546  0.11475  8.1e-05  1.022258  0.0
H  H46  1  0.66234819  0.07850344  0.99811134  1  0.098384  0.00015  0.958163  0.001  0.113656  4e-05  1.024085  0.0  0.112544  -5e-06  1.026346  0.0  0.066465  0.00061  0.100548  0.114716  8.1e-05  1.022271  0.0
H  H47  1  0.83764529  0.92147029  0.49811522  1  0.098415  0.000148  0.958167  0.001  0.113694  4e-05  1.024074  0.0  0.112583  -5e-06  1.026336  0.0  0.066248  0.00061  0.100552  0.114749  8.1e-05  1.022267  0.0
H  H48  1  0.25423255  0.44649471  0.45648244  1  0.08358  0.003608  0.936263  0.005  0.098613  0.002115  1.006747  0.002  0.098761  0.001346  1.006993  0.001  0.038857  0.006497  0.090573  0.098912  0.002904  1.006264  0.003
H  H49  1  0.24576149  0.55352010  0.95649086  1  0.083543  0.003607  0.93643  0.005  0.098609  0.002115  1.006866  0.002  0.098759  0.001346  1.007106  0.001  0.038943  0.006496  0.090599  0.098909  0.002904  1.006382  0.003
H  H50  1  0.74576547  0.94647472  0.04350849  1  0.083601  0.003608  0.936374  0.005  0.098652  0.002115  1.006835  0.002  0.098803  0.001346  1.007071  0.001  0.038869  0.006498  0.0906  0.09895  0.002905  1.006352  0.003
H  H51  1  0.75422091  0.05350756  0.54351885  1  0.083511  0.003608  0.936324  0.005  0.098555  0.002115  1.006808  0.002  0.098705  0.001346  1.007049  0.001  0.038754  0.006497  0.090539  0.098853  0.002904  1.006324  0.003
C  C52  1  0.86333246  0.58662365  0.48908694  1  0.487833  -0.013747  3.972342  -0.005  0.463662  -0.003008  4.24789  0.003  0.492855  -0.004055  4.254762  0.002  1.53829  0.000969  0.305953  0.443111  -0.002344  4.24424  0.004
C  C53  1  0.63666244  0.41337747  0.98908694  1  0.487652  -0.013753  3.972462  -0.005  0.463459  -0.00301  4.248055  0.003  0.492659  -0.004052  4.254922  0.002  1.538328  0.000969  0.305786  0.442902  -0.002345  4.244405  0.004
C  C54  1  0.13665278  0.08662138  0.01091176  1  0.487699  -0.013741  3.972634  -0.005  0.463553  -0.003003  4.248229  0.003  0.492752  -0.004052  4.255095  0.002  1.538239  0.000973  0.305841  0.442995  -0.002341  4.244575  0.004
C  C55  1  0.36335262  0.91337289  0.51091241  1  0.487885  -0.013747  3.972649  -0.005  0.46372  -0.003007  4.248244  0.003  0.492917  -0.004053  4.25511  0.002  1.538248  0.000971  0.30596  0.443161  -0.002343  4.244593  0.004
C  C56  1  0.82559529  0.28724755  0.70150925  1  0.475315  -0.025038  3.9922  -0.012  0.447674  -0.006953  4.277953  0.0  0.47702  -0.008389  4.284867  -0.002  1.524431  -0.003989  0.303994  0.427016  -0.006222  4.274151  0.001
C  C57  1  0.67441238  0.71275956  0.20152543  1  0.475349  -0.025039  3.992025  -0.012  0.44769  -0.006953  4.277735  0.0  0.477039  -0.008387  4.284647  -0.002  1.524144  -0.003988  0.304031  0.427035  -0.006222  4.273931  0.001
C  C58  1  0.17440131  0.78724811  0.79847910  1  0.475202  -0.025037  3.99221  -0.012  0.447527  -0.006954  4.277931  0.0  0.476882  -0.008381  4.284843  -0.002  1.523986  -0.003986  0.303993  0.426868  -0.006219  4.274125  0.001
C  C59  1  0.32560835  0.21275986  0.29848752  1  0.475266  -0.025042  3.992191  -0.012  0.447653  -0.006953  4.277921  0.0  0.477002  -0.008381  4.28483  -0.002  1.523822  -0.003986  0.303937  0.426996  -0.00622  4.274119  0.001
C  C60  1  0.05091153  0.15071061  0.73848544  1  0.483597  -0.014844  3.981225  -0.006  0.460222  -0.002972  4.260631  0.003  0.489244  -0.003986  4.2686  0.002  1.56226  0.001279  0.302415  0.439665  -0.002378  4.256116  0.004
C  C61  1  0.44909955  0.84929822  0.23849969  1  0.483502  -0.014843  3.980895  -0.006  0.460044  -0.002971  4.260381  0.003  0.489066  -0.003983  4.26836  0.002  1.562252  0.001283  0.302197  0.439492  -0.002376  4.255858  0.004
C  C62  1  0.94909642  0.65069832  0.76150225  1  0.483525  -0.014848  3.980906  -0.006  0.460051  -0.002977  4.260389  0.003  0.489076  -0.003983  4.26837  0.002  1.562753  0.001278  0.30223  0.439497  -0.00238  4.255869  0.004
C  C63  1  0.55091977  0.34928824  0.26150808  1  0.483733  -0.014843  3.980565  -0.006  0.460367  -0.002973  4.259984  0.003  0.489385  -0.00398  4.267958  0.002  1.562228  0.00128  0.302396  0.439818  -0.002376  4.255461  0.004
C  C64  1  0.28259292  0.41542172  0.72457979  1  0.052439  -0.003733  3.652995  -0.004  -0.006104  -0.000136  3.932899  -0.001  -0.000538  -0.000898  3.948321  -0.002  0.309967  0.001788  -0.073977  -0.010117  0.000686  3.921818  -0.001
C  C65  1  0.21741816  0.58457940  0.22458692  1  0.052562  -0.003741  3.652671  -0.004  -0.006067  -0.000137  3.932694  -0.001  -0.000495  -0.000898  3.948116  -0.002  0.309675  0.001787  -0.073955  -0.010082  0.000684  3.921613  -0.001
C  C66  1  0.71742071  0.91541457  0.77541114  1  0.052627  -0.003737  3.652734  -0.004  -0.006064  -0.000138  3.932836  -0.001  -0.000488  -0.000897  3.948258  -0.002  0.309938  0.001788  -0.073991  -0.010078  0.000685  3.921752  -0.001
C  C67  1  0.78258696  0.08458483  0.27541826  1  0.052589  -0.003744  3.652974  -0.004  -0.006105  -0.000136  3.933028  -0.001  -0.000531  -0.000899  3.948448  -0.002  0.310522  0.001785  -0.07399  -0.01012  0.000685  3.921951  -0.001
C  C68  1  0.23455476  0.43804205  0.63010722  1  -0.04749  -0.003037  3.622807  -0.003  -0.093566  -0.000327  3.880708  -0.001  -0.090235  -0.000996  3.897406  -0.001  0.271651  0.001523  -0.070236  -0.096101  0.000425  3.868712  0.0
C  C69  1  0.26545773  0.56195736  0.13011564  1  -0.047354  -0.00304  3.6224  -0.003  -0.093534  -0.00033  3.880462  -0.001  -0.09021  -0.000996  3.897166  -0.001  0.271084  0.001524  -0.070094  -0.096073  0.000424  3.868461  0.0
C  C70  1  0.76545177  0.93803662  0.86988436  1  -0.047688  -0.003039  3.622983  -0.003  -0.093732  -0.00033  3.880871  -0.001  -0.090415  -0.000998  3.897586  -0.001  0.270417  0.001525  -0.070173  -0.096274  0.000424  3.868873  0.0
C  C71  1  0.73455306  0.06196022  0.36989213  1  -0.047612  -0.003042  3.622929  -0.003  -0.093508  -0.000329  3.880655  -0.001  -0.090171  -0.000995  3.89734  -0.001  0.271762  0.001523  -0.070213  -0.096049  0.000425  3.868653  0.0
C  C72  1  0.96530032  0.73055603  0.39893751  1  0.492346  -0.016487  3.96051  -0.006  0.466619  -0.003533  4.23549  0.004  0.494469  -0.004697  4.244065  0.002  1.545163  0.000493  0.308458  0.447229  -0.002832  4.230232  0.005
C  C73  1  0.53470877  0.26944423  0.89893621  1  0.492258  -0.016493  3.960791  -0.006  0.466548  -0.003534  4.235721  0.004  0.494403  -0.004695  4.244291  0.002  1.545756  0.000493  0.308434  0.447151  -0.002833  4.230464  0.005
C  C74  1  0.03469202  0.23056147  0.10105990  1  0.492327  -0.0165  3.960684  -0.006  0.46664  -0.003538  4.235652  0.004  0.494495  -0.004699  4.244222  0.002  1.545019  0.00049  0.308543  0.447244  -0.002837  4.230395  0.005
C  C75  1  0.46530912  0.76944479  0.60106444  1  0.492191  -0.016497  3.960672  -0.006  0.466508  -0.003533  4.235622  0.004  0.49436  -0.004698  4.244198  0.002  1.54556  0.000492  0.308466  0.447111  -0.002833  4.230364  0.005
C  C76  1  0.46083722  0.31218864  0.55833484  1  -0.181158  -0.004615  3.669021  -0.005  -0.271526  -0.001009  3.928868  -0.002  -0.26785  -0.001529  3.94249  -0.002  0.237513  2.2e-05  -0.146595  -0.274191  -0.000378  3.918735  -0.001
C  C77  1  0.03915966  0.68781761  0.05834002  1  -0.180913  -0.004612  3.668703  -0.005  -0.27145  -0.001009  3.928501  -0.002  -0.26778  -0.00153  3.942125  -0.002  0.238352  2.1e-05  -0.146605  -0.274113  -0.000379  3.918364  -0.001
C  C78  1  0.53914944  0.81217978  0.94166192  1  -0.180979  -0.004617  3.668812  -0.005  -0.271422  -0.001009  3.928592  -0.002  -0.267751  -0.001529  3.942214  -0.002  0.238356  2.2e-05  -0.146528  -0.274089  -0.000378  3.918464  -0.001
C  C79  1  0.96083552  0.18780764  0.44166904  1  -0.181118  -0.004616  3.669199  -0.005  -0.271513  -0.00101  3.929083  -0.002  -0.267834  -0.001529  3.942699  -0.002  0.237668  2.1e-05  -0.146606  -0.27418  -0.00038  3.918953  -0.001
C  C80  1  0.37228222  0.48830431  0.49134595  1  -0.185783  -0.005267  3.666945  -0.005  -0.278508  -0.001292  3.935285  -0.002  -0.274753  -0.001679  3.95014  -0.002  0.213276  -0.000437  -0.150141  -0.281235  -0.000775  3.923936  -0.002
C  C81  1  0.12771324  0.51170793  0.99135049  1  -0.185715  -0.005258  3.667244  -0.005  -0.278557  -0.001293  3.935478  -0.002  -0.274791  -0.00168  3.950299  -0.002  0.213121  -0.000437  -0.150238  -0.281283  -0.000775  3.924132  -0.002
C  C82  1  0.62770870  0.98828518  0.00865146  1  -0.185829  -0.005268  3.667217  -0.005  -0.278616  -0.001293  3.93548  -0.002  -0.274865  -0.001678  3.950344  -0.002  0.21286  -0.000436  -0.150269  -0.281342  -0.000775  3.924133  -0.002
C  C83  1  0.87226916  0.01169282  0.50865534  1  -0.185629  -0.005268  3.667045  -0.005  -0.278405  -0.001292  3.935355  -0.002  -0.274655  -0.001679  3.950221  -0.002  0.213993  -0.000438  -0.150119  -0.281129  -0.000775  3.924004  -0.002
N  N84  1  0.79703759  0.54350258  0.55095955  1  -0.564639  0.033817  2.966438  0.052  -0.548249  0.025538  3.261312  0.038  -0.574846  0.02155  3.262298  0.034  -1.249958  0.049013  -0.375813  -0.531027  0.029  3.261871  0.042
N  N85  1  0.70296582  0.45650282  0.05096084  1  -0.564543  0.033816  2.966204  0.052  -0.548123  0.025535  3.261051  0.038  -0.574711  0.021545  3.262057  0.034  -1.24998  0.049007  -0.375706  -0.530906  0.028994  3.261616  0.042
N  N86  1  0.20295759  0.04349859  0.94903916  1  -0.564681  0.033806  2.966282  0.052  -0.548279  0.02553  3.261133  0.038  -0.574876  0.021543  3.262136  0.034  -1.249849  0.049001  -0.375794  -0.531055  0.028991  3.261693  0.042
N  N87  1  0.29704497  0.95650081  0.44904369  1  -0.564846  0.033812  2.966432  0.052  -0.548433  0.025532  3.261258  0.038  -0.575011  0.021544  3.262255  0.034  -1.249723  0.049003  -0.375878  -0.531215  0.028994  3.261822  0.042
N  N88  1  0.94011003  0.62335772  0.41783124  1  -0.462924  -0.000418  3.299399  0.003  -0.40484  -0.000586  3.54457  0.002  -0.426297  -0.001437  3.542727  0.001  -1.3205  0.001882  -0.308909  -0.390374  0.000315  3.546416  0.003
N  N89  1  0.55988060  0.37664853  0.91783189  1  -0.462831  -0.000418  3.299515  0.003  -0.404743  -0.000589  3.544671  0.002  -0.426204  -0.001436  3.542829  0.001  -1.320534  0.001881  -0.308844  -0.390263  0.000314  3.546511  0.003
N  N90  1  0.05989082  0.12336059  0.08216552  1  -0.462731  -0.000417  3.299547  0.003  -0.404742  -0.000588  3.544796  0.002  -0.426201  -0.001437  3.542952  0.001  -1.320126  0.001879  -0.308837  -0.390261  0.000313  3.546633  0.003
N  N91  1  0.44010606  0.87664652  0.58217458  1  -0.462702  -0.000419  3.29952  0.003  -0.40469  -0.000586  3.544744  0.002  -0.426151  -0.001435  3.542908  0.001  -1.320413  0.001883  -0.308816  -0.390209  0.000316  3.546577  0.003
N  N92  1  0.75013799  0.37582587  0.69025562  1  -0.550264  0.046762  2.978574  0.071  -0.534602  0.033034  3.283218  0.05  -0.561594  0.027765  3.284286  0.044  -1.248022  0.063111  -0.374965  -0.516778  0.037902  3.283487  0.055
N  N93  1  0.74987678  0.62418295  0.19026727  1  -0.550405  0.046756  2.978436  0.071  -0.534738  0.033029  3.283066  0.05  -0.561716  0.02776  3.284145  0.044  -1.247994  0.063106  -0.375047  -0.516921  0.037896  3.283341  0.055
N  N94  1  0.24986570  0.87582814  0.80973273  1  -0.550269  0.046762  2.978313  0.071  -0.53458  0.033035  3.282911  0.05  -0.561567  0.027759  3.283983  0.044  -1.247907  0.063114  -0.374983  -0.516756  0.0379  3.283174  0.055
N  N95  1  0.25015105  0.12417469  0.30973985  1  -0.550389  0.046762  2.978178  0.071  -0.534738  0.033032  3.282799  0.05  -0.561718  0.027758  3.283879  0.044  -1.247715  0.063111  -0.374974  -0.516916  0.037898  3.283073  0.055
N  N96  1  0.88721525  0.18318068  0.70890526  1  -0.465844  -2.1e-05  3.323486  0.005  -0.410539  -0.000915  3.576015  0.002  -0.432691  -0.001918  3.574977  0.001  -1.33185  0.002245  -0.311234  -0.39557  0.000176  3.577483  0.004
N  N97  1  0.61278674  0.81682986  0.20892015  1  -0.46573  -1.4e-05  3.32339  0.005  -0.410323  -0.000913  3.575837  0.002  -0.432479  -0.001915  3.574809  0.001  -1.331101  0.00225  -0.311105  -0.395354  0.000179  3.577296  0.004
N  N98  1  0.11276999  0.68318295  0.79109150  1  -0.465826  -1.9e-05  3.323465  0.005  -0.410402  -0.000918  3.575902  0.002  -0.432565  -0.001914  3.574878  0.001  -1.331331  0.002247  -0.311207  -0.395433  0.000177  3.577365  0.004
N  N99  1  0.38722121  0.31682759  0.29109733  1  -0.465791  -1.8e-05  3.323358  0.005  -0.410515  -0.000915  3.575897  0.002  -0.432669  -0.001913  3.574861  0.001  -1.331461  0.002248  -0.311195  -0.395546  0.000178  3.577358  0.004
N  N100  1  0.42455236  0.50000998  0.75307353  1  -0.583314  0.082379  3.173229  0.126  -0.580997  0.05042  3.459632  0.078  -0.613894  0.037126  3.465572  0.062  -1.119568  0.109145  -0.625522  -0.556794  0.061414  3.454077  0.091
N  N101  1  0.07545588  0.49998686  0.25307871  1  -0.583108  0.08239  3.172812  0.126  -0.580823  0.050424  3.459236  0.078  -0.613696  0.037129  3.465135  0.062  -1.119859  0.109154  -0.625513  -0.556627  0.061418  3.453694  0.091
N  N102  1  0.57545702  0.00000599  0.74691806  1  -0.58331  0.082389  3.173193  0.126  -0.58108  0.050423  3.459608  0.078  -0.613965  0.037128  3.465499  0.062  -1.119622  0.109153  -0.625547  -0.55687  0.061419  3.454051  0.091
N  N103  1  0.92454498  0.99999598  0.24692324  1  -0.58326  0.08239  3.173024  0.126  -0.581086  0.050422  3.459492  0.078  -0.613969  0.037126  3.465402  0.062  -1.120145  0.109151  -0.625541  -0.556887  0.061417  3.453947  0.091
N  N104  1  0.40656396  0.43178773  0.57515215  1  -0.108357  0.079989  3.263976  0.127  -0.045642  0.046045  3.53448  0.076  -0.076511  0.032692  3.565316  0.058  -0.991929  0.102479  -0.329793  -0.021957  0.058106  3.511005  0.091
N  N105  1  0.09343292  0.56822024  0.07515798  1  -0.108799  0.080005  3.263972  0.127  -0.04571  0.046053  3.534127  0.076  -0.076572  0.032698  3.564963  0.058  -0.99183  0.102488  -0.329772  -0.022033  0.058112  3.510664  0.091
N  N106  1  0.59342980  0.93177887  0.92484331  1  -0.108596  0.080003  3.264002  0.127  -0.045628  0.046049  3.5342  0.076  -0.076497  0.032695  3.565043  0.058  -0.991784  0.102485  -0.329736  -0.021942  0.05811  3.510725  0.091
N  N107  1  0.90655800  0.06821283  0.42485044  1  -0.108616  0.079985  3.264337  0.127  -0.045759  0.046041  3.534609  0.076  -0.07662  0.032689  3.565445  0.058  -0.991917  0.102468  -0.329772  -0.022078  0.058101  3.511139  0.091
N  N108  1  0.99315104  0.82442904  0.37421851  1  -0.565099  0.040211  2.969685  0.061  -0.54748  0.028557  3.266996  0.043  -0.573925  0.023514  3.269557  0.037  -1.253236  0.055753  -0.375815  -0.529938  0.033175  3.265959  0.048
N  N109  1  0.50685521  0.17556866  0.87423081  1  -0.564974  0.040208  2.970007  0.061  -0.54734  0.028555  3.267301  0.043  -0.57379  0.023511  3.269838  0.037  -1.253748  0.055745  -0.375775  -0.529796  0.033171  3.266271  0.048
N  N110  1  0.00682568  0.32443361  0.12577113  1  -0.565083  0.040222  2.97011  0.061  -0.547441  0.028564  3.267404  0.043  -0.573891  0.02352  3.269958  0.037  -1.253438  0.055759  -0.375854  -0.529901  0.033182  3.266373  0.048
N  N111  1  0.49316694  0.67556750  0.62577113  1  -0.564987  0.040218  2.969915  0.061  -0.547374  0.028558  3.26724  0.043  -0.573832  0.023516  3.269779  0.037  -1.253895  0.055755  -0.375807  -0.52983  0.033177  3.266206  0.048
N  N112  1  0.19433889  0.10997877  0.76272985  1  -0.553643  0.036349  2.914612  0.056  -0.538585  0.027615  3.200964  0.042  -0.565428  0.02266  3.201833  0.037  -1.250746  0.053745  -0.374496  -0.520758  0.031793  3.201369  0.047
N  N113  1  0.30565941  0.89002577  0.26273503  1  -0.55357  0.036357  2.914263  0.056  -0.538509  0.02762  3.200674  0.042  -0.565333  0.022662  3.201541  0.037  -1.251271  0.053754  -0.37435  -0.520685  0.031798  3.201075  0.047
N  N114  1  0.80566765  0.60996992  0.73726432  1  -0.55341  0.036363  2.914577  0.056  -0.538325  0.027625  3.200987  0.042  -0.565168  0.022662  3.20184  0.037  -1.251434  0.053759  -0.374301  -0.520499  0.031801  3.201389  0.047
N  N115  1  0.69434570  0.39001922  0.23726756  1  -0.553669  0.036349  2.914294  0.056  -0.53861  0.027619  3.200658  0.042  -0.565444  0.022657  3.20154  0.037  -1.25089  0.053746  -0.374393  -0.520791  0.031794  3.201061  0.047
