# generated using pymatgen
data_ZnH26C34(NO2)2
_symmetry_space_group_name_H-M   'P 1'
_cell_length_a   7.21330369
_cell_length_b   10.89153361
_cell_length_c   19.52438805
_cell_angle_alpha   92.56774261
_cell_angle_beta   89.96039083
_cell_angle_gamma   109.34934884
_symmetry_Int_Tables_number   1
_chemical_formula_structural   ZnH26C34(NO2)2
_chemical_formula_sum   'Zn2 H52 C68 N4 O8'
_cell_volume   1445.65508908
_cell_formula_units_Z   2
loop_
 _symmetry_equiv_pos_site_id
 _symmetry_equiv_pos_as_xyz
  1  'x, y, z'
loop_
 _atom_site_type_symbol
 _atom_site_label
 _atom_site_symmetry_multiplicity
 _atom_site_fract_x
 _atom_site_fract_y
 _atom_site_fract_z
 _atom_site_occupancy
 _atom_site_hle17_bader_spin_density
 _atom_site_hle17_ddec_charge
 _atom_site_hle17_ddec_spin_density
 _atom_site_hle17_ddec_sum_bond_order
 _atom_site_hle17_magmom
 _atom_site_hse06_10hf_bader_spin_density
 _atom_site_hse06_10hf_ddec_charge
 _atom_site_hse06_10hf_ddec_spin_density
 _atom_site_hse06_10hf_ddec_sum_bond_order
 _atom_site_hse06_10hf_magmom
 _atom_site_hse06_bader_spin_density
 _atom_site_hse06_ddec_charge
 _atom_site_hse06_ddec_spin_density
 _atom_site_hse06_ddec_sum_bond_order
 _atom_site_hse06_magmom
 _atom_site_pbe_bader_spin_density
 _atom_site_pbe_cm5_charge
 _atom_site_pbe_ddec_charge
 _atom_site_pbe_ddec_spin_density
 _atom_site_pbe_ddec_sum_bond_order
 _atom_site_pbe_magmom
Zn  Zn0  1  0.90077726  0.00003678  0.75013561  1  0  1.002992  0  1.940493  0  0  0.831063  0  2.390355  0  0  0.878566  0  2.336015  0  0  0.672533  0.797847  0  2.427879  0
Zn  Zn1  1  0.09921527  0.99996210  0.24986404  1  0  1.003002  0  1.940499  0  0  0.831056  0  2.390375  0  0  0.878551  0  2.336036  0  0  0.672532  0.797836  0  2.427899  0
H  H2  1  0.57837666  0.69660583  0.88287779  1  0  0.093368  0  0.954931  0  0  0.103158  0  1.016535  0  0  0.106335  0  1.01486  0  0  0.101433  0.100936  0  1.017621  0
H  H3  1  0.88140636  0.30326525  0.61749012  1  0  0.093523  0  0.954767  0  0  0.103299  0  1.016212  0  0  0.10644  0  1.014581  0  0  0.101463  0.101034  0  1.017432  0
H  H4  1  0.42161441  0.30339013  0.11712177  1  0  0.093353  0  0.954956  0  0  0.103134  0  1.016577  0  0  0.106309  0  1.014898  0  0  0.101417  0.100911  0  1.017666  0
H  H5  1  0.11860107  0.69673849  0.38251119  1  0  0.093489  0  0.954848  0  0  0.103272  0  1.016284  0  0  0.106412  0  1.014655  0  0  0.101453  0.101005  0  1.017502  0
H  H6  1  0.43645942  0.49556215  0.94824290  1  0  0.083128  0  0.962563  0  0  0.096804  0  1.017829  0  0  0.099408  0  1.017018  0  0  0.09891  0.094952  0  1.018502  0
H  H7  1  0.94010953  0.50413734  0.55202387  1  0  0.083484  0  0.962539  0  0  0.097307  0  1.017704  0  0  0.099882  0  1.016899  0  0  0.099201  0.09544  0  1.018397  0
H  H8  1  0.56353809  0.50443284  0.05175664  1  0  0.083119  0  0.962563  0  0  0.096789  0  1.017837  0  0  0.099391  0  1.01703  0  0  0.098902  0.094937  0  1.018508  0
H  H9  1  0.05989464  0.49586542  0.44797742  1  0  0.083456  0  0.962513  0  0  0.097299  0  1.017658  0  0  0.099862  0  1.016869  0  0  0.099206  0.095434  0  1.018345  0
H  H10  1  0.38741349  0.27815103  0.89165225  1  0  0.084594  0  0.949715  0  0  0.096444  0  1.008036  0  0  0.098865  0  1.007238  0  0  0.098613  0.094713  0  1.008646  0
H  H11  1  0.10955209  0.72164896  0.60837687  1  0  0.084056  0  0.950652  0  0  0.095926  0  1.008871  0  0  0.098343  0  1.008091  0  0  0.098675  0.094249  0  1.009365  0
H  H12  1  0.61258124  0.72184395  0.10834728  1  0  0.084648  0  0.949732  0  0  0.096488  0  1.008053  0  0  0.098909  0  1.007255  0  0  0.098619  0.094752  0  1.008666  0
H  H13  1  0.89045208  0.27835381  0.39162390  1  0  0.08418  0  0.950612  0  0  0.096023  0  1.00886  0  0  0.098443  0  1.008074  0  0  0.098704  0.094342  0  1.009359  0
H  H14  1  0.48358998  0.26183098  0.76965026  1  0  0.078142  0  0.971406  0  0  0.086386  0  1.036881  0  0  0.088448  0  1.037892  0  0  0.091813  0.084928  0  1.036373  0
H  H15  1  0.22338977  0.73814770  0.73018851  1  0  0.078404  0  0.971447  0  0  0.086599  0  1.037022  0  0  0.088602  0  1.038085  0  0  0.091978  0.085129  0  1.036481  0
H  H16  1  0.51640941  0.73816499  0.23034879  1  0  0.078109  0  0.971551  0  0  0.086334  0  1.037035  0  0  0.088397  0  1.038046  0  0  0.091776  0.08487  0  1.036543  0
H  H17  1  0.77661537  0.26185702  0.26981232  1  0  0.0784  0  0.971499  0  0  0.086612  0  1.037056  0  0  0.088616  0  1.038117  0  0  0.091978  0.085139  0  1.036519  0
H  H18  1  0.62256276  0.46088602  0.70502756  1  0  0.086877  0  0.970452  0  0  0.098313  0  1.032598  0  0  0.100511  0  1.032482  0  0  0.099215  0.096774  0  1.032745  0
H  H19  1  0.16327384  0.53917831  0.79490492  1  0  0.08681  0  0.97133  0  0  0.098991  0  1.032668  0  0  0.101185  0  1.032572  0  0  0.099104  0.097412  0  1.032809  0
H  H20  1  0.37743621  0.53911188  0.29497256  1  0  0.086903  0  0.970492  0  0  0.098337  0  1.032629  0  0  0.100536  0  1.032511  0  0  0.099234  0.096796  0  1.032778  0
H  H21  1  0.83672804  0.46082542  0.20509741  1  0  0.086822  0  0.971328  0  0  0.098994  0  1.032678  0  0  0.101189  0  1.032582  0  0  0.099098  0.097415  0  1.032821  0
H  H22  1  0.56447941  0.61480866  0.65737852  1  0  0.113248  0  0.998898  0  0  0.123397  0  1.063947  0  0  0.126757  0  1.06521  0  0  0.093474  0.121087  0  1.063114  0
H  H23  1  0.94886219  0.38534319  0.84277770  1  0  0.113966  0  0.997131  0  0  0.124137  0  1.062207  0  0  0.127529  0  1.063413  0  0  0.093572  0.121719  0  1.061614  0
H  H24  1  0.43551679  0.38518926  0.34262007  1  0  0.113273  0  0.998912  0  0  0.123406  0  1.063973  0  0  0.126762  0  1.065246  0  0  0.093476  0.121096  0  1.063141  0
H  H25  1  0.05113326  0.61466154  0.15722261  1  0  0.113986  0  0.997056  0  0  0.124087  0  1.062203  0  0  0.127491  0  1.063389  0  0  0.093554  0.121671  0  1.061611  0
H  H26  1  0.42531985  0.62927443  0.56398378  1  0  0.086205  0  0.974694  0  0  0.096761  0  1.038398  0  0  0.099326  0  1.037949  0  0  0.09629  0.09487  0  1.038814  0
H  H27  1  0.79565087  0.37091111  0.93637192  1  0  0.086539  0  0.975152  0  0  0.097239  0  1.03867  0  0  0.099803  0  1.038237  0  0  0.096238  0.095414  0  1.039006  0
H  H28  1  0.57468605  0.37072348  0.43601583  1  0  0.08619  0  0.974773  0  0  0.096742  0  1.038471  0  0  0.099309  0  1.03802  0  0  0.096298  0.094852  0  1.038888  0
H  H29  1  0.20434996  0.62908777  0.06362874  1  0  0.086543  0  0.975128  0  0  0.09725  0  1.038633  0  0  0.099814  0  1.0382  0  0  0.096229  0.095427  0  1.038965  0
H  H30  1  0.39213908  0.58202936  0.43865971  1  0  0.080589  0  0.978989  0  0  0.090964  0  1.04279  0  0  0.093523  0  1.042254  0  0  0.094034  0.089122  0  1.043264  0
H  H31  1  0.80974571  0.41817579  0.06167218  1  0  0.080951  0  0.9782  0  0  0.090561  0  1.042892  0  0  0.093066  0  1.042445  0  0  0.093944  0.088736  0  1.043424  0
H  H32  1  0.60786634  0.41796757  0.56133988  1  0  0.080619  0  0.978978  0  0  0.090967  0  1.0428  0  0  0.093525  0  1.042269  0  0  0.09402  0.089129  0  1.043272  0
H  H33  1  0.19025847  0.58182699  0.93832757  1  0  0.080913  0  0.978255  0  0  0.090537  0  1.042918  0  0  0.093041  0  1.042473  0  0  0.093932  0.088712  0  1.04345  0
H  H34  1  0.66358275  0.69807846  0.36126016  1  0  0.088933  0  0.958222  0  0  0.097855  0  1.023301  0  0  0.100661  0  1.022399  0  0  0.096941  0.095862  0  1.02396  0
H  H35  1  0.96516618  0.30226252  0.13899805  1  0  0.088986  0  0.958547  0  0  0.097986  0  1.023535  0  0  0.10079  0  1.02265  0  0  0.096918  0.095937  0  1.02427  0
H  H36  1  0.33642046  0.30192238  0.63873851  1  0  0.088979  0  0.958172  0  0  0.097896  0  1.023255  0  0  0.100701  0  1.022353  0  0  0.096976  0.095904  0  1.023915  0
H  H37  1  0.03483994  0.69774415  0.86100334  1  0  0.089072  0  0.958539  0  0  0.098062  0  1.023527  0  0  0.100866  0  1.022643  0  0  0.096937  0.096013  0  1.024262  0
H  H38  1  0.96449152  0.86371555  0.40987773  1  0  0.103546  0  0.971218  0  0  0.107544  0  1.042242  0  0  0.112041  0  1.038382  0  0  0.099464  0.104303  0  1.045136  0
H  H39  1  0.10052412  0.13664207  0.09026372  1  0  0.103108  0  0.970793  0  0  0.106926  0  1.042206  0  0  0.111427  0  1.03832  0  0  0.099116  0.103743  0  1.045001  0
H  H40  1  0.03551169  0.13628528  0.59012197  1  0  0.103481  0  0.971281  0  0  0.107491  0  1.042283  0  0  0.111987  0  1.038425  0  0  0.099462  0.10425  0  1.045175  0
H  H41  1  0.89947401  0.86335972  0.90973754  1  0  0.103085  0  0.970875  0  0  0.106939  0  1.042224  0  0  0.111441  0  1.038335  0  0  0.099128  0.103751  0  1.045022  0
H  H42  1  0.99765894  0.91194545  0.53655890  1  0  0.089937  0  0.973334  0  0  0.098389  0  1.038999  0  0  0.101677  0  1.03705  0  0  0.097356  0.096056  0  1.04038  0
H  H43  1  0.08551762  0.08843345  0.96360350  1  0  0.090096  0  0.97287  0  0  0.098502  0  1.038548  0  0  0.101718  0  1.036661  0  0  0.097453  0.096234  0  1.039847  0
H  H44  1  0.00234378  0.08805441  0.46344025  1  0  0.089912  0  0.973358  0  0  0.098345  0  1.039044  0  0  0.101651  0  1.037077  0  0  0.097342  0.096011  0  1.040425  0
H  H45  1  0.91448182  0.91156541  0.03639922  1  0  0.090054  0  0.972904  0  0  0.098457  0  1.038598  0  0  0.101672  0  1.036712  0  0  0.097415  0.096187  0  1.039897  0
H  H46  1  0.20934330  0.98042797  0.85511104  1  0  0.102774  0  0.94639  0  0  0.107977  0  1.011545  0  0  0.110503  0  1.010536  0  0  0.127155  0.106098  0  1.012438  0
H  H47  1  0.22981058  0.01987275  0.64487769  1  0  0.102207  0  0.946451  0  0  0.107487  0  1.011477  0  0  0.110012  0  1.010488  0  0  0.127136  0.10553  0  1.012488  0
H  H48  1  0.79065428  0.01956994  0.14488909  1  0  0.102732  0  0.946462  0  0  0.107947  0  1.011586  0  0  0.110473  0  1.010575  0  0  0.127153  0.106066  0  1.012472  0
H  H49  1  0.77017633  0.98012321  0.35512136  1  0  0.102313  0  0.946444  0  0  0.107553  0  1.011494  0  0  0.110105  0  1.010474  0  0  0.127153  0.105591  0  1.012509  0
H  H50  1  0.56205048  0.97569113  0.85473265  1  0  0.106729  0  0.91462  0  0  0.115096  0  0.969949  0  0  0.118119  0  0.96863  0  0  0.131317  0.112842  0  0.971111  0
H  H51  1  0.58719359  0.02437314  0.64541631  1  0  0.106229  0  0.915681  0  0  0.115166  0  0.970395  0  0  0.118113  0  0.969189  0  0  0.131113  0.112881  0  0.971594  0
H  H52  1  0.43794482  0.02430777  0.14526494  1  0  0.106658  0  0.914624  0  0  0.115054  0  0.969913  0  0  0.118076  0  0.968599  0  0  0.131316  0.1128  0  0.971076  0
H  H53  1  0.41279478  0.97562576  0.35458129  1  0  0.106223  0  0.915664  0  0  0.115186  0  0.970353  0  0  0.118135  0  0.969144  0  0  0.131102  0.1129  0  0.971558  0
C  C54  1  0.55501254  0.60072850  0.85830688  1  0  -0.082537  0  3.740546  0  0  -0.10447  0  3.985653  0  0  -0.104603  0  4.006042  0  0  -0.085201  -0.103811  0  3.971405  0
C  C55  1  0.95437449  0.39919742  0.64191793  1  0  -0.083239  0  3.739989  0  0  -0.104652  0  3.985001  0  0  -0.104797  0  4.005406  0  0  -0.085042  -0.104173  0  3.971022  0
C  C56  1  0.44498920  0.39926940  0.14169325  1  0  -0.082452  0  3.74064  0  0  -0.104357  0  3.985718  0  0  -0.104478  0  4.006099  0  0  -0.085196  -0.1037  0  3.971482  0
C  C57  1  0.04563564  0.60080340  0.35808279  1  0  -0.08322  0  3.74029  0  0  -0.104648  0  3.985288  0  0  -0.104793  0  4.00569  0  0  -0.085073  -0.104165  0  3.971302  0
C  C58  1  0.47685852  0.48827996  0.89476863  1  0  -0.088141  0  3.790718  0  0  -0.098204  0  4.040002  0  0  -0.101891  0  4.061728  0  0  -0.095408  -0.095821  0  4.024931  0
C  C59  1  0.98844981  0.51154246  0.60540877  1  0  -0.088316  0  3.791976  0  0  -0.098703  0  4.041106  0  0  -0.102371  0  4.06293  0  0  -0.095597  -0.096353  0  4.026288  0
C  C60  1  0.52314078  0.51171307  0.10523188  1  0  -0.088216  0  3.790803  0  0  -0.098287  0  4.040105  0  0  -0.101973  0  4.061828  0  0  -0.09544  -0.095903  0  4.02504  0
C  C61  1  0.01155764  0.48846131  0.39458998  1  0  -0.088174  0  3.792223  0  0  -0.098583  0  4.041337  0  0  -0.102243  0  4.063166  0  0  -0.095586  -0.09623  0  4.026511  0
C  C62  1  0.44927682  0.36579467  0.86301351  1  0  -0.059329  0  3.769178  0  0  -0.07494  0  4.020857  0  0  -0.074923  0  4.041451  0  0  -0.089062  -0.074367  0  4.006497  0
C  C63  1  0.08393212  0.63406478  0.63703465  1  0  -0.058844  0  3.771732  0  0  -0.074342  0  4.023277  0  0  -0.074327  0  4.04386  0  0  -0.089733  -0.073951  0  4.009007  0
C  C64  1  0.55072533  0.63420129  0.13698605  1  0  -0.059353  0  3.768989  0  0  -0.07495  0  4.020654  0  0  -0.074932  0  4.041246  0  0  -0.088999  -0.07437  0  4.006295  0
C  C65  1  0.91607759  0.36593798  0.36296817  1  0  -0.059055  0  3.771707  0  0  -0.074539  0  4.023242  0  0  -0.074525  0  4.043819  0  0  -0.089757  -0.074146  0  4.008969  0
C  C66  1  0.50125151  0.35657674  0.79454742  1  0  -0.066591  0  3.774194  0  0  -0.079283  0  4.027901  0  0  -0.08219  0  4.049451  0  0  -0.094047  -0.077436  0  4.013447  0
C  C67  1  0.14589006  0.64339076  0.70538624  1  0  -0.066462  0  3.774774  0  0  -0.079265  0  4.028839  0  0  -0.082122  0  4.05042  0  0  -0.094316  -0.077404  0  4.014277  0
C  C68  1  0.49874835  0.64342018  0.20545319  1  0  -0.066575  0  3.774294  0  0  -0.079257  0  4.027985  0  0  -0.082163  0  4.049533  0  0  -0.094055  -0.077414  0  4.013535  0
C  C69  1  0.85411266  0.35660909  0.29461342  1  0  -0.066362  0  3.774604  0  0  -0.07917  0  4.02865  0  0  -0.082027  0  4.050228  0  0  -0.09431  -0.077311  0  4.014088  0
C  C70  1  0.57740610  0.46871366  0.75783052  1  0  -0.085031  0  3.731673  0  0  -0.104103  0  3.971175  0  0  -0.104501  0  3.99225  0  0  -0.084898  -0.103919  0  3.957206  0
C  C71  1  0.11004018  0.53134824  0.74216461  1  0  -0.086434  0  3.732719  0  0  -0.106054  0  3.972722  0  0  -0.106499  0  3.993843  0  0  -0.084756  -0.10564  0  3.958558  0
C  C72  1  0.42259050  0.53128229  0.24216955  1  0  -0.085025  0  3.731699  0  0  -0.104087  0  3.971195  0  0  -0.104483  0  3.992269  0  0  -0.084894  -0.103899  0  3.957229  0
C  C73  1  0.88996864  0.46865551  0.25783618  1  0  -0.08644  0  3.732832  0  0  -0.106074  0  3.972845  0  0  -0.106518  0  3.993963  0  0  -0.084755  -0.105654  0  3.958678  0
C  C74  1  0.60488684  0.59210784  0.78916851  1  0  -0.02324  0  3.750322  0  0  3.3e-05  0  3.974081  0  0  -0.005855  0  3.996046  0  0  -0.016725  0.003733  0  3.959414  0
C  C75  1  0.01346403  0.40793320  0.71096393  1  0  -0.022387  0  3.75004  0  0  0.00017  0  3.974741  0  0  -0.005695  0  3.996618  0  0  -0.017149  0.003844  0  3.959941  0
C  C76  1  0.39510928  0.40788715  0.21083154  1  0  -0.023289  0  3.750367  0  0  -3.2e-05  0  3.974124  0  0  -0.005938  0  3.996129  0  0  -0.016744  0.003663  0  3.959461  0
C  C77  1  0.98654153  0.59206957  0.28903633  1  0  -0.022582  0  3.750347  0  0  1.4e-05  0  3.975014  0  0  -0.005853  0  3.996894  0  0  -0.017127  0.003689  0  3.960211  0
C  C78  1  0.69142118  0.71383136  0.75135584  1  0  0.421851  0  3.806596  0  0  0.401219  0  4.068757  0  0  0.429025  0  4.073229  0  0  0.118228  0.382657  0  4.065161  0
C  C79  1  0.97795677  0.28631437  0.74887509  1  0  0.421883  0  3.80913  0  0  0.401935  0  4.070726  0  0  0.429786  0  4.075116  0  0  0.118714  0.383491  0  4.066882  0
C  C80  1  0.30857086  0.28616655  0.24864326  1  0  0.421761  0  3.806791  0  0  0.40115  0  4.068932  0  0  0.428949  0  4.073416  0  0  0.118132  0.382594  0  4.065325  0
C  C81  1  0.02204332  0.71369132  0.25112627  1  0  0.421996  0  3.809282  0  0  0.402014  0  4.070882  0  0  0.429866  0  4.075272  0  0  0.118669  0.383565  0  4.067036  0
C  C82  1  0.65801305  0.70766735  0.67987113  1  0  -0.43531  0  3.761434  0  0  -0.465818  0  4.035338  0  0  -0.491606  0  4.056923  0  0  -0.159251  -0.448431  0  4.020261  0
C  C83  1  0.95000793  0.29254031  0.82033193  1  0  -0.435248  0  3.759627  0  0  -0.465552  0  4.033078  0  0  -0.491398  0  4.054707  0  0  -0.158661  -0.448553  0  4.018414  0
C  C84  1  0.34198038  0.29233055  0.32012900  1  0  -0.435349  0  3.761429  0  0  -0.465841  0  4.035314  0  0  -0.491625  0  4.056898  0  0  -0.159231  -0.448456  0  4.020238  0
C  C85  1  0.04999215  0.70746538  0.17966944  1  0  -0.435226  0  3.759529  0  0  -0.465463  0  4.033009  0  0  -0.491318  0  4.054644  0  0  -0.158613  -0.448467  0  4.018347  0
C  C86  1  0.74739985  0.80537268  0.63405714  1  0  0.412248  0  3.830386  0  0  0.389851  0  4.098312  0  0  0.416816  0  4.103651  0  0  0.113498  0.371915  0  4.093743  0
C  C87  1  0.94196739  0.19494181  0.86617536  1  0  0.411154  0  3.830154  0  0  0.388745  0  4.098227  0  0  0.415617  0  4.103689  0  0  0.112616  0.37098  0  4.093851  0
C  C88  1  0.25259725  0.19462426  0.36594194  1  0  0.412289  0  3.830468  0  0  0.389905  0  4.098381  0  0  0.416868  0  4.103719  0  0  0.113518  0.371971  0  4.093819  0
C  C89  1  0.05803540  0.80506096  0.13382541  1  0  0.41093  0  3.830267  0  0  0.388527  0  4.098324  0  0  0.41539  0  4.103802  0  0  0.112495  0.370762  0  4.093945  0
C  C90  1  0.71605882  0.77328175  0.55886178  1  0  -0.026652  0  3.770601  0  0  -0.003515  0  3.994312  0  0  -0.00969  0  4.018055  0  0  -0.022144  0.000429  0  3.978199  0
C  C91  1  0.94258507  0.22704749  0.94137145  1  0  -0.026262  0  3.768544  0  0  -0.003221  0  3.992514  0  0  -0.009388  0  4.016265  0  0  -0.021642  0.000582  0  3.976662  0
C  C92  1  0.28394431  0.22671617  0.44113733  1  0  -0.026631  0  3.770519  0  0  -0.003549  0  3.994289  0  0  -0.009723  0  4.018033  0  0  -0.0222  0.000405  0  3.978178  0
C  C93  1  0.05742097  0.77295625  0.05862985  1  0  -0.026106  0  3.768498  0  0  -0.003096  0  3.992505  0  0  -0.00926  0  4.016252  0  0  -0.021626  0.000704  0  3.976652  0
C  C94  1  0.54490765  0.68045160  0.53073708  1  0  -0.096663  0  3.747873  0  0  -0.114155  0  3.984156  0  0  -0.114873  0  4.005323  0  0  -0.091081  -0.113369  0  3.96971  0
C  C95  1  0.86413473  0.31977760  0.96956617  1  0  -0.098383  0  3.748103  0  0  -0.115818  0  3.984028  0  0  -0.116555  0  4.005143  0  0  -0.09161  -0.115241  0  3.969886  0
C  C96  1  0.45509874  0.31954729  0.46926205  1  0  -0.096528  0  3.747749  0  0  -0.113985  0  3.984011  0  0  -0.114703  0  4.005174  0  0  -0.090966  -0.113198  0  3.969565  0
C  C97  1  0.13586806  0.68022517  0.03043461  1  0  -0.098414  0  3.74822  0  0  -0.11585  0  3.98415  0  0  -0.116587  0  4.005267  0  0  -0.091601  -0.115277  0  3.970005  0
C  C98  1  0.52532646  0.65457443  0.45992196  1  0  -0.082378  0  3.797314  0  0  -0.092522  0  4.041347  0  0  -0.095817  0  4.063488  0  0  -0.099546  -0.090305  0  4.026199  0
C  C99  1  0.87044969  0.34566869  0.04037911  1  0  -0.081211  0  3.795487  0  0  -0.09075  0  4.039636  0  0  -0.093984  0  4.061775  0  0  -0.098768  -0.088511  0  4.024534  0
C  C100  1  0.47467757  0.34542251  0.54007711  1  0  -0.082548  0  3.797396  0  0  -0.092672  0  4.041438  0  0  -0.095968  0  4.063579  0  0  -0.099601  -0.090463  0  4.026292  0
C  C101  1  0.12955635  0.65433505  0.95962220  1  0  -0.081134  0  3.795621  0  0  -0.090667  0  4.039724  0  0  -0.093901  0  4.061862  0  0  -0.098683  -0.088429  0  4.024623  0
C  C102  1  0.67619350  0.71985716  0.41646989  1  0  -0.068064  0  3.76752  0  0  -0.083648  0  4.017286  0  0  -0.084337  0  4.038441  0  0  -0.094629  -0.082906  0  4.002666  0
C  C103  1  0.95609307  0.28046942  0.08378747  1  0  -0.068624  0  3.767515  0  0  -0.084374  0  4.01719  0  0  -0.085078  0  4.038345  0  0  -0.094776  -0.083506  0  4.002429  0
C  C104  1  0.32380971  0.28014368  0.58352878  1  0  -0.068031  0  3.767474  0  0  -0.083618  0  4.017241  0  0  -0.084304  0  4.038393  0  0  -0.094637  -0.082871  0  4.00262  0
C  C105  1  0.04391256  0.71953627  0.91621389  1  0  -0.068729  0  3.767567  0  0  -0.084481  0  4.017231  0  0  -0.085185  0  4.038386  0  0  -0.094816  -0.083613  0  4.002468  0
C  C106  1  0.84697782  0.81287015  0.44396811  1  0  -0.088768  0  3.786462  0  0  -0.100352  0  4.038817  0  0  -0.103579  0  4.059436  0  0  -0.098386  -0.098199  0  4.024816  0
C  C107  1  0.03386986  0.18748499  0.05622335  1  0  -0.089148  0  3.785457  0  0  -0.100811  0  4.037824  0  0  -0.104025  0  4.058406  0  0  -0.098317  -0.098428  0  4.023646  0
C  C108  1  0.15302628  0.18712972  0.55603053  1  0  -0.088694  0  3.78646  0  0  -0.100274  0  4.038804  0  0  -0.1035  0  4.059424  0  0  -0.098373  -0.098117  0  4.0248  0
C  C109  1  0.96613203  0.81251875  0.94377796  1  0  -0.089202  0  3.785608  0  0  -0.10086  0  4.037947  0  0  -0.104076  0  4.058531  0  0  -0.098367  -0.098476  0  4.023764  0
C  C110  1  0.86573255  0.83945320  0.51450865  1  0  -0.092708  0  3.747503  0  0  -0.112418  0  3.987182  0  0  -0.11323  0  4.008105  0  0  -0.093372  -0.111638  0  3.972931  0
C  C111  1  0.02607548  0.16090934  0.98568176  1  0  -0.091921  0  3.744759  0  0  -0.111401  0  3.98444  0  0  -0.112139  0  4.005333  0  0  -0.093745  -0.110795  0  3.970302  0
C  C112  1  0.13427155  0.16054666  0.48549101  1  0  -0.092758  0  3.747572  0  0  -0.112438  0  3.987258  0  0  -0.113268  0  4.008171  0  0  -0.093382  -0.111666  0  3.973008  0
C  C113  1  0.97392681  0.83909245  0.01431949  1  0  -0.091825  0  3.744752  0  0  -0.111324  0  3.984468  0  0  -0.112062  0  4.005361  0  0  -0.093674  -0.110718  0  3.970327  0
C  C114  1  0.29438975  0.98857991  0.80837022  1  0  0.077993  0  3.656931  0  0  0.051154  0  3.908504  0  0  0.053076  0  3.926127  0  0  0.066107  0.049676  0  3.897216  0
C  C115  1  0.30633954  0.01167443  0.69165557  1  0  0.079663  0  3.656299  0  0  0.052626  0  3.908342  0  0  0.05454  0  3.925977  0  0  0.06604  0.051155  0  3.897046  0
C  C116  1  0.70560506  0.01141801  0.19162837  1  0  0.078078  0  3.656886  0  0  0.051258  0  3.908408  0  0  0.053183  0  3.926036  0  0  0.066161  0.049787  0  3.897112  0
C  C117  1  0.69365347  0.98832542  0.30834461  1  0  0.079534  0  3.656143  0  0  0.052539  0  3.908195  0  0  0.054434  0  3.925824  0  0  0.065999  0.051071  0  3.896904  0
C  C118  1  0.48680712  0.98704530  0.80820897  1  0  0.079468  0  3.657996  0  0  0.053137  0  3.90856  0  0  0.054264  0  3.926796  0  0  0.065639  0.052175  0  3.896811  0
C  C119  1  0.50025608  0.01313259  0.69189871  1  0  0.079597  0  3.659331  0  0  0.052738  0  3.910056  0  0  0.053903  0  3.928361  0  0  0.066379  0.051859  0  3.898129  0
C  C120  1  0.51318867  0.01295457  0.19178968  1  0  0.07953  0  3.657851  0  0  0.053193  0  3.908403  0  0  0.054303  0  3.926632  0  0  0.065646  0.05223  0  3.896649  0
C  C121  1  0.49973327  0.98686826  0.30809894  1  0  0.079596  0  3.65924  0  0  0.05273  0  3.909946  0  0  0.053878  0  3.928248  0  0  0.066383  0.051848  0  3.898019  0
N  N122  1  0.20500607  0.00012286  0.74999607  1  0  -0.243873  0  3.234004  0  0  -0.179462  0  3.499217  0  0  -0.19063  0  3.513407  0  0  -0.292445  -0.172098  0  3.490331  0
N  N123  1  0.79498646  0.99987603  0.25000306  1  0  -0.243875  0  3.233954  0  0  -0.179492  0  3.499177  0  0  -0.190673  0  3.513387  0  0  -0.292445  -0.17212  0  3.490283  0
N  N124  1  0.58884913  0.00006380  0.75007772  1  0  -0.246553  0  3.242461  0  0  -0.184043  0  3.504112  0  0  -0.195387  0  3.521907  0  0  -0.288756  -0.176572  0  3.49256  0
N  N125  1  0.41114569  0.99993412  0.24992036  1  0  -0.246562  0  3.242485  0  0  -0.184109  0  3.504213  0  0  -0.195409  0  3.521962  0  0  -0.288777  -0.176628  0  3.492654  0
O  O126  1  0.79173312  0.81519647  0.78770809  1  0  -0.566687  0  2.06926  0  0  -0.49832  0  2.322699  0  0  -0.525332  0  2.314172  0  0  -0.301375  -0.479245  0  2.327835  0
O  O127  1  0.97724528  0.18492122  0.71260877  1  0  -0.565742  0  2.068128  0  0  -0.498781  0  2.322914  0  0  -0.525677  0  2.314098  0  0  -0.301914  -0.479827  0  2.328429  0
O  O128  1  0.20825614  0.18480143  0.21229255  1  0  -0.566562  0  2.069357  0  0  -0.498227  0  2.322823  0  0  -0.525233  0  2.3143  0  0  -0.30128  -0.479158  0  2.327958  0
O  O129  1  0.02275750  0.81508154  0.28739252  1  0  -0.565743  0  2.06822  0  0  -0.498773  0  2.323022  0  0  -0.525668  0  2.314206  0  0  -0.30188  -0.479815  0  2.328533  0
O  O130  1  0.86305639  0.92104707  0.65080840  1  0  -0.584623  0  2.084657  0  0  -0.51665  0  2.344218  0  0  -0.543321  0  2.334552  0  0  -0.309794  -0.49801  0  2.350189  0
O  O131  1  0.94245333  0.07937856  0.84941748  1  0  -0.583896  0  2.084541  0  0  -0.51627  0  2.344735  0  0  -0.542866  0  2.335031  0  0  -0.30954  -0.497849  0  2.350745  0
O  O132  1  0.13694168  0.07895181  0.34919176  1  0  -0.584685  0  2.084704  0  0  -0.516679  0  2.344223  0  0  -0.543352  0  2.334565  0  0  -0.309835  -0.498041  0  2.350197  0
O  O133  1  0.05754725  0.92062813  0.15058135  1  0  -0.58389  0  2.08453  0  0  -0.516191  0  2.34461  0  0  -0.542782  0  2.334913  0  0  -0.30948  -0.497768  0  2.350617  0
