# generated using pymatgen
data_CuH26C26S2(N2O3)2
_symmetry_space_group_name_H-M   'P 1'
_cell_length_a   7.50581727
_cell_length_b   9.57859298
_cell_length_c   10.10345855
_cell_angle_alpha   68.17799056
_cell_angle_beta   70.70261606
_cell_angle_gamma   86.00955536
_symmetry_Int_Tables_number   1
_chemical_formula_structural   CuH26C26S2(N2O3)2
_chemical_formula_sum   'Cu1 H26 C26 S2 N4 O6'
_cell_volume   635.27531276
_cell_formula_units_Z   1
loop_
 _symmetry_equiv_pos_site_id
 _symmetry_equiv_pos_as_xyz
  1  'x, y, z'
loop_
 _atom_site_type_symbol
 _atom_site_label
 _atom_site_symmetry_multiplicity
 _atom_site_fract_x
 _atom_site_fract_y
 _atom_site_fract_z
 _atom_site_occupancy
 _atom_site_hle17_ddec_charge
 _atom_site_hle17_ddec_spin_density
 _atom_site_hle17_ddec_sum_bond_order
 _atom_site_hle17_magmom
 _atom_site_hse06_10hf_ddec_charge
 _atom_site_hse06_10hf_ddec_spin_density
 _atom_site_hse06_10hf_ddec_sum_bond_order
 _atom_site_hse06_10hf_magmom
 _atom_site_hse06_ddec_charge
 _atom_site_hse06_ddec_spin_density
 _atom_site_hse06_ddec_sum_bond_order
 _atom_site_hse06_magmom
 _atom_site_pbe_cm5_charge
 _atom_site_pbe_ddec_charge
 _atom_site_pbe_ddec_spin_density
 _atom_site_pbe_ddec_sum_bond_order
 _atom_site_pbe_magmom
Cu  Cu0  1  0.00000093  0.00000216  0.50000191  1  0.857803  0.688149  1.763988  0.501  0.829761  0.769467  2.14249  0.613  0.921092  0.836249  2.075249  0.698  0.747534  0.773065  0.722835  2.189744  0.559
H  H1  1  0.28611086  0.49757809  0.30362674  1  0.063884  3.5e-05  0.935597  0.0  0.073096  -1.5e-05  0.999691  0.0  0.075224  -1.6e-05  0.998718  0.0  0.106363  0.071741  -1.2e-05  1.000042  0.0
H  H2  1  0.71388007  0.50242908  0.69637609  1  0.063865  3.4e-05  0.935657  0.0  0.073122  -1.4e-05  0.999709  0.0  0.075247  -1.6e-05  0.998745  0.0  0.106367  0.071773  -1.2e-05  1.000059  0.0
H  H3  1  0.58270606  0.35913580  0.24685195  1  0.108328  0.000139  0.973538  0.0  0.115345  0.000116  1.039654  0.0  0.118703  8.4e-05  1.038751  0.0  0.10407  0.112714  0.000121  1.040889  0.0
H  H4  1  0.41727994  0.64086350  0.75315190  1  0.108369  0.00013  0.973549  0.0  0.115378  0.000115  1.039673  0.0  0.118737  8.3e-05  1.038768  0.0  0.104072  0.112737  0.000121  1.040918  0.0
H  H5  1  0.85291993  0.49323568  0.01309143  1  0.104263  -1.6e-05  0.951829  0.0  0.113373  -7e-06  1.015625  0.0  0.116914  -9e-06  1.011677  0.0  0.108838  0.110756  -6e-06  1.018649  0.0
H  H6  1  0.14706539  0.50675571  0.98690946  1  0.104228  -1.1e-05  0.951805  0.0  0.1133  -6e-06  1.015632  0.0  0.116835  -9e-06  1.011697  0.0  0.108803  0.110685  -6e-06  1.01865  0.0
H  H7  1  0.18909614  0.03923542  0.87407188  1  0.118674  -0.000101  0.970232  0.0  0.141055  -5.1e-05  1.025752  0.0  0.140907  -4.8e-05  1.028599  0.0  0.089776  0.141069  -6.1e-05  1.023998  0.0
H  H8  1  0.81090660  0.96076147  0.12592182  1  0.118663  -0.00012  0.970212  0.0  0.141046  -5.1e-05  1.025734  0.0  0.140898  -4.9e-05  1.028584  0.0  0.089777  0.141059  -6.1e-05  1.023975  0.0
H  H9  1  0.21161886  0.95300203  0.05779672  1  0.117956  -4.1e-05  0.980405  0.0  0.129674  -1.4e-05  1.055238  0.0  0.13085  -2.4e-05  1.055307  0.0  0.087949  0.129169  -1e-06  1.054813  0.0
H  H10  1  0.78837420  0.04699719  0.94220049  1  0.11794  -4.7e-05  0.980359  0.0  0.129666  -1.4e-05  1.0552  0.0  0.130844  -2.4e-05  1.055268  0.0  0.087933  0.129149  -1e-06  1.054788  0.0
H  H11  1  0.14882666  0.83925424  0.97105431  1  0.12607  3.6e-05  0.944203  0.0  0.146089  2.8e-05  1.000624  0.0  0.146891  1.5e-05  1.000956  0.0  0.094455  0.14538  4.2e-05  1.000476  0.0
H  H12  1  0.85117789  0.16074714  0.02893635  1  0.126071  3.1e-05  0.944173  0.0  0.146084  2.7e-05  1.000611  0.0  0.146887  1.6e-05  1.000944  0.0  0.094428  0.145373  4.2e-05  1.000462  0.0
H  H13  1  0.60803227  0.89974781  0.55213977  1  0.10014  0.001153  0.973331  0.002  0.097319  0.000965  1.055189  0.002  0.100416  0.000685  1.051842  0.001  0.116148  0.094873  0.001157  1.05786  0.002
H  H14  1  0.39197066  0.10025137  0.44786197  1  0.100163  0.001163  0.973271  0.002  0.097338  0.000965  1.055136  0.002  0.100434  0.000685  1.051789  0.001  0.11615  0.094891  0.001156  1.057808  0.002
H  H15  1  0.67443834  0.61062426  0.30009541  1  0.090287  0.000309  0.986262  0.001  0.103968  2.6e-05  1.04468  0.0  0.105472  -3.2e-05  1.044965  0.0  0.101631  0.102799  7.3e-05  1.04437  0.0
H  H16  1  0.32557547  0.38937034  0.69990827  1  0.090207  0.0003  0.986205  0.001  0.103898  2.6e-05  1.044629  0.0  0.105402  -3.3e-05  1.044915  0.0  0.101633  0.102728  7.3e-05  1.044319  0.0
H  H17  1  0.02671671  0.64345425  0.23545660  1  0.115553  0.000445  0.957893  0.0  0.122066  0.00045  1.021764  0.0  0.125567  0.000323  1.020163  0.0  0.111072  0.119501  0.000544  1.022995  0.001
H  H18  1  0.97329820  0.35655274  0.76454142  1  0.115572  0.00045  0.957886  0.0  0.122087  0.00045  1.021763  0.0  0.125592  0.000322  1.020153  0.0  0.111096  0.119523  0.000544  1.022994  0.001
H  H19  1  0.14943328  0.81771292  0.32103205  1  0.083679  0.000987  0.975688  0.002  0.088157  0.000765  1.048594  0.002  0.09075  0.000523  1.044942  0.001  0.116717  0.085934  0.000949  1.051579  0.002
H  H20  1  0.85057518  0.18230087  0.67896413  1  0.083716  0.000993  0.975543  0.002  0.088181  0.000765  1.048444  0.002  0.090787  0.000523  1.044785  0.001  0.116715  0.085943  0.000949  1.051445  0.002
H  H21  1  0.37958845  0.76475494  0.35772792  1  0.038449  0.000539  0.971296  0.001  0.049526  0.000289  1.049013  0.0  0.049307  0.000201  1.048763  0.0  0.089824  0.049578  0.000374  1.049168  0.0
H  H22  1  0.62041668  0.23525326  0.64227503  1  0.038416  0.000541  0.971333  0.001  0.049499  0.000289  1.049043  0.0  0.049277  0.000201  1.048795  0.0  0.089815  0.049553  0.000374  1.049195  0.0
H  H23  1  0.35126661  0.61666470  0.53283801  1  0.042494  0.000205  0.95189  0.0  0.060679  8.3e-05  1.016596  0.0  0.059519  7e-05  1.017695  0.0  0.096952  0.061354  0.000109  1.015793  0.0
H  H24  1  0.64873744  0.38333108  0.46716170  1  0.04249  0.000202  0.951927  0.0  0.060691  8.3e-05  1.01661  0.0  0.059528  7e-05  1.017709  0.0  0.096971  0.061368  0.000109  1.015806  0.0
H  H25  1  0.18852811  0.76965853  0.63162461  1  0.359559  -0.000236  0.953992  0.0  0.330224  -0.000213  1.037102  0.0  0.341997  -0.000244  1.019922  0.0  0.280089  0.32162  -0.000162  1.04842  0.0
H  H26  1  0.81146708  0.23033280  0.36837686  1  0.359581  -0.000235  0.95396  0.0  0.330272  -0.000212  1.037012  0.0  0.342044  -0.000243  1.019834  0.0  0.280104  0.321663  -0.000162  1.048319  0.0
C  C27  1  0.86438345  0.76085278  0.80014668  1  0.648576  -0.005854  3.893529  -0.007  0.602088  -0.000486  4.192275  -0.002  0.640846  -0.001185  4.184712  -0.002  0.205734  0.576222  0.000216  4.195906  -0.001
C  C28  1  0.13561053  0.23914079  0.19984935  1  0.648528  -0.005827  3.893553  -0.007  0.602131  -0.000485  4.192259  -0.002  0.640891  -0.001186  4.184693  -0.002  0.205819  0.576267  0.000216  4.195891  -0.001
C  C29  1  0.70275750  0.69105346  0.94317534  1  -0.169156  0.009924  3.724138  0.011  -0.146384  0.005637  3.957188  0.007  -0.160779  0.004098  3.979252  0.005  -0.025075  -0.1374  0.006857  3.943634  0.008
C  C30  1  0.29723366  0.30894015  0.05682631  1  -0.168984  0.009908  3.724035  0.011  -0.146404  0.005635  3.957285  0.007  -0.160801  0.004097  3.979351  0.005  -0.025136  -0.13742  0.006856  3.943742  0.008
C  C31  1  0.52595600  0.75686776  0.98055742  1  0.180408  -0.002533  3.76003  -0.002  0.176218  -0.000518  4.025295  0.0  0.189419  -0.000578  4.041977  0.0  0.123676  0.16552  -0.000452  4.017548  0.0
C  C32  1  0.47403716  0.24313260  0.01944233  1  0.180336  -0.002513  3.759985  -0.002  0.176239  -0.00052  4.025207  0.0  0.189444  -0.000575  4.041885  0.0  0.12369  0.165521  -0.000452  4.017498  0.0
C  C33  1  0.40725509  0.54962508  0.20163345  1  0.130923  -0.002266  3.760098  -0.001  0.102099  -0.00057  4.02825  0.0  0.110198  -0.000628  4.044276  0.0  0.043072  0.09706  -0.000384  4.016172  0.0
C  C34  1  0.59273565  0.45037982  0.79836726  1  0.130938  -0.002275  3.760163  -0.001  0.102068  -0.00057  4.028334  0.0  0.110166  -0.000625  4.044358  0.0  0.043036  0.097027  -0.000384  4.016258  0.0
C  C35  1  0.57156045  0.47312033  0.17222055  1  -0.153921  0.001481  3.759988  0.002  -0.168031  0.000462  4.018609  0.001  -0.176091  0.000381  4.039742  0.0  -0.102152  -0.161819  0.000551  4.003768  0.001
C  C36  1  0.42842556  0.52687895  0.82777935  1  -0.153893  0.0015  3.759983  0.002  -0.167994  0.000461  4.018565  0.001  -0.176054  0.00038  4.039695  0.0  -0.102085  -0.161775  0.000551  4.003728  0.001
C  C37  1  0.72078582  0.54715098  0.04165509  1  0.007792  -0.000894  3.703453  0.0  -0.022157  0.000361  3.953151  0.001  -0.015325  1.3e-05  3.968995  0.0  -0.064899  -0.026916  0.000636  3.943001  0.001
C  C38  1  0.27920252  0.45284265  0.95834427  1  0.00776  -0.0009  3.703243  0.0  -0.022099  0.000363  3.952996  0.001  -0.015267  1.5e-05  3.968843  0.0  -0.064827  -0.026852  0.000636  3.94284  0.001
C  C39  1  0.23222823  0.93890412  0.95112344  1  -0.337883  0.000929  3.678309  0.001  -0.410215  0.000312  3.93271  0.0  -0.410638  0.000104  3.941797  0.0  -0.239867  -0.409851  0.000547  3.926551  0.001
C  C40  1  0.76777209  0.06109731  0.04887220  1  -0.337812  0.00097  3.678151  0.001  -0.410168  0.000314  3.932516  0.0  -0.410597  0.000104  3.941603  0.0  -0.239819  -0.409784  0.000547  3.926361  0.001
C  C41  1  0.69413984  0.84060781  0.48210918  1  0.090654  -0.011555  3.624304  -0.008  0.055761  -0.002283  3.875045  -0.001  0.064139  -0.003963  3.893452  -0.003  0.046492  0.049542  -0.001009  3.864764  0.0
C  C42  1  0.30587025  0.15939243  0.51788746  1  0.090729  -0.011598  3.624158  -0.008  0.055807  -0.002284  3.874904  -0.001  0.064188  -0.003963  3.893308  -0.003  0.046489  0.049594  -0.001009  3.864618  0.0
C  C43  1  0.61267348  0.75106290  0.43296219  1  0.011267  0.010339  3.721806  0.011  0.038093  0.00395  3.956974  0.005  0.032075  0.003567  3.98008  0.004  -0.007602  0.041094  0.004185  3.942053  0.005
C  C44  1  0.38733086  0.24893626  0.56703822  1  0.011141  0.010341  3.721752  0.011  0.03795  0.003948  3.956967  0.005  0.031926  0.003568  3.980073  0.004  -0.00765  0.040951  0.004185  3.942051  0.005
C  C45  1  0.73331222  0.67835195  0.34358709  1  -0.067565  -0.014495  3.718653  -0.009  -0.091418  -0.005045  3.958566  -0.003  -0.087766  -0.005657  3.976445  -0.003  -0.072318  -0.093817  -0.004478  3.947463  -0.003
C  C46  1  0.26670209  0.32164827  0.65641248  1  -0.067312  -0.01445  3.718321  -0.009  -0.091149  -0.00504  3.958222  -0.003  -0.087499  -0.00566  3.976104  -0.003  -0.07223  -0.093547  -0.004478  3.947119  -0.003
C  C47  1  0.92809432  0.69677893  0.30597603  1  -0.114592  0.01034  3.743545  0.011  -0.124616  0.003842  3.992048  0.005  -0.131393  0.003497  4.011364  0.004  -0.082226  -0.119997  0.004039  3.979623  0.005
C  C48  1  0.07192059  0.30322806  0.69402298  1  -0.114809  0.010335  3.743536  0.011  -0.124855  0.003842  3.992086  0.005  -0.131633  0.003498  4.011401  0.004  -0.082424  -0.120236  0.004039  3.97966  0.005
C  C49  1  0.99845048  0.79238287  0.35475543  1  0.12033  -0.012784  3.691562  -0.009  0.088324  -0.003146  3.947672  -0.002  0.097866  -0.004887  3.965453  -0.003  0.044498  0.082083  -0.001794  3.936252  -0.001
C  C50  1  0.00155909  0.20762754  0.64524070  1  0.120407  -0.012811  3.691269  -0.009  0.08838  -0.003147  3.947395  -0.002  0.097911  -0.004888  3.965171  -0.003  0.044568  0.082154  -0.001794  3.935985  -0.001
C  C51  1  0.40192988  0.73587921  0.46749263  1  0.106316  0.000791  3.725272  0.0  0.04208  0.000752  3.994576  0.001  0.050651  0.000468  4.001076  0.0  -0.074921  0.036428  0.001019  3.989875  0.001
C  C52  1  0.59807475  0.26412335  0.53250947  1  0.106398  0.000793  3.725207  0.0  0.042143  0.000751  3.994558  0.001  0.050725  0.000469  4.001045  0.0  -0.074924  0.036492  0.001019  3.989862  0.001
S  S53  1  0.47883197  0.92776322  0.85515923  1  0.070838  0.001271  2.502192  0.001  0.074723  0.000774  2.866152  0.0  0.068655  0.000347  2.868325  0.0  0.038215  0.080021  0.001294  2.867398  0.001
S  S54  1  0.52116834  0.07223823  0.14484036  1  0.070775  0.001258  2.502155  0.001  0.074671  0.000773  2.866084  0.0  0.068603  0.000347  2.868259  0.0  0.038197  0.079973  0.001294  2.867326  0.001
N  N55  1  0.38441045  0.68732280  0.10989816  1  -0.36151  0.000796  3.118777  0.001  -0.32143  9.5e-05  3.392789  0.0  -0.336049  0.000114  3.407939  0.0  -0.32431  -0.310267  0.000215  3.38385  0.0
N  N56  1  0.61558593  0.31268206  0.89010217  1  -0.361533  0.000797  3.118647  0.001  -0.321462  9.7e-05  3.392664  0.0  -0.336082  0.000113  3.407812  0.0  -0.324326  -0.310295  0.000215  3.383738  0.0
N  N57  1  0.88346452  0.86158857  0.44161109  1  -0.287283  0.077527  3.347383  0.098  -0.235253  0.052348  3.639076  0.071  -0.265645  0.043311  3.661122  0.063  -0.350462  -0.216501  0.057172  3.626026  0.074
N  N58  1  0.11654032  0.13841622  0.55838621  1  -0.287398  0.077528  3.347248  0.098  -0.235272  0.052348  3.638868  0.071  -0.265666  0.043313  3.660917  0.063  -0.350446  -0.216526  0.057173  3.625823  0.074
O  O59  1  0.84328038  0.89612632  0.71618798  1  -0.600232  0.090045  2.139053  0.123  -0.567052  0.057383  2.430921  0.086  -0.610574  0.043676  2.424434  0.071  -0.312977  -0.537738  0.066616  2.434599  0.095
O  O60  1  0.15672415  0.10387512  0.28381653  1  -0.600213  0.090034  2.139025  0.123  -0.567095  0.057386  2.43099  0.086  -0.610626  0.043677  2.424509  0.071  -0.312992  -0.537762  0.066621  2.43462  0.095
O  O61  1  0.00600895  0.68486638  0.77029170  1  -0.599927  -0.000177  1.960761  0.001  -0.550448  -0.000222  2.18186  0.001  -0.576676  -0.001072  2.172396  0.0  -0.313055  -0.532025  0.000338  2.187194  0.002
O  O62  1  0.99397599  0.31512047  0.22970199  1  -0.599921  -0.000186  1.960788  0.001  -0.550467  -0.000224  2.181832  0.001  -0.57669  -0.00107  2.172363  0.0  -0.313132  -0.532042  0.000338  2.187162  0.002
O  O63  1  0.30148307  0.82916686  0.54374082  1  -0.57328  -0.000411  2.121262  0.001  -0.527845  -0.000802  2.375552  0.0  -0.545982  -0.001262  2.358396  0.0  -0.409475  -0.514682  -0.000113  2.387256  0.001
O  O64  1  0.69852057  0.17082444  0.45626949  1  -0.573321  -0.00041  2.121189  0.001  -0.527853  -0.000802  2.375431  0.0  -0.545991  -0.001263  2.358267  0.0  -0.409437  -0.514696  -0.000113  2.387151  0.001
