# generated using pymatgen
data_PrH6(C2O3)3
_symmetry_space_group_name_H-M   'P 1'
_cell_length_a   8.30188642
_cell_length_b   8.62784421
_cell_length_c   9.10219381
_cell_angle_alpha   94.66672302
_cell_angle_beta   116.43489769
_cell_angle_gamma   111.19559686
_symmetry_Int_Tables_number   1
_chemical_formula_structural   PrH6(C2O3)3
_chemical_formula_sum   'Pr2 H12 C12 O18'
_cell_volume   520.87317557
_cell_formula_units_Z   2
loop_
 _symmetry_equiv_pos_site_id
 _symmetry_equiv_pos_as_xyz
  1  'x, y, z'
loop_
 _atom_site_type_symbol
 _atom_site_label
 _atom_site_symmetry_multiplicity
 _atom_site_fract_x
 _atom_site_fract_y
 _atom_site_fract_z
 _atom_site_occupancy
 _atom_site_hle17_bader_spin_density
 _atom_site_hle17_ddec_charge
 _atom_site_hle17_ddec_spin_density
 _atom_site_hle17_ddec_sum_bond_order
 _atom_site_hle17_magmom
 _atom_site_hse06_10hf_bader_spin_density
 _atom_site_hse06_10hf_ddec_charge
 _atom_site_hse06_10hf_ddec_spin_density
 _atom_site_hse06_10hf_ddec_sum_bond_order
 _atom_site_hse06_10hf_magmom
 _atom_site_hse06_bader_spin_density
 _atom_site_hse06_ddec_charge
 _atom_site_hse06_ddec_spin_density
 _atom_site_hse06_ddec_sum_bond_order
 _atom_site_hse06_magmom
 _atom_site_pbe_bader_spin_density
 _atom_site_pbe_cm5_charge
 _atom_site_pbe_ddec_charge
 _atom_site_pbe_ddec_spin_density
 _atom_site_pbe_ddec_sum_bond_order
 _atom_site_pbe_magmom
Pr  Pr0  1  0.08881261  0.02111113  0.27542361  1  0  2.366295  0  1.556531  0  0  2.248555  0  1.926061  0  0  2.285949  0  1.882839  0  0  1.485598  2.173421  0  2.045795  0
Pr  Pr1  1  0.91118886  0.97888974  0.72457601  1  0  2.366306  0  1.556513  0  0  2.248559  0  1.926044  0  0  2.285952  0  1.882822  0  0  1.485602  2.173418  0  2.045773  0
H  H2  1  0.30629090  0.41601336  0.30869794  1  0  0.448709  0  0.798472  0  0  0.430138  0  0.854373  0  0  0.438215  0  0.843717  0  0  0.331914  0.424196  0  0.860827  0
H  H3  1  0.69370856  0.58398619  0.69130296  1  0  0.448706  0  0.798493  0  0  0.430133  0  0.854397  0  0  0.43821  0  0.843729  0  0  0.331902  0.424194  0  0.860845  0
H  H4  1  0.20523370  0.30920043  0.11535110  1  0  0.431758  0  0.874287  0  0  0.399096  0  0.941646  0  0  0.409707  0  0.926293  0  0  0.299568  0.391721  0  0.952066  0
H  H5  1  0.79476776  0.69080044  0.88464852  1  0  0.431769  0  0.874272  0  0  0.399108  0  0.941627  0  0  0.40972  0  0.926275  0  0  0.29957  0.391729  0  0.952054  0
H  H6  1  0.35428692  0.88847240  0.56104092  1  0  0.451262  0  0.839723  0  0  0.422493  0  0.897764  0  0  0.433234  0  0.882187  0  0  0.309637  0.414735  0  0.908892  0
H  H7  1  0.64571053  0.11152583  0.43896017  1  0  0.451252  0  0.839744  0  0  0.422482  0  0.897788  0  0  0.433223  0  0.88221  0  0  0.309624  0.414727  0  0.908911  0
H  H8  1  0.16227665  0.72136385  0.40008467  1  0  0.432506  0  0.864888  0  0  0.399169  0  0.93116  0  0  0.411266  0  0.913366  0  0  0.302588  0.390724  0  0.943395  0
H  H9  1  0.83772146  0.27863568  0.59991679  1  0  0.432579  0  0.864787  0  0  0.399173  0  0.931157  0  0  0.411271  0  0.913361  0  0  0.302594  0.390725  0  0.943397  0
H  H10  1  0.90276310  0.20653042  0.40652184  1  0  0.440421  0  0.857798  0  0  0.412223  0  0.915918  0  0  0.422998  0  0.900135  0  0  0.297869  0.404533  0  0.927022  0
H  H11  1  0.09723435  0.79346782  0.59347705  1  0  0.440422  0  0.857804  0  0  0.412232  0  0.91591  0  0  0.423007  0  0.900127  0  0  0.297871  0.40454  0  0.927018  0
H  H12  1  0.96791226  0.33006571  0.29841365  1  0  0.445172  0  0.847924  0  0  0.413353  0  0.911545  0  0  0.424427  0  0.89525  0  0  0.296519  0.40534  0  0.923263  0
H  H13  1  0.03208720  0.66993383  0.70158835  1  0  0.445167  0  0.847933  0  0  0.413345  0  0.911558  0  0  0.42442  0  0.895261  0  0  0.296511  0.405332  0  0.923277  0
C  C14  1  0.35591964  0.22303188  0.69145912  1  0  0.778256  0  3.946504  0  0  0.729897  0  4.235669  0  0  0.768325  0  4.217213  0  0  0.242495  0.703555  0  4.244593  0
C  C15  1  0.64407982  0.77696766  0.30854178  1  0  0.778178  0  3.946328  0  0  0.729776  0  4.235579  0  0  0.768197  0  4.217141  0  0  0.242453  0.703429  0  4.244505  0
C  C16  1  0.53894604  0.33018741  0.85303373  1  0  -0.101234  0  3.650284  0  0  -0.100355  0  3.90542  0  0  -0.103149  0  3.923087  0  0  -0.008417  -0.099474  0  3.895393  0
C  C17  1  0.46105284  0.66980568  0.14696421  1  0  -0.101259  0  3.650324  0  0  -0.100365  0  3.90547  0  0  -0.103159  0  3.923141  0  0  -0.008411  -0.099484  0  3.895448  0
C  C18  1  0.33956615  0.00666434  0.11598081  1  0  0.759083  0  3.933539  0  0  0.708749  0  4.223465  0  0  0.746261  0  4.207097  0  0  0.240376  0.683718  0  4.229011  0
C  C19  1  0.66043465  0.99333523  0.88401954  1  0  0.759157  0  3.933419  0  0  0.708795  0  4.223377  0  0  0.746326  0  4.206985  0  0  0.240362  0.683766  0  4.228925  0
C  C20  1  0.88982254  0.55841015  0.12037825  1  0  0.75607  0  3.93283  0  0  0.700928  0  4.228835  0  0  0.738364  0  4.213555  0  0  0.240229  0.675248  0  4.237839  0
C  C21  1  0.11017766  0.44158552  0.87962263  1  0  0.756251  0  3.932772  0  0  0.70106  0  4.228845  0  0  0.738498  0  4.213563  0  0  0.240281  0.675372  0  4.237857  0
C  C22  1  0.69919685  0.42440891  0.98221167  1  0  -0.144737  0  3.661499  0  0  -0.144574  0  3.917805  0  0  -0.14916  0  3.936214  0  0  -0.023799  -0.142117  0  3.90696  0
C  C23  1  0.30080866  0.57559200  0.01778958  1  0  -0.144767  0  3.661522  0  0  -0.144589  0  3.91784  0  0  -0.149174  0  3.936249  0  0  -0.023819  -0.14213  0  3.906998  0
C  C24  1  0.45626746  0.00297335  0.03785639  1  0  -0.103269  0  3.653284  0  0  -0.104847  0  3.91214  0  0  -0.108847  0  3.930438  0  0  0.00121  -0.102681  0  3.900517  0
C  C25  1  0.54373675  0.99702496  0.96214522  1  0  -0.103195  0  3.653257  0  0  -0.104756  0  3.912115  0  0  -0.108763  0  3.930408  0  0  0.001296  -0.102592  0  3.900493  0
O  O26  1  0.20857946  0.83965046  0.47243397  1  0  -0.916199  0  1.909972  0  0  -0.862678  0  2.091551  0  0  -0.882781  0  2.058001  0  0  -0.608739  -0.843111  0  2.117375  0
O  O27  1  0.79141931  0.16035036  0.52756896  1  0  -0.916261  0  1.90987  0  0  -0.862678  0  2.091538  0  0  -0.88278  0  2.057987  0  0  -0.608748  -0.843109  0  2.117356  0
O  O28  1  0.40801560  0.02107081  0.27458882  1  0  -0.657524  0  1.969061  0  0  -0.608858  0  2.19155  0  0  -0.632751  0  2.179084  0  0  -0.31568  -0.588058  0  2.200251  0
O  O29  1  0.59198320  0.97892744  0.72541061  1  0  -0.657583  0  1.969018  0  0  -0.608894  0  2.191504  0  0  -0.632794  0  2.179033  0  0  -0.315695  -0.588092  0  2.200203  0
O  O30  1  0.37441393  0.22098073  0.56015828  1  0  -0.686995  0  1.921616  0  0  -0.6414  0  2.151271  0  0  -0.665055  0  2.13712  0  0  -0.371944  -0.619396  0  2.162188  0
O  O31  1  0.62558344  0.77902268  0.43984100  1  0  -0.686966  0  1.921589  0  0  -0.641352  0  2.151254  0  0  -0.665004  0  2.137106  0  0  -0.371959  -0.619344  0  2.162166  0
O  O32  1  0.26915265  0.30512587  0.23652309  1  0  -0.896072  0  1.853006  0  0  -0.853369  0  2.037274  0  0  -0.870661  0  2.009411  0  0  -0.632555  -0.836008  0  2.05875  0
O  O33  1  0.73084881  0.69487499  0.76347873  1  0  -0.896078  0  1.853011  0  0  -0.853371  0  2.037281  0  0  -0.870662  0  2.009405  0  0  -0.632551  -0.836011  0  2.058756  0
O  O34  1  0.96945435  0.22616363  0.33741921  1  0  -0.959667  0  1.869186  0  0  -0.914178  0  2.058597  0  0  -0.932567  0  2.025702  0  0  -0.667309  -0.89516  0  2.085096  0
O  O35  1  0.03054576  0.77383722  0.66258206  1  0  -0.959651  0  1.869199  0  0  -0.914169  0  2.05861  0  0  -0.932559  0  2.025712  0  0  -0.667306  -0.895156  0  2.085125  0
O  O36  1  0.19411480  0.14080432  0.69057538  1  0  -0.753701  0  2.017797  0  0  -0.710838  0  2.27387  0  0  -0.735313  0  2.259022  0  0  -0.387095  -0.685078  0  2.283705  0
O  O37  1  0.80588596  0.85919784  0.30942516  1  0  -0.753638  0  2.017714  0  0  -0.710764  0  2.273817  0  0  -0.73523  0  2.258959  0  0  -0.387051  -0.685  0  2.283644  0
O  O38  1  0.16400084  0.99375934  0.02012807  1  0  -0.763941  0  2.086505  0  0  -0.714415  0  2.337729  0  0  -0.738213  0  2.32372  0  0  -0.394883  -0.688095  0  2.346728  0
O  O39  1  0.83600263  0.00624285  0.97987137  1  0  -0.76398  0  2.086455  0  0  -0.714458  0  2.337718  0  0  -0.738265  0  2.323701  0  0  -0.394871  -0.688144  0  2.346723  0
O  O40  1  0.93209788  0.70950451  0.09744913  1  0  -0.72506  0  2.037998  0  0  -0.670337  0  2.276207  0  0  -0.696767  0  2.264685  0  0  -0.356434  -0.646077  0  2.284565  0
O  O41  1  0.06790154  0.29049763  0.90255087  1  0  -0.725099  0  2.038171  0  0  -0.670363  0  2.276399  0  0  -0.696793  0  2.264878  0  0  -0.356451  -0.646099  0  2.284753  0
O  O42  1  0.00056783  0.52404506  0.24918434  1  0  -0.601161  0  1.923433  0  0  -0.538792  0  2.123737  0  0  -0.563525  0  2.109522  0  0  -0.281167  -0.521973  0  2.13362  0
O  O43  1  0.99943027  0.47595449  0.75081382  1  0  -0.601279  0  1.923371  0  0  -0.538862  0  2.12369  0  0  -0.563598  0  2.109475  0  0  -0.281182  -0.522036  0  2.133571  0
