# generated using pymatgen
data_CoH10(C2N)4
_symmetry_space_group_name_H-M   'P 1'
_cell_length_a   14.63960207
_cell_length_b   14.63992143
_cell_length_c   14.63042247
_cell_angle_alpha   109.46389484
_cell_angle_beta   109.46877761
_cell_angle_gamma   109.48134274
_symmetry_Int_Tables_number   1
_chemical_formula_structural   CoH10(C2N)4
_chemical_formula_sum   'Co6 H60 C48 N24'
_cell_volume   2413.79894191
_cell_formula_units_Z   6
loop_
 _symmetry_equiv_pos_site_id
 _symmetry_equiv_pos_as_xyz
  1  'x, y, z'
loop_
 _atom_site_type_symbol
 _atom_site_label
 _atom_site_symmetry_multiplicity
 _atom_site_fract_x
 _atom_site_fract_y
 _atom_site_fract_z
 _atom_site_occupancy
 _atom_site_pbe_bader_charge
 _atom_site_pbe_bader_spin_density
 _atom_site_pbe_cm5_charge
 _atom_site_pbe_ddec_charge
 _atom_site_pbe_ddec_spin_density
 _atom_site_pbe_ddec_sum_bond_order
 _atom_site_pbe_magmom
Co  Co0  1  0.74987725  0.50016597  0.25032202  1  1.115599  2.529711  0.71236  0.679831  2.756213  2.735282  2.455
Co  Co1  1  0.25009577  0.50017653  0.75013454  1  1.118037  2.530948  0.714362  0.68435  2.757138  2.726079  2.455
Co  Co2  1  0.24979889  0.74970500  0.49954992  1  1.118127  2.531148  0.713917  0.684773  2.757656  2.724208  2.455
Co  Co3  1  0.75014093  0.25005973  0.50024657  1  1.118744  2.531162  0.713951  0.684743  2.757471  2.723907  2.456
Co  Co4  1  0.49970734  0.24969702  0.75001552  1  1.117486  2.531216  0.713232  0.685261  2.757514  2.722084  2.455
Co  Co5  1  0.50030551  0.75023108  0.25013917  1  1.117065  2.529719  0.713675  0.679795  2.756097  2.73793  2.455
H  H6  1  0.88377322  0.76233694  0.41489767  1  0.08065  0.001983  0.109361  0.101687  0.000613  1.030293  0.001
H  H7  1  0.64932094  0.23732155  0.12079034  1  0.106673  0.001971  0.109613  0.103383  0.000597  1.025014  0.001
H  H8  1  0.11657401  0.53213474  0.87884066  1  0.075133  0.002017  0.109985  0.102133  0.000615  1.029261  0.001
H  H9  1  0.34903916  0.47028144  0.58673975  1  0.084595  0.001993  0.10948  0.102258  0.000603  1.028627  0.001
H  H10  1  0.41424175  0.88297394  0.76179719  1  0.072426  0.002007  0.10955  0.1019  0.000613  1.028462  0.001
H  H11  1  0.12136307  0.65241660  0.23679631  1  0.070002  0.002015  0.10971  0.101604  0.000616  1.029491  0.001
H  H12  1  0.87867393  0.11637394  0.53128128  1  0.089555  0.002003  0.109302  0.101243  0.000614  1.029706  0.001
H  H13  1  0.58673036  0.34940889  0.47041227  1  0.071702  0.00199  0.109666  0.102774  0.000595  1.026455  0.001
H  H14  1  0.76286499  0.41228672  0.88373181  1  0.064019  0.002009  0.110109  0.104277  0.000595  1.023532  0.001
H  H15  1  0.23754312  0.12165205  0.65309575  1  0.06962  0.001993  0.10949  0.101351  0.000616  1.029996  0.001
H  H16  1  0.53028826  0.87892491  0.11651989  1  0.107621  0.001981  0.109626  0.10212  0.00061  1.029072  0.001
H  H17  1  0.47015319  0.58699148  0.34930540  1  0.093571  0.001985  0.109425  0.101883  0.000606  1.028737  0.001
H  H18  1  0.41381553  0.76273589  0.88370096  1  0.083458  0.00198  0.109671  0.101891  0.000605  1.028556  0.001
H  H19  1  0.12128756  0.23802122  0.65157289  1  0.105563  0.001958  0.109511  0.102317  0.000603  1.027608  0.001
H  H20  1  0.87901118  0.52889205  0.11664131  1  0.069675  0.002025  0.10988  0.105053  0.0006  1.023704  0.001
H  H21  1  0.58512884  0.46928395  0.34807321  1  0.080639  0.002001  0.109361  0.100837  0.000615  1.03134  0.001
H  H22  1  0.76251426  0.88372775  0.41344182  1  0.083433  0.001977  0.109577  0.102246  0.000604  1.028896  0.001
H  H23  1  0.23793568  0.65056728  0.12062771  1  0.102443  0.001964  0.109957  0.10373  0.000602  1.025903  0.001
H  H24  1  0.53141760  0.11561994  0.87858259  1  0.097112  0.00201  0.109371  0.100802  0.000612  1.03012  0.001
H  H25  1  0.46883304  0.34734367  0.58528709  1  0.08439  0.001989  0.109329  0.101784  0.000611  1.029847  0.001
H  H26  1  0.88394002  0.41596546  0.76266726  1  0.079915  0.002017  0.110167  0.102283  0.000615  1.027915  0.001
H  H27  1  0.65135206  0.12133194  0.23759239  1  0.057451  0.002008  0.109192  0.101456  0.000613  1.029582  0.001
H  H28  1  0.11649802  0.87899693  0.52961701  1  0.074562  0.002004  0.109859  0.102809  0.000596  1.026139  0.001
H  H29  1  0.34743547  0.58500537  0.46874424  1  0.082846  0.001996  0.10939  0.101397  0.000613  1.029373  0.001
H  H30  1  0.91457138  0.43561045  0.26479596  1  0.072998  0.002523  0.097997  0.14198  0.001129  1.020322  0.0
H  H31  1  0.04333136  0.49128964  0.38691264  1  0.050112  0.000725  0.099625  0.152038  7.9e-05  0.988672  0.0
H  H32  1  0.04467643  0.50732809  0.27282634  1  0.042697  0.000883  0.094795  0.134722  0.000355  1.013  0.0
H  H33  1  0.85129555  0.48380743  0.56559436  1  0.05567  0.002236  0.098166  0.144846  0.00088  1.019587  0.0
H  H34  1  0.75550735  0.52324990  0.50365200  1  0.025841  0.000371  0.093282  0.131491  5.9e-05  1.011148  0.0
H  H35  1  0.88000130  0.56074217  0.49666555  1  0.074584  0.00126  0.098779  0.149541  0.000383  1.003945  0.0
H  H36  1  0.93040209  0.31064918  0.43774360  1  0.07098  0.001503  0.099244  0.149273  0.000505  1.008709  0.0
H  H37  1  0.98969442  0.23518372  0.48211058  1  0.039724  0.000298  0.093434  0.132362  3e-06  1.008758  0.0
H  H38  1  0.07891318  0.37188368  0.51418573  1  0.059289  0.002055  0.098012  0.144393  0.000802  1.020609  0.0
H  H39  1  0.13418472  0.62365743  0.69826516  1  0.068175  0.001743  0.098777  0.148119  0.000631  1.012203  0.0
H  H40  1  0.13388728  0.69812683  0.62324002  1  0.055301  0.001753  0.098511  0.146061  0.000639  1.015681  0.0
H  H41  1  0.24713151  0.76016655  0.75973906  1  0.035839  0.000285  0.093084  0.131532  -9e-06  1.008336  0.0
H  H42  1  0.25180124  0.01977473  0.49670013  1  0.029407  0.000375  0.093388  0.131441  6e-05  1.010952  0.0
H  H43  1  0.28556839  0.91840517  0.43453017  1  0.072528  0.002198  0.098248  0.144683  0.000889  1.019097  0.0
H  H44  1  0.38324123  0.06422007  0.50356024  1  0.071479  0.001254  0.098805  0.149183  0.000381  1.004236  0.0
H  H45  1  0.50767997  0.75335688  0.51810268  1  0.042847  0.000293  0.093133  0.131904  4e-06  1.008787  0.0
H  H46  1  0.49262691  0.87309108  0.56235417  1  0.078571  0.001477  0.099008  0.148913  0.000496  1.00949  0.0
H  H47  1  0.56480858  0.85793921  0.48599096  1  0.058996  0.002071  0.098059  0.144708  0.000804  1.020287  0.0
H  H48  1  0.51065529  0.07481092  0.37678347  1  0.059321  0.001787  0.098555  0.146183  0.00064  1.015724  0.0
H  H49  1  0.43597937  0.92535680  0.30176970  1  0.058516  0.001785  0.098774  0.148122  0.000641  1.011567  0.0
H  H50  1  0.48741742  0.00043765  0.24025711  1  0.030879  0.000301  0.093182  0.131711  -5e-06  1.00814  0.0
H  H51  1  0.65651780  0.10437199  0.61318073  1  0.073329  0.000695  0.099562  0.152048  7.5e-05  0.98879  0.0
H  H52  1  0.64985212  0.17080901  0.73528223  1  0.059178  0.002519  0.097868  0.141732  0.001119  1.021324  0.0
H  H53  1  0.77189277  0.23447741  0.72718211  1  0.044609  0.00086  0.094808  0.134776  0.00035  1.012959  0.0
H  H54  1  0.44445623  0.33516727  0.94878899  1  0.049294  0.00084  0.098537  0.149257  0.00016  0.998381  0.0
H  H55  1  0.51980945  0.35667130  0.08504442  1  0.044703  0.002517  0.097996  0.143223  0.001069  1.020419  0.0
H  H56  1  0.46729757  0.22850145  0.96353742  1  0.062302  0.000625  0.094264  0.134015  0.000226  1.011592  0.0
H  H57  1  0.56335863  0.49173960  0.87081680  1  0.056276  0.001606  0.098544  0.147611  0.00054  1.010994  0.0
H  H58  1  0.48746811  0.56485562  0.86097423  1  0.08359  0.001925  0.098533  0.146608  0.000726  1.01531  0.0
H  H59  1  0.51628454  0.50942354  0.75302223  1  0.051205  0.000293  0.093241  0.131731  -1e-06  1.008609  0.0
H  H60  1  0.23117020  0.47534333  0.97753726  1  0.060988  0.000381  0.093597  0.132057  7.7e-05  1.009849  0.0
H  H61  1  0.36569012  0.51726426  0.08264213  1  0.088609  0.002254  0.098561  0.145162  0.00093  1.018441  0.0
H  H62  1  0.32178188  0.44038243  0.93795146  1  0.035239  0.001194  0.098067  0.146622  0.000344  1.008362  0.0
H  H63  1  0.62620820  0.70364501  0.13902228  1  0.054286  0.001981  0.098614  0.146506  0.000745  1.015105  0.0
H  H64  1  0.69219656  0.62060662  0.12919480  1  0.063352  0.001577  0.098224  0.147545  0.00056  1.010836  0.0
H  H65  1  0.76308415  0.75621206  0.24683295  1  0.045402  0.000307  0.093153  0.130646  7e-06  1.009376  0.0
C  C66  1  0.94258972  0.73315636  0.41381457  1  0.280981  0.010376  -0.028296  -0.071476  0.006198  4.081616  0.008
C  C67  1  0.67906992  0.26671461  0.20915036  1  0.388626  0.010273  -0.027149  -0.067317  0.006222  4.076485  0.008
C  C68  1  0.05766794  0.47198812  0.79084654  1  0.425472  0.010229  -0.027666  -0.070101  0.006291  4.081811  0.008
C  C69  1  0.31997841  0.52938210  0.58683061  1  0.267785  0.010648  -0.027854  -0.0691  0.006288  4.079869  0.008
C  C70  1  0.41368150  0.94203224  0.73278671  1  0.416711  0.010462  -0.027504  -0.067957  0.006407  4.079177  0.008
C  C71  1  0.20937348  0.68023149  0.26618615  1  0.29838  0.010252  -0.027469  -0.071075  0.006102  4.086365  0.008
C  C72  1  0.79064453  0.05759769  0.47139716  1  0.413005  0.010354  -0.02744  -0.068381  0.006356  4.079124  0.008
C  C73  1  0.58680533  0.32012593  0.52938990  1  0.293994  0.010506  -0.026014  -0.065435  0.006211  4.07621  0.008
C  C74  1  0.73345028  0.41228825  0.94260408  1  0.289022  0.010329  -0.026904  -0.066127  0.006131  4.076901  0.008
C  C75  1  0.26687540  0.20965722  0.68107609  1  0.277163  0.010633  -0.027941  -0.070216  0.006308  4.083081  0.008
C  C76  1  0.47071498  0.79085619  0.05756639  1  0.408368  0.010147  -0.02797  -0.070234  0.006236  4.079467  0.008
C  C77  1  0.52932259  0.58710847  0.32031194  1  0.38808  0.010502  -0.027435  -0.067556  0.006357  4.07732  0.008
C  C78  1  0.41318793  0.73347732  0.94259238  1  0.264447  0.010588  -0.02658  -0.066897  0.006271  4.078324  0.008
C  C79  1  0.20943452  0.26713964  0.68051365  1  0.368833  0.010427  -0.027618  -0.067327  0.006301  4.0776  0.008
C  C80  1  0.79082160  0.46988784  0.05762581  1  0.445113  0.009851  -0.028378  -0.071772  0.006067  4.078192  0.008
C  C81  1  0.58625650  0.52912916  0.31984454  1  0.283651  0.010587  -0.027359  -0.069832  0.006313  4.083365  0.008
C  C82  1  0.73328201  0.94265944  0.41329715  1  0.279215  0.010646  -0.027565  -0.068981  0.006317  4.078374  0.008
C  C83  1  0.26698124  0.67966766  0.20882807  1  0.378863  0.010485  -0.027298  -0.067662  0.006362  4.075823  0.008
C  C84  1  0.47142193  0.05696360  0.79048655  1  0.276091  0.010318  -0.027567  -0.070476  0.006142  4.085775  0.008
C  C85  1  0.52872103  0.31926210  0.58629144  1  0.379158  0.010125  -0.028621  -0.071275  0.006163  4.080747  0.008
C  C86  1  0.94272248  0.41454194  0.73344775  1  0.281204  0.010388  -0.027734  -0.071292  0.006165  4.084398  0.008
C  C87  1  0.67979548  0.20940271  0.26680511  1  0.284575  0.010618  -0.028027  -0.069179  0.006317  4.080094  0.008
C  C88  1  0.05752344  0.79078155  0.47060689  1  0.430319  0.010129  -0.026204  -0.065299  0.006209  4.076363  0.008
C  C89  1  0.31926090  0.58615916  0.52864488  1  0.399952  0.010412  -0.027529  -0.068455  0.006357  4.080021  0.008
C  C90  1  0.00003443  0.61311132  0.36917173  1  0.960744  0.010947  0.19368  0.370907  0.00726  3.987871  0.009
C  C91  1  0.00043354  0.50618343  0.32056042  1  -0.053456  0.004795  -0.233208  -0.467864  0.002769  3.96  0.003
C  C92  1  0.75694142  0.38719609  0.38712782  1  0.932795  0.011414  0.194882  0.376258  0.007512  3.97879  0.009
C  C93  1  0.81386818  0.49426723  0.49394883  1  -0.028001  0.004573  -0.234245  -0.467722  0.002773  3.954939  0.002
C  C94  1  0.00002052  0.36976789  0.61321799  1  0.961673  0.011242  0.194651  0.375247  0.007437  3.978972  0.009
C  C95  1  0.99982377  0.31916688  0.50621193  1  -0.056765  0.004461  -0.234494  -0.469922  0.002762  3.955717  0.002
C  C96  1  0.24284333  0.63008479  0.62987841  1  0.949445  0.01151  0.194041  0.371893  0.007571  3.985339  0.009
C  C97  1  0.18656834  0.68067088  0.68043938  1  -0.046035  0.00436  -0.234676  -0.468759  0.002744  3.954458  0.002
C  C98  1  0.36988898  0.99998487  0.61295380  1  0.959873  0.011396  0.195421  0.376364  0.007522  3.978891  0.009
C  C99  1  0.31980955  0.00043969  0.50625143  1  -0.06059  0.004598  -0.234106  -0.466708  0.002769  3.954191  0.002
C  C100  1  0.38691755  0.75659620  0.38682396  1  0.92436  0.011313  0.194645  0.375594  0.007455  3.979538  0.009
C  C101  1  0.49365665  0.81319326  0.49392245  1  -0.040232  0.004474  -0.234385  -0.469776  0.002768  3.955756  0.002
C  C102  1  0.61300774  0.00020925  0.37012676  1  0.957506  0.011651  0.194255  0.372087  0.007658  3.985059  0.009
C  C103  1  0.50615374  0.00018813  0.31957061  1  -0.036844  0.004335  -0.234652  -0.468988  0.002759  3.954337  0.002
C  C104  1  0.63085139  0.24387815  0.63083396  1  0.94977  0.010802  0.193542  0.37025  0.007159  3.988983  0.009
C  C105  1  0.67994713  0.18560326  0.67948242  1  -0.063582  0.004812  -0.233398  -0.46792  0.002755  3.960681  0.003
C  C106  1  0.61296152  0.36912444  0.99994767  1  0.956718  0.010746  0.193604  0.371915  0.007161  3.986582  0.009
C  C107  1  0.50567146  0.31974654  0.99955040  1  -0.044751  0.004762  -0.233668  -0.467638  0.002779  3.958551  0.003
C  C108  1  0.38723761  0.38718209  0.75717828  1  0.928431  0.011462  0.193735  0.370103  0.007526  3.988905  0.009
C  C109  1  0.49416630  0.49393098  0.81342084  1  -0.063627  0.004418  -0.234054  -0.468011  0.002739  3.955362  0.002
C  C110  1  0.36946181  0.61313935  0.99998608  1  0.963264  0.011094  0.194566  0.373394  0.00735  3.982224  0.009
C  C111  1  0.31942206  0.50606421  0.99974480  1  -0.072833  0.004594  -0.233755  -0.466176  0.002761  3.955169  0.002
C  C112  1  0.63006956  0.63008438  0.24313314  1  0.953777  0.011755  0.195958  0.379091  0.007688  3.974938  0.009
C  C113  1  0.68052666  0.68033056  0.18659802  1  -0.052186  0.004465  -0.233674  -0.466082  0.002779  3.951752  0.002
N  N114  1  0.90657830  0.62110514  0.34958169  1  -1.242688  0.094865  -0.385406  -0.368089  0.04804  3.625078  0.059
N  N115  1  0.72754481  0.37880966  0.28528691  1  -1.238069  0.095704  -0.386587  -0.370559  0.04832  3.624366  0.06
N  N116  1  0.09355440  0.44323415  0.71479720  1  -1.256332  0.09451  -0.385512  -0.369031  0.047816  3.624656  0.059
N  N117  1  0.27190529  0.55747398  0.65081566  1  -1.222258  0.095334  -0.386387  -0.371048  0.048253  3.626585  0.06
N  N118  1  0.34942231  0.90634045  0.62080560  1  -1.244564  0.095086  -0.385084  -0.36999  0.04806  3.624472  0.059
N  N119  1  0.28523586  0.72841885  0.37840683  1  -1.231469  0.094658  -0.386661  -0.371079  0.047884  3.627493  0.059
N  N120  1  0.71460063  0.09363227  0.44367989  1  -1.253488  0.095667  -0.385364  -0.366688  0.048409  3.621177  0.059
N  N121  1  0.65135027  0.27273143  0.55789077  1  -1.233522  0.095019  -0.387153  -0.372512  0.048053  3.628272  0.059
N  N122  1  0.62131303  0.34860140  0.90649995  1  -1.244427  0.094778  -0.386996  -0.373548  0.047933  3.628878  0.059
N  N123  1  0.37896849  0.28554972  0.72915717  1  -1.217032  0.095083  -0.385713  -0.368387  0.048123  3.623098  0.059
N  N124  1  0.44266594  0.71469868  0.09350006  1  -1.255355  0.095152  -0.38574  -0.36894  0.048156  3.62688  0.06
N  N125  1  0.55743996  0.65099081  0.27213288  1  -1.230153  0.095346  -0.38609  -0.370139  0.048225  3.624596  0.06
N  N126  1  0.34913042  0.62142767  0.90653392  1  -1.24359  0.095252  -0.386577  -0.369584  0.048103  3.625183  0.059
N  N127  1  0.28560110  0.37911462  0.72838714  1  -1.218109  0.095331  -0.386173  -0.371039  0.048242  3.626288  0.059
N  N128  1  0.71452599  0.44223581  0.09351333  1  -1.251539  0.094605  -0.385438  -0.371483  0.047942  3.630988  0.06
N  N129  1  0.65011543  0.55681435  0.27152894  1  -1.236631  0.095104  -0.386374  -0.368377  0.048103  3.622222  0.059
N  N130  1  0.62123297  0.90673310  0.34928768  1  -1.239922  0.095299  -0.386679  -0.370512  0.048183  3.62729  0.059
N  N131  1  0.37894257  0.72769084  0.28517833  1  -1.240929  0.095115  -0.385457  -0.369864  0.048029  3.62763  0.059
N  N132  1  0.44323795  0.09326180  0.71470660  1  -1.24949  0.094959  -0.386929  -0.369779  0.048056  3.622368  0.059
N  N133  1  0.55700157  0.27143136  0.65051675  1  -1.21857  0.094895  -0.384731  -0.368401  0.048124  3.625034  0.059
N  N134  1  0.90663759  0.34980039  0.62145995  1  -1.241207  0.094404  -0.386078  -0.369825  0.047715  3.626191  0.059
N  N135  1  0.72866294  0.28562832  0.37906357  1  -1.217328  0.095309  -0.385534  -0.370672  0.048245  3.624639  0.06
N  N136  1  0.09347977  0.71482724  0.44203840  1  -1.256112  0.095184  -0.387226  -0.372575  0.048124  3.627986  0.059
N  N137  1  0.27089093  0.64989664  0.55625475  1  -1.233907  0.095544  -0.385157  -0.366711  0.048361  3.620414  0.059
