# generated using pymatgen
data_NaH10C9SN2O5F3
_symmetry_space_group_name_H-M   'P 1'
_cell_length_a   4.89246625
_cell_length_b   6.32578542
_cell_length_c   40.45600000
_cell_angle_alpha   90.00000000
_cell_angle_beta   90.00000000
_cell_angle_gamma   90.00000000
_symmetry_Int_Tables_number   1
_chemical_formula_structural   NaH10C9SN2O5F3
_chemical_formula_sum   'Na4 H40 C36 S4 N8 O20 F12'
_cell_volume   1252.06027040
_cell_formula_units_Z   4
loop_
 _symmetry_equiv_pos_site_id
 _symmetry_equiv_pos_as_xyz
  1  'x, y, z'
loop_
 _atom_site_type_symbol
 _atom_site_label
 _atom_site_symmetry_multiplicity
 _atom_site_fract_x
 _atom_site_fract_y
 _atom_site_fract_z
 _atom_site_occupancy
 _atom_site_hle17_bader_spin_density
 _atom_site_hle17_ddec_charge
 _atom_site_hle17_ddec_spin_density
 _atom_site_hle17_ddec_sum_bond_order
 _atom_site_hle17_magmom
 _atom_site_hse06_10hf_bader_spin_density
 _atom_site_hse06_10hf_ddec_charge
 _atom_site_hse06_10hf_ddec_spin_density
 _atom_site_hse06_10hf_ddec_sum_bond_order
 _atom_site_hse06_10hf_magmom
 _atom_site_hse06_bader_spin_density
 _atom_site_hse06_ddec_charge
 _atom_site_hse06_ddec_spin_density
 _atom_site_hse06_ddec_sum_bond_order
 _atom_site_hse06_magmom
 _atom_site_pbe_bader_charge
 _atom_site_pbe_bader_spin_density
 _atom_site_pbe_cm5_charge
 _atom_site_pbe_ddec_charge
 _atom_site_pbe_ddec_spin_density
 _atom_site_pbe_ddec_sum_bond_order
 _atom_site_pbe_magmom
Na  Na0  1  0.68307880  0.49029169  0.48838269  1  0  0.906443  0  0.385665  0  0  0.868132  0  0.534053  0  0  0.877  0  0.513782  0  0.885942  0  0.709211  0.861515  0  0.548687  0
Na  Na1  1  0.81692541  0.50971220  0.98838343  1  0  0.90642  0  0.385705  0  0  0.86814  0  0.534055  0  0  0.876996  0  0.513788  0  0.885938  0  0.709223  0.861522  0  0.548691  0
Na  Na2  1  0.31692401  0.99028968  0.01161657  1  0  0.906435  0  0.38569  0  0  0.868156  0  0.534035  0  0  0.877007  0  0.513766  0  0.885941  0  0.709228  0.861538  0  0.54867  0
Na  Na3  1  0.18307536  0.00971105  0.51161756  1  0  0.906433  0  0.385699  0  0  0.86813  0  0.53407  0  0  0.877  0  0.513793  0  0.885932  0  0.709222  0.861511  0  0.548704  0
H  H4  1  0.15968838  0.64709435  0.45546569  1  0  0.420586  0  0.875345  0  0  0.393187  0  0.934885  0  0  0.402496  0  0.921061  0  0.626508  0  0.297497  0.386555  0  0.944741  0
H  H5  1  0.34031098  0.35290954  0.95546619  1  0  0.420599  0  0.875341  0  0  0.393195  0  0.93489  0  0  0.402503  0  0.921067  0  0.626508  0  0.29749  0.386562  0  0.944747  0
H  H6  1  0.84031239  0.14709004  0.04453381  1  0  0.420604  0  0.875332  0  0  0.393201  0  0.934879  0  0  0.402508  0  0.921058  0  0.626517  0  0.297501  0.386569  0  0.944736  0
H  H7  1  0.65969183  0.85290753  0.54453431  1  0  0.42057  0  0.875369  0  0  0.393172  0  0.934909  0  0  0.402482  0  0.921084  0  0.626525  0  0.297493  0.38654  0  0.944766  0
H  H8  1  0.14323246  0.40971829  0.44507168  1  0  0.431935  0  0.846276  0  0  0.406979  0  0.90482  0  0  0.415702  0  0.891865  0  0.621356  0  0.30471  0.400758  0  0.914085  0
H  H9  1  0.35676894  0.59028401  0.94507218  1  0  0.431926  0  0.846307  0  0  0.406963  0  0.904853  0  0  0.415686  0  0.891897  0  0.621373  0  0.304688  0.40074  0  0.914122  0
H  H10  1  0.85677035  0.90971312  0.05492733  1  0  0.431914  0  0.846301  0  0  0.406955  0  0.904854  0  0  0.415678  0  0.8919  0  0.621364  0  0.304691  0.400733  0  0.914122  0
H  H11  1  0.64323591  0.09028286  0.55492832  1  0  0.431896  0  0.846324  0  0  0.406939  0  0.904878  0  0  0.415662  0  0.891921  0  0.621339  0  0.304694  0.400715  0  0.914146  0
H  H12  1  0.86162884  0.15684535  0.39289722  1  0  0.316496  0  0.914499  0  0  0.298173  0  0.978412  0  0  0.306275  0  0.971587  0  0.514578  0  0.313443  0.292479  0  0.983189  0
H  H13  1  0.63837129  0.84315854  0.89289648  1  0  0.316554  0  0.91437  0  0  0.298138  0  0.978428  0  0  0.30624  0  0.971604  0  0.514583  0  0.313414  0.292443  0  0.983206  0
H  H14  1  0.13837397  0.65684334  0.10710327  1  0  0.316553  0  0.914406  0  0  0.298224  0  0.978312  0  0  0.306326  0  0.97149  0  0.514598  0  0.313467  0.292529  0  0.983097  0
H  H15  1  0.36163356  0.34315739  0.60710253  1  0  0.316465  0  0.914511  0  0  0.298157  0  0.978404  0  0  0.306259  0  0.971579  0  0.514563  0  0.313434  0.292462  0  0.983182  0
H  H16  1  0.78964673  0.38268608  0.35373962  1  0  0.307092  0  0.886042  0  0  0.287618  0  0.953986  0  0  0.294882  0  0.948483  0  0.487233  0  0.31751  0.282479  0  0.958082  0
H  H17  1  0.71035339  0.61731939  0.85373863  1  0  0.307049  0  0.886072  0  0  0.287581  0  0.954028  0  0  0.294842  0  0.948506  0  0.487208  0  0.317493  0.282443  0  0.95812  0
H  H18  1  0.21035608  0.88268091  0.14626088  1  0  0.307054  0  0.886052  0  0  0.287565  0  0.953971  0  0  0.294828  0  0.948496  0  0.487247  0  0.317489  0.282431  0  0.958086  0
H  H19  1  0.28965351  0.11732140  0.64626063  1  0  0.307091  0  0.885996  0  0  0.287555  0  0.953993  0  0  0.294837  0  0.948468  0  0.487277  0  0.317495  0.282416  0  0.958083  0
H  H20  1  0.92909788  0.91875232  0.34823339  1  0  0.093579  0  0.973234  0  0  0.098372  0  1.044046  0  0  0.101509  0  1.042518  0  0.098359  0  0.097685  0.096151  0  1.045072  0
H  H21  1  0.57089816  0.08125473  0.84823487  1  0  0.093549  0  0.973328  0  0  0.098327  0  1.044164  0  0  0.101467  0  1.042627  0  0.098379  0  0.097654  0.096108  0  1.045184  0
H  H22  1  0.07089676  0.41875116  0.15176735  1  0  0.093606  0  0.973307  0  0  0.098403  0  1.044059  0  0  0.101537  0  1.042584  0  0.098396  0  0.097694  0.096183  0  1.045127  0
H  H23  1  0.42910669  0.58125747  0.65176389  1  0  0.093551  0  0.973236  0  0  0.098316  0  1.044095  0  0  0.10146  0  1.042546  0  0.098414  0  0.097639  0.096096  0  1.045116  0
H  H24  1  0.14165248  0.62426398  0.37970239  1  0  0.113599  0  0.964297  0  0  0.119906  0  1.030086  0  0  0.124214  0  1.027138  0  0.102082  0  0.104065  0.116755  0  1.032361  0
H  H25  1  0.35834074  0.37574623  0.87970239  1  0  0.113532  0  0.964347  0  0  0.119839  0  1.030139  0  0  0.124147  0  1.02719  0  0.102078  0  0.104048  0.116688  0  1.032414  0
H  H26  1  0.85834624  0.12426441  0.12029810  1  0  0.113618  0  0.96429  0  0  0.119923  0  1.030059  0  0  0.124233  0  1.027124  0  0.102106  0  0.104084  0.116773  0  1.032348  0
H  H27  1  0.64166820  0.87574580  0.62029662  1  0  0.113526  0  0.964362  0  0  0.119839  0  1.03015  0  0  0.124149  0  1.027197  0  0.102283  0  0.104031  0.116688  0  1.032424  0
H  H28  1  0.68871196  0.80532134  0.40950069  1  0  0.12092  0  0.90692  0  0  0.134941  0  0.962073  0  0  0.136715  0  0.961465  0  0.100717  0  0.124305  0.133601  0  0.962679  0
H  H29  1  0.81129430  0.19468254  0.90949921  1  0  0.120903  0  0.906973  0  0  0.134904  0  0.96209  0  0  0.136674  0  0.961483  0  0.100777  0  0.124287  0.133566  0  0.962695  0
H  H30  1  0.31129494  0.30531861  0.09050054  1  0  0.120933  0  0.906955  0  0  0.134937  0  0.96207  0  0  0.13671  0  0.961465  0  0.100798  0  0.124299  0.133598  0  0.962678  0
H  H31  1  0.18871055  0.69468212  0.59050005  1  0  0.120901  0  0.907019  0  0  0.134896  0  0.962142  0  0  0.136666  0  0.961535  0  0.100761  0  0.124281  0.133555  0  0.962747  0
H  H32  1  0.35135654  0.91909061  0.40978594  1  0  0.121859  0  0.934453  0  0  0.13211  0  0.996421  0  0  0.134651  0  0.995003  0  0.134535  0  0.126073  0.130223  0  0.997595  0
H  H33  1  0.14864487  0.08090853  0.90978594  1  0  0.121894  0  0.934477  0  0  0.132116  0  0.996428  0  0  0.134652  0  0.995011  0  0.134532  0  0.126068  0.130229  0  0.997604  0
H  H34  1  0.64864627  0.41909262  0.09021357  1  0  0.121891  0  0.934524  0  0  0.132122  0  0.996459  0  0  0.134659  0  0.995047  0  0.134523  0  0.126068  0.130235  0  0.997636  0
H  H35  1  0.85135999  0.58090968  0.59021357  1  0  0.121916  0  0.934472  0  0  0.132142  0  0.996393  0  0  0.134678  0  0.994978  0  0.134566  0  0.126085  0.130255  0  0.997568  0
H  H36  1  0.73491360  0.54590691  0.30176834  1  0  0.114618  0  0.952184  0  0  0.119034  0  1.019024  0  0  0.123238  0  1.016291  0  0.096117  0  0.100119  0.116214  0  1.020864  0
H  H37  1  0.76508448  0.45408749  0.80176760  1  0  0.114647  0  0.952206  0  0  0.118993  0  1.019133  0  0  0.123195  0  1.0164  0  0.096234  0  0.100098  0.116168  0  1.020971  0
H  H38  1  0.26508716  0.04590260  0.19823215  1  0  0.114612  0  0.952209  0  0  0.118949  0  1.019283  0  0  0.123212  0  1.016343  0  0.096087  0  0.100126  0.116194  0  1.020911  0
H  H39  1  0.23491629  0.95409022  0.69823215  1  0  0.114573  0  0.952202  0  0  0.118978  0  1.019073  0  0  0.123183  0  1.016338  0  0.09593  0  0.100093  0.116153  0  1.020911  0
H  H40  1  0.52468221  0.83967439  0.27076849  1  0  0.107214  0  0.948372  0  0  0.109843  0  1.020097  0  0  0.114462  0  1.0152  0  0.111043  0  0.098416  0.106839  0  1.023152  0
H  H41  1  0.97531792  0.16031053  0.77076948  1  0  0.107227  0  0.948394  0  0  0.110136  0  1.019753  0  0  0.11447  0  1.015214  0  0.111068  0  0.098429  0.106844  0  1.023165  0
H  H42  1  0.47532060  0.33966849  0.22923250  1  0  0.107092  0  0.94852  0  0  0.109971  0  1.019985  0  0  0.114376  0  1.015292  0  0.110911  0  0.098399  0.106752  0  1.023245  0
H  H43  1  0.02467672  0.66031800  0.72923052  1  0  0.107258  0  0.948411  0  0  0.110174  0  1.019757  0  0  0.114512  0  1.015218  0  0.110988  0  0.098453  0.106883  0  1.023169  0
C  C44  1  0.47174980  0.25891330  0.38040142  1  0  0.734176  0  3.86532  0  0  0.664694  0  4.170037  0  0  0.699463  0  4.164979  0  1.829888  0  0.337883  0.641074  0  4.172747  0
C  C45  1  0.02825569  0.74108742  0.88040118  1  0  0.734138  0  3.86537  0  0  0.664717  0  4.169992  0  0  0.699472  0  4.164936  0  1.829862  0  0.33794  0.641096  0  4.172704  0
C  C46  1  0.52825505  0.75891288  0.11959882  1  0  0.734134  0  3.865152  0  0  0.664648  0  4.169853  0  0  0.69942  0  4.1648  0  1.829907  0  0.337831  0.641036  0  4.172575  0
C  C47  1  0.97175121  0.24108943  0.61959808  1  0  0.734124  0  3.865341  0  0  0.664658  0  4.169996  0  0  0.699446  0  4.164935  0  1.829857  0  0.337889  0.641038  0  4.172708  0
C  C48  1  0.10564815  0.83672930  0.33812834  1  0  -0.039651  0  3.779028  0  0  -0.067299  0  4.033727  0  0  -0.065252  0  4.054698  0  0.038382  0  -0.091481  -0.06848  0  4.019351  0
C  C49  1  0.39434917  0.16327301  0.83812982  1  0  -0.039675  0  3.779228  0  0  -0.06732  0  4.033955  0  0  -0.065261  0  4.054896  0  0.038335  0  -0.091506  -0.068502  0  4.019558  0
C  C50  1  0.89435057  0.33673289  0.16187216  1  0  -0.039705  0  3.778907  0  0  -0.06737  0  4.033554  0  0  -0.065313  0  4.054557  0  0.038302  0  -0.091497  -0.068536  0  4.019209  0
C  C51  1  0.60565773  0.66327416  0.66186969  1  0  -0.039653  0  3.779264  0  0  -0.067284  0  4.033997  0  0  -0.065222  0  4.054939  0  0.038364  0  -0.091475  -0.068466  0  4.019601  0
C  C52  1  0.45421468  0.56765599  0.34291304  1  0  0.279315  0  3.787729  0  0  0.269065  0  4.038586  0  0  0.279088  0  4.058317  0  0.391262  0  0.099904  0.262101  0  4.025645  0
C  C53  1  0.04578264  0.43234631  0.84291279  1  0  0.279305  0  3.787601  0  0  0.269044  0  4.038488  0  0  0.279051  0  4.058203  0  0.391337  0  0.099857  0.262057  0  4.02557  0
C  C54  1  0.54578404  0.06765484  0.15708721  1  0  0.279256  0  3.787774  0  0  0.268891  0  4.038963  0  0  0.279032  0  4.058347  0  0.391256  0  0.099894  0.262053  0  4.025674  0
C  C55  1  0.95422017  0.93234588  0.65708671  1  0  0.279305  0  3.787595  0  0  0.269012  0  4.038471  0  0  0.279053  0  4.058194  0  0.39133  0  0.099872  0.262051  0  4.025515  0
C  C56  1  0.21476694  0.89944720  0.30778451  1  0  -0.156461  0  3.831288  0  0  -0.143665  0  4.080346  0  0  -0.152368  0  4.103025  0  0.013024  0  -0.045704  -0.137824  0  4.065252  0
C  C57  1  0.28523038  0.10054878  0.80778648  1  0  -0.156594  0  3.83131  0  0  -0.143819  0  4.080522  0  0  -0.152561  0  4.103139  0  0.013191  0  -0.045703  -0.137983  0  4.065365  0
C  C58  1  0.78522974  0.39944289  0.19221673  1  0  -0.156587  0  3.83148  0  0  -0.144115  0  4.081275  0  0  -0.152436  0  4.103214  0  0.013171  0  -0.045778  -0.137906  0  4.065472  0
C  C59  1  0.71476221  0.60055309  0.69221302  1  0  -0.156375  0  3.831173  0  0  -0.143613  0  4.080382  0  0  -0.152348  0  4.102989  0  0.013115  0  -0.045642  -0.137776  0  4.065224  0
C  C60  1  0.22354370  0.67098703  0.35576379  1  0  -0.180834  0  3.712762  0  0  -0.197677  0  3.967012  0  0  -0.203962  0  3.98623  0  -0.120313  0  -0.10279  -0.19363  0  3.954344  0
C  C61  1  0.27645362  0.32901527  0.85576429  1  0  -0.180749  0  3.712845  0  0  -0.197592  0  3.967108  0  0  -0.203874  0  3.986316  0  -0.12033  0  -0.102773  -0.19354  0  3.95444  0
C  C62  1  0.77645707  0.17098746  0.14423645  1  0  -0.180806  0  3.712682  0  0  -0.197663  0  3.966915  0  0  -0.203933  0  3.98616  0  -0.120303  0  -0.102785  -0.193602  0  3.954272  0
C  C63  1  0.72354715  0.82901642  0.64423497  1  0  -0.180838  0  3.712948  0  0  -0.197694  0  3.967214  0  0  -0.203975  0  3.986415  0  -0.120603  0  -0.102807  -0.193649  0  3.954538  0
C  C64  1  0.56874996  0.94951055  0.41401350  1  0  -0.129561  0  3.660263  0  0  -0.186543  0  3.922534  0  0  -0.185642  0  3.929459  0  0.2461  0  -0.047322  -0.187144  0  3.917906  0
C  C65  1  0.93124812  0.05049333  0.91401300  1  0  -0.129769  0  3.660611  0  0  -0.18658  0  3.922621  0  0  -0.185662  0  3.92953  0  0.246033  0  -0.047319  -0.187187  0  3.917999  0
C  C66  1  0.43125080  0.44950782  0.08598675  1  0  -0.129751  0  3.6606  0  0  -0.186587  0  3.922615  0  0  -0.185677  0  3.929545  0  0.246083  0  -0.047299  -0.187189  0  3.918001  0
C  C67  1  0.06875469  0.55049449  0.58598626  1  0  -0.129861  0  3.66063  0  0  -0.186656  0  3.922624  0  0  -0.185743  0  3.929538  0  0.245965  0  -0.047335  -0.187259  0  3.918003  0
C  C68  1  0.55987714  0.62901754  0.31207312  1  0  -0.159899  0  3.716931  0  0  -0.179709  0  3.978778  0  0  -0.185604  0  3.997988  0  0.029193  0  -0.097079  -0.176011  0  3.966039  0
C  C69  1  0.94012503  0.37097528  0.81207287  1  0  -0.159949  0  3.717164  0  0  -0.179676  0  3.97899  0  0  -0.1856  0  3.998217  0  0.028908  0  -0.097026  -0.175976  0  3.966223  0
C  C70  1  0.44012567  0.12901639  0.18792787  1  0  -0.159866  0  3.717076  0  0  -0.179961  0  3.97951  0  0  -0.185563  0  3.998156  0  0.029208  0  -0.09707  -0.175967  0  3.966187  0
C  C71  1  0.05987573  0.87097643  0.68792713  1  0  -0.15969  0  3.717004  0  0  -0.17948  0  3.978847  0  0  -0.185398  0  3.998055  0  0.029335  0  -0.096955  -0.175791  0  3.966073  0
C  C72  1  0.44109860  0.79355205  0.29463689  1  0  -0.031188  0  3.743415  0  0  -0.066645  0  4.011103  0  0  -0.063076  0  4.02738  0  -0.082826  0  -0.08893  -0.068658  0  3.999583  0
C  C73  1  0.05889668  0.20644235  0.79463813  1  0  -0.031074  0  3.743591  0  0  -0.066443  0  4.010934  0  0  -0.062959  0  4.027536  0  -0.082794  0  -0.088908  -0.068541  0  3.999727  0
C  C74  1  0.55889808  0.29354616  0.20536311  1  0  -0.03103  0  3.743805  0  0  -0.066619  0  4.011723  0  0  -0.062922  0  4.027711  0  -0.082777  0  -0.088904  -0.068499  0  3.999913  0
C  C75  1  0.94110000  0.70644508  0.70536163  1  0  -0.0313  0  3.743635  0  0  -0.066685  0  4.011038  0  0  -0.063204  0  4.027639  0  -0.082725  0  -0.088985  -0.068787  0  3.99984  0
C  C76  1  0.10072221  0.08217003  0.28899422  1  0  0.787635  0  3.629006  0  0  0.707055  0  3.972633  0  0  0.740138  0  3.944799  0  1.626086  0  0.300975  0.683667  0  3.992532  0
C  C77  1  0.39927715  0.91781804  0.78899768  1  0  0.787974  0  3.628702  0  0  0.707268  0  3.972566  0  0  0.74042  0  3.944564  0  1.626269  0  0.300951  0.683872  0  3.992401  0
C  C78  1  0.89927651  0.58216802  0.21100653  1  0  0.78758  0  3.629227  0  0  0.706159  0  3.974542  0  0  0.739956  0  3.945247  0  1.626059  0  0.300918  0.683487  0  3.992993  0
C  C79  1  0.60070726  0.41782796  0.71100257  1  0  0.787906  0  3.62883  0  0  0.707172  0  3.972744  0  0  0.740348  0  3.944713  0  1.626279  0  0.300863  0.683774  0  3.992583  0
S  S80  1  0.60471955  0.99851790  0.45785891  1  0  1.320438  0  5.621725  0  0  1.235553  0  6.143036  0  0  1.28016  0  6.120194  0  3.131181  0  0.488021  1.204659  0  6.158017  0
S  S81  1  0.89526831  0.00148756  0.95785792  1  0  1.320801  0  5.621719  0  0  1.235864  0  6.143007  0  0  1.280463  0  6.120167  0  3.130691  0  0.488192  1.204974  0  6.157996  0
S  S82  1  0.39526895  0.49851359  0.04214159  1  0  1.320861  0  5.621661  0  0  1.235933  0  6.142941  0  0  1.280534  0  6.120103  0  3.130708  0  0.488224  1.20504  0  6.157932  0
S  S83  1  0.10473450  0.50148713  0.54214109  1  0  1.321038  0  5.621589  0  0  1.236099  0  6.142847  0  0  1.280705  0  6.119998  0  3.130785  0  0.488247  1.205207  0  6.157839  0
N  N84  1  0.65697336  0.12162600  0.39391784  1  0  -0.455593  0  3.322335  0  0  -0.398584  0  3.575519  0  0  -0.419167  0  3.581811  0  -1.257974  0  -0.430997  -0.384332  0  3.57077  0
N  N85  1  0.84302677  0.87837788  0.89391685  1  0  -0.455497  0  3.322229  0  0  -0.398486  0  3.575373  0  0  -0.419077  0  3.581669  0  -1.257875  0  -0.430949  -0.384235  0  3.570627  0
N  N86  1  0.34303149  0.62162399  0.10608290  1  0  -0.455619  0  3.322321  0  0  -0.398612  0  3.57541  0  0  -0.4192  0  3.581711  0  -1.257937  0  -0.431014  -0.384362  0  3.570677  0
N  N87  1  0.15697809  0.37837989  0.60608241  1  0  -0.455445  0  3.322281  0  0  -0.398519  0  3.575398  0  0  -0.419103  0  3.581676  0  -1.257931  0  -0.430963  -0.384272  0  3.570656  0
N  N88  1  0.59193663  0.40951120  0.36042145  1  0  -0.49899  0  3.306167  0  0  -0.445873  0  3.555411  0  0  -0.466929  0  3.559667  0  -1.259175  0  -0.409057  -0.431241  0  3.551989  0
N  N89  1  0.90805941  0.59049268  0.86042070  1  0  -0.498963  0  3.306063  0  0  -0.445916  0  3.555335  0  0  -0.466926  0  3.559549  0  -1.259149  0  -0.409051  -0.431277  0  3.551915  0
N  N90  1  0.40806822  0.90950761  0.13957880  1  0  -0.498905  0  3.306121  0  0  -0.44587  0  3.555554  0  0  -0.466858  0  3.559687  0  -1.259183  0  -0.409011  -0.431189  0  3.552019  0
N  N91  1  0.09194545  0.09049311  0.63957855  1  0  -0.499092  0  3.306036  0  0  -0.44586  0  3.555236  0  0  -0.466966  0  3.559523  0  -1.259237  0  -0.409053  -0.431227  0  3.551805  0
O  O92  1  0.45741961  0.19610213  0.46579617  1  0  -0.755962  0  1.96201  0  0  -0.708944  0  2.222836  0  0  -0.727057  0  2.204537  0  -1.359757  0  -0.425324  -0.696158  0  2.235269  0
O  O93  1  0.04256749  0.80390492  0.96579593  1  0  -0.756128  0  1.962069  0  0  -0.709124  0  2.222921  0  0  -0.727233  0  2.204619  0  -1.360145  0  -0.425424  -0.696301  0  2.235263  0
O  O94  1  0.54256685  0.69609538  0.03420358  1  0  -0.756114  0  1.962097  0  0  -0.709105  0  2.222937  0  0  -0.727216  0  2.204636  0  -1.360173  0  -0.425415  -0.696293  0  2.235305  0
O  O95  1  0.95743532  0.30390376  0.53420333  1  0  -0.756194  0  1.962088  0  0  -0.709162  0  2.222919  0  0  -0.727284  0  2.204624  0  -1.360158  0  -0.425403  -0.696332  0  2.235254  0
O  O96  1  0.47196238  0.81170632  0.47319186  1  0  -0.772516  0  1.992262  0  0  -0.720529  0  2.253167  0  0  -0.739533  0  2.235576  0  -1.360949  0  -0.43862  -0.706993  0  2.264891  0
O  O97  1  0.02802676  0.18829915  0.97319087  1  0  -0.772602  0  1.992245  0  0  -0.720621  0  2.253168  0  0  -0.739617  0  2.235574  0  -1.360906  0  -0.438658  -0.707086  0  2.264891  0
O  O98  1  0.52802408  0.31170359  0.02680838  1  0  -0.77266  0  1.992172  0  0  -0.720696  0  2.253126  0  0  -0.739676  0  2.235502  0  -1.360907  0  -0.438718  -0.70717  0  2.264876  0
O  O99  1  0.97197605  0.68829714  0.52680764  1  0  -0.77264  0  1.992098  0  0  -0.720676  0  2.253053  0  0  -0.739667  0  2.235433  0  -1.360934  0  -0.438713  -0.707144  0  2.264787  0
O  O100  1  0.22019569  0.24631408  0.38479830  1  0  -0.622987  0  1.947038  0  0  -0.573269  0  2.177492  0  0  -0.594716  0  2.168242  0  -1.176605  0  -0.308869  -0.558359  0  2.183534  0
O  O101  1  0.27980162  0.75368823  0.88479781  1  0  -0.622983  0  1.947124  0  0  -0.573244  0  2.177529  0  0  -0.59469  0  2.168284  0  -1.176616  0  -0.308917  -0.558335  0  2.183571  0
O  O102  1  0.77980916  0.74631207  0.11520219  1  0  -0.622932  0  1.946849  0  0  -0.573234  0  2.177309  0  0  -0.594672  0  2.168049  0  -1.176671  0  -0.308831  -0.558319  0  2.183344  0
O  O103  1  0.72020119  0.25368866  0.61520170  1  0  -0.622875  0  1.947005  0  0  -0.573211  0  2.177478  0  0  -0.594656  0  2.168217  0  -1.17657  0  -0.308891  -0.558303  0  2.18352  0
O  O104  1  0.89774968  0.01292962  0.46449525  1  0  -0.6992  0  1.964202  0  0  -0.653016  0  2.222329  0  0  -0.67299  0  2.208349  0  -1.340967  0  -0.38819  -0.638993  0  2.231619  0
O  O105  1  0.60224023  0.98707901  0.96449352  1  0  -0.699239  0  1.964216  0  0  -0.65307  0  2.222354  0  0  -0.67304  0  2.208376  0  -1.340208  0  -0.38822  -0.639053  0  2.231639  0
O  O106  1  0.10223882  0.51292445  0.03550598  1  0  -0.699257  0  1.964173  0  0  -0.653097  0  2.22233  0  0  -0.67307  0  2.208353  0  -1.340224  0  -0.388237  -0.639078  0  2.231619  0
O  O107  1  0.39776054  0.48707628  0.53550499  1  0  -0.699335  0  1.96426  0  0  -0.653159  0  2.222401  0  0  -0.673133  0  2.208423  0  -1.340202  0  -0.388233  -0.63914  0  2.231688  0
O  O108  1  0.03292205  0.53777670  0.44752818  1  0  -0.864275  0  1.731963  0  0  -0.826026  0  1.885017  0  0  -0.84108  0  1.855981  0  -1.258349  0  -0.640246  -0.815416  0  1.905547  0
O  O109  1  0.46708140  0.46222561  0.94752991  1  0  -0.864249  0  1.731963  0  0  -0.825997  0  1.885005  0  0  -0.841048  0  1.855968  0  -1.258344  0  -0.640215  -0.81539  0  1.905537  0
O  O110  1  0.96708076  0.03777238  0.05247009  1  0  -0.864246  0  1.731964  0  0  -0.82599  0  1.885012  0  0  -0.841041  0  1.855977  0  -1.258345  0  -0.640228  -0.815382  0  1.905543  0
O  O111  1  0.53292345  0.96222518  0.55247108  1  0  -0.864187  0  1.731999  0  0  -0.825938  0  1.885062  0  0  -0.840993  0  1.856025  0  -1.258329  0  -0.640224  -0.815332  0  1.905594  0
F  F112  1  0.00394280  0.02650738  0.25831867  1  0  -0.271474  0  1.144215  0  0  -0.22786  0  1.307869  0  0  -0.240747  0  1.295452  0  -0.621352  0  -0.107677  -0.22098  0  1.318899  0
F  F113  1  0.49609540  0.97348702  0.75832386  1  0  -0.271489  0  1.144124  0  0  -0.227607  0  1.307662  0  0  -0.240709  0  1.295336  0  -0.621508  0  -0.107591  -0.220964  0  1.318824  0
F  F114  1  0.99604162  0.52650221  0.24168232  1  0  -0.271322  0  1.144259  0  0  -0.227923  0  1.308199  0  0  -0.240691  0  1.295671  0  -0.6214  0  -0.107597  -0.220864  0  1.319058  0
F  F115  1  0.50389515  0.47349219  0.74167639  1  0  -0.271497  0  1.14424  0  0  -0.227591  0  1.307771  0  0  -0.24071  0  1.295451  0  -0.6216  0  -0.107553  -0.220948  0  1.318935  0
F  F116  1  0.29456718  0.23501746  0.28341260  1  0  -0.268354  0  1.167388  0  0  -0.226098  0  1.33666  0  0  -0.23718  0  1.322273  0  -0.613556  0  -0.103382  -0.214658  0  1.342744  0
F  F117  1  0.20542605  0.76498327  0.78341260  1  0  -0.268448  0  1.167377  0  0  -0.226181  0  1.3367  0  0  -0.237282  0  1.322286  0  -0.613556  0  -0.103374  -0.214721  0  1.34276  0
F  F118  1  0.70543972  0.73502177  0.21658666  1  0  -0.26835  0  1.167425  0  0  -0.222415  0  1.33264  0  0  -0.237125  0  1.322356  0  -0.613535  0  -0.103379  -0.214608  0  1.342827  0
F  F119  1  0.79454815  0.26498686  0.71658790  1  0  -0.268416  0  1.167477  0  0  -0.226148  0  1.336805  0  0  -0.237244  0  1.322381  0  -0.61338  0  -0.103324  -0.214681  0  1.34286  0
F  F120  1  0.88857230  0.17937377  0.30505018  1  0  -0.268953  0  1.183716  0  0  -0.223552  0  1.357181  0  0  -0.234661  0  1.342478  0  -0.631763  0  -0.09414  -0.216186  0  1.367773  0
F  F121  1  0.61140330  0.82060640  0.80505685  1  0  -0.269122  0  1.183695  0  0  -0.223564  0  1.357113  0  0  -0.234748  0  1.342427  0  -0.631881  0  -0.0942  -0.216227  0  1.367723  0
F  F122  1  0.11143664  0.67936386  0.19495155  1  0  -0.268966  0  1.183747  0  0  -0.224123  0  1.357838  0  0  -0.234623  0  1.342549  0  -0.631719  0  -0.094146  -0.216179  0  1.367863  0
F  F123  1  0.38858316  0.32061631  0.69494364  1  0  -0.269179  0  1.183677  0  0  -0.223581  0  1.357062  0  0  -0.234813  0  1.342406  0  -0.631937  0  -0.094243  -0.216246  0  1.367674  0
