# generated using pymatgen
data_DyH5C6(NO4)2
_symmetry_space_group_name_H-M   'P 1'
_cell_length_a   6.81741397
_cell_length_b   11.50331264
_cell_length_c   14.22297611
_cell_angle_alpha   109.61727512
_cell_angle_beta   89.99550478
_cell_angle_gamma   107.26534182
_symmetry_Int_Tables_number   1
_chemical_formula_structural   DyH5C6(NO4)2
_chemical_formula_sum   'Dy4 H20 C24 N8 O32'
_cell_volume   997.15609373
_cell_formula_units_Z   4
loop_
 _symmetry_equiv_pos_site_id
 _symmetry_equiv_pos_as_xyz
  1  'x, y, z'
loop_
 _atom_site_type_symbol
 _atom_site_label
 _atom_site_symmetry_multiplicity
 _atom_site_fract_x
 _atom_site_fract_y
 _atom_site_fract_z
 _atom_site_occupancy
 _atom_site_pbe_cm5_charge
 _atom_site_pbe_ddec_charge
 _atom_site_pbe_ddec_spin_density
 _atom_site_pbe_ddec_sum_bond_order
 _atom_site_pbe_magmom
Dy  Dy0  1  0.53545349  0.23089695  0.19482388  1  1.547713  2.068458  -0.001361  2.187168  0.0
Dy  Dy1  1  0.30459923  0.76884220  0.30511028  1  1.546615  2.06904  -0.001363  2.184063  0.0
Dy  Dy2  1  0.46453391  0.76910116  0.80517871  1  1.547662  2.068439  -0.00136  2.187259  0.0
Dy  Dy3  1  0.69541407  0.23116077  0.69488871  1  1.546697  2.069156  -0.001364  2.183876  0.0
H  H4  1  0.58617834  0.34661239  0.49306549  1  0.14356  0.099509  -0.001763  0.983635  -0.005
H  H5  1  0.23893182  0.65279269  0.00680650  1  0.143213  0.09917  -0.001768  0.983836  -0.005
H  H6  1  0.41382273  0.65339252  0.50693403  1  0.143556  0.099506  -0.001767  0.983593  -0.005
H  H7  1  0.76103945  0.34719958  0.99319239  1  0.143202  0.099151  -0.001769  0.983747  -0.005
H  H8  1  0.22691184  0.19880310  0.34405844  1  0.305607  0.41264  3.3e-05  0.913858  0.0
H  H9  1  0.02838145  0.80102783  0.15592988  1  0.305419  0.411289  2.1e-05  0.91577  0.0
H  H10  1  0.77307507  0.80119404  0.65594459  1  0.30561  0.412688  3.3e-05  0.913778  0.0
H  H11  1  0.97160838  0.19897222  0.84407816  1  0.305393  0.411217  2.1e-05  0.915886  0.0
H  H12  1  0.33909827  0.09492586  0.33613847  1  0.304555  0.415454  3e-05  0.912828  0.0
H  H13  1  0.24453617  0.90487498  0.16383122  1  0.304517  0.415172  3.1e-05  0.913259  0.0
H  H14  1  0.66090670  0.90508392  0.66386799  1  0.304552  0.415473  3e-05  0.912815  0.0
H  H15  1  0.75545172  0.09512410  0.83617586  1  0.304466  0.415041  3.1e-05  0.91343  0.0
H  H16  1  0.86134877  0.16531521  0.30641635  1  0.30687  0.417907  0.000159  0.90929  0.0
H  H17  1  0.69669693  0.83467466  0.19372597  1  0.307352  0.418505  0.000157  0.90864  0.0
H  H18  1  0.13864644  0.83468386  0.69357666  1  0.306869  0.4179  0.000159  0.909293  0.0
H  H19  1  0.30330658  0.16533512  0.80627627  1  0.307325  0.41851  0.000157  0.908674  0.0
H  H20  1  0.82481983  0.08622647  0.18859235  1  0.33791  0.429912  -5.1e-05  0.856822  0.0
H  H21  1  0.73886095  0.91375949  0.31155090  1  0.337948  0.430186  -5.1e-05  0.856469  0.0
H  H22  1  0.17518027  0.91377649  0.81140242  1  0.337887  0.429894  -5.1e-05  0.856852  0.0
H  H23  1  0.26113520  0.08625612  0.68844800  1  0.337989  0.430233  -5.1e-05  0.856389  0.0
C  C24  1  0.67864021  0.42070526  0.46539119  1  0.202461  0.30002  0.337241  3.745691  0.203
C  C25  1  0.25736740  0.57872438  0.03447738  1  0.203242  0.301056  0.337109  3.745975  0.203
C  C26  1  0.32135403  0.57929479  0.53460701  1  0.20252  0.300198  0.337215  3.745913  0.203
C  C27  1  0.74262440  0.42127081  0.96551949  1  0.203207  0.30102  0.337136  3.745774  0.203
C  C28  1  0.82262702  0.51064522  0.36193073  1  0.156208  0.099568  0.272404  3.790127  0.154
C  C29  1  0.31148111  0.48887331  0.13794017  1  0.155471  0.100103  0.272526  3.789124  0.154
C  C30  1  0.17736576  0.48934900  0.63806378  1  0.156189  0.099519  0.272425  3.789928  0.154
C  C31  1  0.68853513  0.51112675  0.86206084  1  0.155436  0.100127  0.272509  3.789219  0.154
C  C32  1  0.87104001  0.60545545  0.46587809  1  0.152928  0.090676  0.258487  3.786554  0.145
C  C33  1  0.26494697  0.39399826  0.03398714  1  0.151963  0.089787  0.258568  3.786533  0.145
C  C34  1  0.12896938  0.39454557  0.53411756  1  0.152957  0.090793  0.258495  3.786497  0.145
C  C35  1  0.73507074  0.60600180  0.96601598  1  0.152075  0.089835  0.25857  3.78639  0.145
C  C36  1  0.00939551  0.74327803  0.50575845  1  0.237826  0.611876  -0.00317  4.19336  -0.01
C  C37  1  0.26556048  0.25622859  0.99408562  1  0.237823  0.610266  -0.003223  4.195351  -0.01
C  C38  1  0.99061095  0.25672008  0.49423570  1  0.237696  0.611721  -0.003166  4.193719  -0.01
C  C39  1  0.73445185  0.74377244  0.00591636  1  0.237851  0.610383  -0.003227  4.195278  -0.01
C  C40  1  0.86845508  0.51918140  0.26114133  1  0.238653  0.619293  -0.004514  4.189543  -0.011
C  C41  1  0.34871972  0.48043091  0.23876590  1  0.238724  0.618126  -0.00446  4.194491  -0.011
C  C42  1  0.13153673  0.48080796  0.73885186  1  0.238699  0.619392  -0.004518  4.18958  -0.011
C  C43  1  0.65128871  0.51956234  0.76123116  1  0.238729  0.618091  -0.00446  4.194443  -0.011
C  C44  1  0.59633791  0.04171925  0.98356880  1  0.220876  0.5072  0.00054  4.220403  0.0
C  C45  1  0.55460397  0.95833507  0.51650719  1  0.220355  0.508711  0.000528  4.218229  0.0
C  C46  1  0.40363481  0.95828178  0.01643599  1  0.220692  0.506806  0.00054  4.220335  0.0
C  C47  1  0.44543081  0.04168152  0.48350463  1  0.220731  0.509092  0.000528  4.217865  0.0
N  N48  1  0.70367064  0.39719979  0.36556530  1  -0.38846  -0.426502  -0.016894  3.408588  -0.029
N  N49  1  0.30599517  0.60228215  0.13429058  1  -0.387706  -0.426113  -0.016834  3.40729  -0.029
N  N50  1  0.29632604  0.60279928  0.63443193  1  -0.388484  -0.426568  -0.016891  3.408595  -0.029
N  N51  1  0.69401471  0.39771985  0.86570603  1  -0.387674  -0.426127  -0.016829  3.407363  -0.029
N  N52  1  0.78042358  0.54487844  0.52723786  1  -0.308193  -0.308665  -0.012555  3.17756  -0.023
N  N53  1  0.23490555  0.45456370  0.97262435  1  -0.308016  -0.308919  -0.012573  3.176734  -0.023
N  N54  1  0.21958092  0.45512452  0.47275761  1  -0.30822  -0.308835  -0.012532  3.177781  -0.023
N  N55  1  0.76509799  0.54543149  0.02737604  1  -0.308042  -0.308927  -0.012591  3.176773  -0.023
O  O56  1  0.97572601  0.62553109  0.25445405  1  -0.389165  -0.630191  0.031195  2.344218  0.028
O  O57  1  0.35023891  0.37422403  0.24545656  1  -0.389866  -0.630163  0.030735  2.347608  0.028
O  O58  1  0.02428781  0.37446118  0.74553571  1  -0.389179  -0.630259  0.031163  2.344707  0.028
O  O59  1  0.64974653  0.62577310  0.75454295  1  -0.389899  -0.63017  0.03076  2.347373  0.028
O  O60  1  0.78908205  0.41378506  0.18704939  1  -0.376082  -0.621917  0.031792  2.244987  0.028
O  O61  1  0.37415498  0.58572869  0.31285193  1  -0.375369  -0.621698  0.031644  2.247057  0.028
O  O62  1  0.21091513  0.58621208  0.81295012  1  -0.376101  -0.621948  0.031818  2.244707  0.028
O  O63  1  0.62584220  0.41427136  0.68714556  1  -0.375358  -0.621668  0.031613  2.247232  0.028
O  O64  1  0.14199645  0.78061473  0.45098076  1  -0.373154  -0.640238  0.066375  2.335435  0.056
O  O65  1  0.36122207  0.21908980  0.04882530  1  -0.373368  -0.638596  0.066329  2.334778  0.056
O  O66  1  0.85803349  0.21938047  0.54901682  1  -0.373087  -0.640183  0.066341  2.335764  0.056
O  O67  1  0.63876436  0.78090345  0.95117878  1  -0.373346  -0.638615  0.066363  2.334703  0.057
O  O68  1  0.99311388  0.81358366  0.59373800  1  -0.29288  -0.53088  0.032351  2.187737  0.03
O  O69  1  0.17878985  0.18587133  0.90613422  1  -0.292456  -0.530263  0.032182  2.187841  0.03
O  O70  1  0.00688377  0.18641736  0.40625273  1  -0.292921  -0.530887  0.032328  2.187773  0.03
O  O71  1  0.82122736  0.81413067  0.09386591  1  -0.292503  -0.530363  0.032178  2.187948  0.03
O  O72  1  0.70578397  0.14658519  0.04825270  1  -0.351074  -0.563984  0.003515  2.257401  0.003
O  O73  1  0.55907576  0.85341638  0.45187089  1  -0.350974  -0.564683  0.00345  2.255326  0.003
O  O74  1  0.29418243  0.85340027  0.95174224  1  -0.350887  -0.563802  0.003519  2.256648  0.003
O  O75  1  0.44094050  0.14657784  0.54813979  1  -0.351009  -0.564695  0.003446  2.255737  0.003
O  O76  1  0.62611204  0.99515970  0.89171079  1  -0.366289  -0.605693  0.002732  2.349539  0.002
O  O77  1  0.63094381  0.00500976  0.60836676  1  -0.365705  -0.606887  0.00271  2.347726  0.002
O  O78  1  0.37386118  0.00483645  0.10828776  1  -0.366296  -0.605557  0.002729  2.350025  0.002
O  O79  1  0.36909833  0.99499808  0.39163566  1  -0.3659  -0.607121  0.002712  2.347221  0.002
O  O80  1  0.33021980  0.16142652  0.30686206  1  -0.667234  -0.876932  0.003328  2.068043  0.003
O  O81  1  0.16921702  0.83824242  0.19302161  1  -0.667017  -0.875435  0.003262  2.069431  0.003
O  O82  1  0.66977443  0.83857645  0.69314326  1  -0.667245  -0.877051  0.003329  2.068094  0.003
O  O83  1  0.83077477  0.16175861  0.80699021  1  -0.666933  -0.875257  0.003263  2.069542  0.003
O  O84  1  0.77824238  0.14713132  0.24226519  1  -0.642277  -0.86746  0.000584  2.062386  0.001
O  O85  1  0.63169931  0.85231439  0.25786978  1  -0.642586  -0.868674  0.000569  2.060504  0.001
O  O86  1  0.22175528  0.85286971  0.75773045  1  -0.642266  -0.867458  0.000585  2.062401  0.001
O  O87  1  0.36829783  0.14769733  0.74213229  1  -0.642583  -0.868727  0.00057  2.060433  0.001
