# generated using pymatgen
data_Zn4H11C24S4BrN4O13
_symmetry_space_group_name_H-M   'P 1'
_cell_length_a   19.67328567
_cell_length_b   19.66620619
_cell_length_c   33.37907111
_cell_angle_alpha   79.23089005
_cell_angle_beta   79.20018157
_cell_angle_gamma   63.93322453
_symmetry_Int_Tables_number   1
_chemical_formula_structural   Zn4H11C24S4BrN4O13
_chemical_formula_sum   'Zn16 H44 C96 S16 Br4 N16 O52'
_cell_volume   11315.02140344
_cell_formula_units_Z   4
loop_
 _symmetry_equiv_pos_site_id
 _symmetry_equiv_pos_as_xyz
  1  'x, y, z'
loop_
 _atom_site_type_symbol
 _atom_site_label
 _atom_site_symmetry_multiplicity
 _atom_site_fract_x
 _atom_site_fract_y
 _atom_site_fract_z
 _atom_site_occupancy
 _atom_site_pbe_bader_charge
 _atom_site_pbe_bader_spin_density
 _atom_site_pbe_cm5_charge
 _atom_site_pbe_ddec_charge
 _atom_site_pbe_ddec_spin_density
 _atom_site_pbe_ddec_sum_bond_order
 _atom_site_pbe_magmom
Zn  Zn0  1  0.05488387  0.40018950  0.47806867  1  1.323128  0  0.67303  0.976273  0  2.352692  0
Zn  Zn1  1  0.98434636  0.48332539  0.56062787  1  1.295518  0  0.662555  0.9501  0  2.371884  0
Zn  Zn2  1  0.05926795  0.55958844  0.48188880  1  1.318018  0  0.668028  0.959375  0  2.402321  0
Zn  Zn3  1  0.90146394  0.55676664  0.47979649  1  1.317395  0  0.668532  0.959367  0  2.402454  0
Zn  Zn4  1  0.69327621  0.34926845  0.27176607  1  1.321292  0  0.672951  0.971393  0  2.375935  0
Zn  Zn5  1  0.68958417  0.18929254  0.26649504  1  1.311342  0  0.667497  0.962651  0  2.364702  0
Zn  Zn6  1  0.76850707  0.26777314  0.19078788  1  1.312299  0  0.668202  0.959244  0  2.399536  0
Zn  Zn7  1  0.84823957  0.19465787  0.27195949  1  1.314579  0  0.662377  0.945761  0  2.391243  0
Zn  Zn8  1  0.26709514  0.76673432  0.69038730  1  1.308973  0  0.662761  0.9458  0  2.395314  0
Zn  Zn9  1  0.34884444  0.69556638  0.77214721  1  1.317436  0  0.667871  0.962591  0  2.362621  0
Zn  Zn10  1  0.19200607  0.84883511  0.77092369  1  1.322972  0  0.673749  0.973827  0  2.390625  0
Zn  Zn11  1  0.19012095  0.68909855  0.76732520  1  1.312585  0  0.666843  0.957503  0  2.384226  0
Zn  Zn12  1  0.55973566  0.05997375  0.98307242  1  1.319043  0  0.667664  0.957777  0  2.38524  0
Zn  Zn13  1  0.40186529  0.05511161  0.97872719  1  1.303627  0  0.662684  0.945925  0  2.394463  0
Zn  Zn14  1  0.55606377  0.90031467  0.97859010  1  1.320889  0  0.672635  0.970876  0  2.373621  0
Zn  Zn15  1  0.48285548  0.98290756  0.06036204  1  1.309632  0  0.666713  0.95705  0  2.385302  0
H  H16  1  0.95517027  0.24952070  0.35187664  1  0.106981  0  0.107878  0.113064  0  0.994765  0
H  H17  1  0.74665328  0.45319644  0.34961928  1  0.121908  0  0.110008  0.128342  0  0.999168  0
H  H18  1  0.99832467  0.30198702  0.40016493  1  0.145004  0  0.111903  0.119642  0  0.992025  0
H  H19  1  0.09672669  0.59654435  0.69972020  1  0.119486  0  0.10952  0.115637  0  0.993298  0
H  H20  1  0.20250989  0.70086517  0.59878032  1  0.091801  0  0.106274  0.122449  0  1.005662  0
H  H21  1  0.05067603  0.55073241  0.64949411  1  0.094608  0  0.10876  0.115159  0  0.997549  0
H  H22  1  0.55027525  0.05050014  0.15370358  1  0.076038  0  0.109411  0.115448  0  0.993342  0
H  H23  1  0.65018128  0.15215753  0.04850041  1  0.144963  0  0.108338  0.125857  0  1.001686  0
H  H24  1  0.60107745  0.10027011  0.19950891  1  0.071685  0  0.10994  0.116934  0  0.99556  0
H  H25  1  0.50101322  0.79506727  0.89804168  1  0.095966  0  0.111733  0.118419  0  0.987908  0
H  H26  1  0.29737376  0.00367741  0.89991811  1  0.126231  0  0.105555  0.121876  0  1.008351  0
H  H27  1  0.44859704  0.75155091  0.84992923  1  0.134412  0  0.110768  0.117821  0  0.993933  0
H  H28  1  0.31534728  0.55452622  0.39572428  1  0.459179  0  0.315305  0.312044  0  0.931328  0
H  H29  1  0.23371857  0.55195967  0.42631538  1  0.503476  0  0.306216  0.319174  0  0.961437  0
H  H30  1  0.42541839  0.20275071  0.34489867  1  0.445086  0  0.314448  0.310398  0  0.933971  0
H  H31  1  0.51400947  0.19944681  0.32170838  1  0.489961  0  0.307124  0.320649  0  0.957113  0
H  H32  1  0.76518706  0.52332620  0.68561130  1  0.453966  0  0.313505  0.308807  0  0.935024  0
H  H33  1  0.83486464  0.51692049  0.64375694  1  0.493647  0  0.304911  0.316529  0  0.962237  0
H  H34  1  0.48444945  0.70322615  0.56460966  1  0.455519  0  0.314223  0.309833  0  0.933451  0
H  H35  1  0.41523203  0.72727239  0.60696629  1  0.493672  0  0.304865  0.316941  0  0.961422  0
H  H36  1  0.04686508  0.26573812  0.68569109  1  0.446976  0  0.312337  0.307829  0  0.935586  0
H  H37  1  0.02275984  0.33474712  0.64332018  1  0.495745  0  0.302991  0.314544  0  0.965577  0
H  H38  1  0.22543886  0.98485093  0.56453290  1  0.458714  0  0.315198  0.310775  0  0.933397  0
H  H39  1  0.23300308  0.91489280  0.60646390  1  0.493988  0  0.305892  0.317609  0  0.960961  0
H  H40  1  0.74401854  0.80372295  0.38457624  1  0.457465  0  0.314133  0.309335  0  0.933046  0
H  H41  1  0.79590748  0.72525612  0.41769941  1  0.526636  0  0.305619  0.318316  0  0.962361  0
H  H42  1  0.01514723  0.93482007  0.35499868  1  0.44604  0  0.314057  0.309048  0  0.934504  0
H  H43  1  0.95593901  0.02191055  0.33023789  1  0.490736  0  0.305291  0.316304  0  0.964151  0
H  H44  1  0.72350709  0.48458973  0.06475381  1  0.460307  0  0.315509  0.311988  0  0.931613  0
H  H45  1  0.73264069  0.41452924  0.10693013  1  0.495482  0  0.306397  0.318936  0  0.962851  0
H  H46  1  0.54402291  0.76617549  0.18591114  1  0.463206  0  0.314771  0.310106  0  0.934176  0
H  H47  1  0.52113110  0.83541790  0.14330904  1  0.493718  0  0.30748  0.319909  0  0.958901  0
H  H48  1  0.14572390  0.08639701  0.22614278  1  0.439171  0  0.313224  0.308716  0  0.933869  0
H  H49  1  0.04758717  0.11794845  0.23932835  1  0.503188  0  0.303866  0.31459  0  0.964998  0
H  H50  1  0.10427186  0.18430168  0.02507447  1  0.447738  0  0.315396  0.310806  0  0.93385  0
H  H51  1  0.20240997  0.13662818  0.01108416  1  0.494619  0  0.306512  0.318553  0  0.960615  0
H  H52  1  0.51565962  0.43519866  0.85530547  1  0.448225  0  0.315308  0.310922  0  0.933301  0
H  H53  1  0.45672336  0.52175935  0.82987510  1  0.494579  0  0.308104  0.320525  0  0.956766  0
H  H54  1  0.24517946  0.30332432  0.88397228  1  0.454574  0  0.313321  0.309412  0  0.933845  0
H  H55  1  0.29668962  0.22529867  0.91727961  1  0.490304  0  0.3046  0.316019  0  0.962621  0
H  H56  1  0.92440379  0.70276466  0.84508669  1  0.445932  0  0.314397  0.309605  0  0.936204  0
H  H57  1  0.01317559  0.69899097  0.82199381  1  0.501301  0  0.306753  0.319501  0  0.959424  0
H  H58  1  0.81586816  0.05488778  0.89534534  1  0.456008  0  0.315716  0.312029  0  0.931074  0
H  H59  1  0.73399990  0.05276453  0.92581019  1  0.482012  0  0.308736  0.321775  0  0.955758  0
C  C60  1  0.06022167  0.31562514  0.56246562  1  1.498968  0  0.204747  0.615007  0  4.222707  0
C  C61  1  0.06886869  0.56969434  0.56906991  1  1.56205  0  0.226857  0.616069  0  4.156975  0
C  C62  1  0.18488675  0.43839778  0.43855184  1  1.492  0  0.204055  0.614153  0  4.22002  0
C  C63  1  0.93725430  0.68517491  0.43826311  1  1.528364  0  0.20363  0.610476  0  4.22744  0
C  C64  1  0.92985857  0.43231048  0.43086645  1  1.575941  0  0.226654  0.614725  0  4.159404  0
C  C65  1  0.81605172  0.56237589  0.56307097  1  1.487145  0  0.204334  0.613068  0  4.221533  0
C  C66  1  0.56499118  0.31036758  0.31196900  1  1.50624  0  0.204651  0.614482  0  4.222529  0
C  C67  1  0.68229443  0.18009836  0.18079960  1  1.577265  0  0.226885  0.614868  0  4.156687  0
C  C68  1  0.68828269  0.43463260  0.18802974  1  1.513907  0  0.204208  0.612471  0  4.223435  0
C  C69  1  0.93623658  0.18797061  0.18942437  1  1.496182  0  0.204887  0.613865  0  4.222758  0
C  C70  1  0.82045229  0.31900633  0.31893690  1  1.576005  0  0.230542  0.607329  0  4.158858  0
C  C71  1  0.81243430  0.06507363  0.31188785  1  1.509593  0  0.204098  0.61351  0  4.219102  0
C  C72  1  0.43433626  0.68949536  0.68795353  1  1.497403  0  0.204642  0.614977  0  4.219419  0
C  C73  1  0.31844190  0.81994522  0.81898504  1  1.579837  0  0.2283  0.616847  0  4.154224  0
C  C74  1  0.18717581  0.93408747  0.68737950  1  1.489984  0  0.20421  0.612896  0  4.222695  0
C  C75  1  0.06431671  0.80981735  0.81170481  1  1.514679  0  0.204179  0.611563  0  4.226862  0
C  C76  1  0.18123088  0.67962844  0.68115186  1  1.540912  0  0.230086  0.607989  0  4.159828  0
C  C77  1  0.31296703  0.56499566  0.81184937  1  1.528967  0  0.20428  0.61152  0  4.223786  0
C  C78  1  0.43703562  0.18514116  0.93863698  1  1.52568  0  0.203721  0.612083  0  4.223484  0
C  C79  1  0.43143116  0.93065796  0.93046316  1  1.567727  0  0.231256  0.609115  0  4.157971  0
C  C80  1  0.68507964  0.93930797  0.93880287  1  1.492497  0  0.203887  0.611369  0  4.227761  0
C  C81  1  0.56056678  0.81533339  0.06236250  1  1.490712  0  0.204321  0.613436  0  4.224201  0
C  C82  1  0.56818260  0.06933433  0.06985570  1  1.566255  0  0.23023  0.605697  0  4.15967  0
C  C83  1  0.31431689  0.06157553  0.06113550  1  1.466134  0  0.203984  0.6132  0  4.220769  0
C  C84  1  0.89789441  0.40674818  0.40210137  1  -0.007432  0  -0.014187  -0.07808  0  3.911465  0
C  C85  1  0.84828285  0.34863495  0.34767882  1  -0.042166  0  -0.009094  -0.00791  0  3.959899  0
C  C86  1  0.82618871  0.44924418  0.38752241  1  -0.08301  0  -0.002895  0.109719  0  3.902976  0
C  C87  1  0.91950132  0.30544251  0.36191815  1  -0.016621  0  -0.082099  -0.098227  0  3.980798  0
C  C88  1  0.80204884  0.42022511  0.36064737  1  0.027982  0  -0.085657  -0.147938  0  3.952794  0
C  C89  1  0.94324206  0.33459155  0.38864020  1  -0.020975  0  -0.076466  -0.076783  0  3.966491  0
C  C90  1  0.09979596  0.59973923  0.59609211  1  0.093052  0  -0.014126  -0.076656  0  3.910526  0
C  C91  1  0.15252779  0.65152400  0.65209699  1  -0.034777  0  -0.009619  -0.008207  0  3.960845  0
C  C92  1  0.14314190  0.64262050  0.58197001  1  -0.128761  0  -0.002495  0.110035  0  3.902868  0
C  C93  1  0.10948201  0.60916652  0.66672827  1  -0.056993  0  -0.082464  -0.100019  0  3.979828  0
C  C94  1  0.16907463  0.66790494  0.60982605  1  0.088809  0  -0.087649  -0.148591  0  3.955953  0
C  C95  1  0.08406014  0.58393791  0.63889597  1  -0.056203  0  -0.077707  -0.077393  0  3.969368  0
C  C96  1  0.30412953  0.45398948  0.40175520  1  0.4567  0  0.106907  0.285682  0  4.118541  0
C  C97  1  0.44655365  0.29410795  0.34960000  1  0.521182  0  0.105497  0.283718  0  4.122067  0
C  C98  1  0.25879898  0.41311865  0.41448206  1  -0.051368  0  -0.050807  -0.263394  0  3.952323  0
C  C99  1  0.49187630  0.33490486  0.33689966  1  -0.104804  0  -0.049836  -0.262977  0  3.954746  0
C  C100  1  0.37767841  0.33857441  0.37310162  1  -0.107341  0  -0.030258  -0.109587  0  4.085731  0
C  C101  1  0.37249746  0.40992593  0.37773258  1  -0.121723  0  -0.030879  -0.109328  0  4.083475  0
C  C102  1  0.72657171  0.57676109  0.63021118  1  0.509899  0  0.104823  0.28242  0  4.117565  0
C  C103  1  0.52368693  0.67519845  0.62079621  1  0.508192  0  0.105492  0.283714  0  4.115823  0
C  C104  1  0.74212002  0.58731767  0.58722065  1  -0.082115  0  -0.049431  -0.261782  0  3.952027  0
C  C105  1  0.50822331  0.66507647  0.66382107  1  -0.097965  0  -0.05017  -0.262476  0  3.956874  0
C  C106  1  0.60390932  0.64194702  0.60883652  1  -0.143024  0  -0.030094  -0.109428  0  4.08169  0
C  C107  1  0.64632592  0.60857229  0.64210378  1  -0.127882  0  -0.030004  -0.107484  0  4.083061  0
C  C108  1  0.07448103  0.22626449  0.62961282  1  0.47832  0  0.103022  0.280844  0  4.117712  0
C  C109  1  0.17317437  0.02332443  0.62021889  1  0.48125  0  0.105301  0.28403  0  4.1195  0
C  C110  1  0.08458018  0.24166793  0.58659937  1  -0.088013  0  -0.048421  -0.260774  0  3.956566  0
C  C111  1  0.16237977  0.00790494  0.66322757  1  -0.082915  0  -0.049711  -0.262669  0  3.954396  0
C  C112  1  0.14125353  0.10358974  0.60831834  1  -0.124662  0  -0.030069  -0.110084  0  4.083827  0
C  C113  1  0.10771781  0.14607621  0.64158337  1  -0.138761  0  -0.030755  -0.109723  0  4.086484  0
C  C114  1  0.84299494  0.80070725  0.39790204  1  0.549137  0  0.106251  0.284017  0  4.118854  0
C  C115  1  0.90568246  0.95010641  0.35315120  1  0.564875  0  0.105642  0.28383  0  4.121035  0
C  C116  1  0.91281735  0.75898301  0.41418602  1  -0.119419  0  -0.04939  -0.259437  0  3.954916  0
C  C117  1  0.83594989  0.99199730  0.33679994  1  -0.139533  0  -0.049742  -0.262032  0  3.955931  0
C  C118  1  0.90791112  0.87973632  0.37502984  1  -0.157363  0  -0.030733  -0.110016  0  4.088345  0
C  C119  1  0.84148329  0.87028569  0.37516672  1  -0.155462  0  -0.029895  -0.107261  0  4.081492  0
C  C120  1  0.65445143  0.15369043  0.15038343  1  0.048161  0  -0.013515  -0.077289  0  3.91002  0
C  C121  1  0.59748513  0.09830248  0.09820916  1  0.014471  0  -0.009103  -0.008443  0  3.961057  0
C  C122  1  0.66799973  0.16816561  0.10725510  1  -0.158035  0  -0.002335  0.109952  0  3.903944  0
C  C123  1  0.58327718  0.08345673  0.14094026  1  -0.043755  0  -0.083013  -0.10045  0  3.979375  0
C  C124  1  0.63963270  0.14068968  0.08169910  1  0.02321  0  -0.086384  -0.147336  0  3.953588  0
C  C125  1  0.61146546  0.11104268  0.16621251  1  0.03756  0  -0.077437  -0.077113  0  3.967777  0
C  C126  1  0.67328889  0.52333154  0.12068185  1  0.545289  0  0.107147  0.287164  0  4.119915  0
C  C127  1  0.57438821  0.72653166  0.12962313  1  0.487071  0  0.106149  0.284125  0  4.119886  0
C  C128  1  0.66284079  0.50828721  0.16375687  1  -0.101974  0  -0.050128  -0.263306  0  3.954274  0
C  C129  1  0.58467741  0.74159526  0.08655963  1  -0.080341  0  -0.049319  -0.262582  0  3.956755  0
C  C130  1  0.60761911  0.64635112  0.14174657  1  -0.138444  0  -0.030315  -0.109312  0  4.084053  0
C  C131  1  0.64110146  0.60358418  0.10859973  1  -0.16592  0  -0.030352  -0.109648  0  4.083915  0
C  C132  1  0.08152282  0.12247755  0.17829824  1  0.544852  0  0.104556  0.281335  0  4.116516  0
C  C133  1  0.16889936  0.12447343  0.07218183  1  0.551815  0  0.106147  0.2847  0  4.119796  0
C  C134  1  0.00932367  0.16225862  0.16452601  1  -0.135001  0  -0.049102  -0.260242  0  3.955975  0
C  C135  1  0.24119295  0.08491714  0.08596538  1  -0.100718  0  -0.049865  -0.262173  0  3.953944  0
C  C136  1  0.11088949  0.13855240  0.10635451  1  -0.168128  0  -0.030074  -0.10953  0  4.08137  0
C  C137  1  0.13957139  0.10963480  0.14419778  1  -0.165416  0  -0.03049  -0.108218  0  4.084121  0
C  C138  1  0.34398748  0.85207256  0.84769437  1  -0.022643  0  -0.014126  -0.077868  0  3.909202  0
C  C139  1  0.40210223  0.90240418  0.90178848  1  -0.041498  0  -0.009519  -0.010228  0  3.962037  0
C  C140  1  0.30134434  0.92389035  0.86218104  1  -0.098729  0  -0.003214  0.109137  0  3.906261  0
C  C141  1  0.44525718  0.83084409  0.88784440  1  0.031279  0  -0.080233  -0.09581  0  3.971644  0
C  C142  1  0.33049327  0.94831090  0.88886372  1  0.046006  0  -0.08898  -0.150034  0  3.961965  0
C  C143  1  0.41609196  0.80686748  0.86124102  1  -0.047412  0  -0.07671  -0.077023  0  3.964531  0
C  C144  1  0.40640966  0.44991719  0.85303113  1  0.529184  0  0.105876  0.283375  0  4.123456  0
C  C145  1  0.34318396  0.30099312  0.89807530  1  0.515947  0  0.105145  0.282243  0  4.117625  0
C  C146  1  0.33671083  0.49178220  0.83666044  1  -0.141743  0  -0.049921  -0.261069  0  3.954448  0
C  C147  1  0.41281033  0.25906903  0.91451175  1  -0.107613  0  -0.049812  -0.260534  0  3.953353  0
C  C148  1  0.34184753  0.37042659  0.87531181  1  -0.159098  0  -0.031244  -0.108702  0  4.084998  0
C  C149  1  0.40837432  0.37972479  0.87515193  1  -0.12873  0  -0.029647  -0.108281  0  4.080705  0
C  C150  1  0.94593789  0.79392532  0.84968430  1  0.528693  0  0.105129  0.282382  0  4.123491  0
C  C151  1  0.80428787  0.95448461  0.90159945  1  0.515385  0  0.106563  0.284882  0  4.122725  0
C  C152  1  0.99141080  0.83450465  0.83674164  1  -0.123411  0  -0.049562  -0.261405  0  3.957871  0
C  C153  1  0.75876140  0.91391988  0.91454573  1  -0.109503  0  -0.050483  -0.262834  0  3.955519  0
C  C154  1  0.87245346  0.91008460  0.87757489  1  -0.104495  0  -0.030341  -0.110054  0  4.084123  0
C  C155  1  0.87725989  0.83874546  0.87317337  1  -0.143476  0  -0.030567  -0.109543  0  4.08638  0
S  S156  1  0.29994317  0.32269368  0.39777022  1  0.214823  0  0.040693  0.090065  0  2.779286  0
S  S157  1  0.45105700  0.42506465  0.35388481  1  0.221021  0  0.044258  0.094579  0  2.778492  0
S  S158  1  0.66012239  0.63584818  0.56221709  1  0.230677  0  0.046025  0.097217  0  2.778738  0
S  S159  1  0.59023481  0.61673272  0.68880234  1  0.224974  0  0.039617  0.088302  0  2.782391  0
S  S160  1  0.13306350  0.15962233  0.56163134  1  0.230605  0  0.045566  0.096606  0  2.78046  0
S  S161  1  0.11357239  0.08999794  0.68821268  1  0.22769  0  0.044545  0.095684  0  2.779807  0
S  S162  1  0.97424665  0.80458346  0.40231127  1  0.220888  0  0.040683  0.089175  0  2.785072  0
S  S163  1  0.77449431  0.94639322  0.34869710  1  0.204675  0  0.041653  0.091084  0  2.779139  0
S  S164  1  0.61389272  0.59065094  0.18850625  1  0.21716  0  0.042695  0.092589  0  2.777727  0
S  S165  1  0.63314288  0.65924349  0.06179350  1  0.229584  0  0.042993  0.093174  0  2.778607  0
S  S166  1  0.01282475  0.18218300  0.11104401  1  0.27273  0  0.044157  0.094058  0  2.781517  0
S  S167  1  0.23760630  0.06459292  0.13945972  1  0.219585  0  0.041058  0.090319  0  2.78013  0
S  S168  1  0.27500855  0.44644483  0.84870618  1  0.222808  0  0.040591  0.089267  0  2.781811  0
S  S169  1  0.47436385  0.30456102  0.90266314  1  0.221367  0  0.042086  0.091049  0  2.779312  0
S  S170  1  0.95110109  0.92480612  0.85349664  1  0.232898  0  0.044858  0.095488  0  2.781294  0
S  S171  1  0.79940172  0.82333633  0.89806825  1  0.216794  0  0.042233  0.09204  0  2.780181  0
Br  Br172  1  0.75442568  0.54722024  0.40204550  1  -0.05069  0  0.007132  -0.07553  0  1.383523  0
Br  Br173  1  0.17191858  0.67055963  0.52571766  1  -0.044203  0  0.010421  -0.071343  0  1.386229  0
Br  Br174  1  0.72369326  0.22490944  0.07880288  1  -0.045268  0  0.010396  -0.071124  0  1.386766  0
Br  Br175  1  0.20279366  0.99467531  0.84830906  1  -0.042692  0  0.010931  -0.070594  0  1.386107  0
N  N176  1  0.28676088  0.52417553  0.41173226  1  -1.288233  0  -0.579931  -0.592405  0  3.340606  0
N  N177  1  0.46636152  0.22188613  0.34176742  1  -1.251887  0  -0.581435  -0.593734  0  3.333715  0
N  N178  1  0.78022046  0.54345183  0.65680369  1  -1.282774  0  -0.584042  -0.594238  0  3.32935  0
N  N179  1  0.47019097  0.71341610  0.59432952  1  -1.271721  0  -0.582956  -0.594118  0  3.326912  0
N  N180  1  0.03604597  0.27991671  0.65608075  1  -1.259798  0  -0.584871  -0.596075  0  3.326876  0
N  N181  1  0.20678475  0.96971221  0.59365245  1  -1.272284  0  -0.581567  -0.591839  0  3.334251  0
N  N182  1  0.78458225  0.77914976  0.40386671  1  -1.301993  0  -0.579182  -0.589663  0  3.333936  0
N  N183  1  0.96209717  0.97389210  0.34984484  1  -1.253082  0  -0.582196  -0.591012  0  3.335602  0
N  N184  1  0.70702710  0.46955412  0.09430512  1  -1.264728  0  -0.57995  -0.592088  0  3.343337  0
N  N185  1  0.53627895  0.78028177  0.15587384  1  -1.27196  0  -0.581565  -0.591822  0  3.335371  0
N  N186  1  0.09425209  0.09760570  0.21832555  1  -1.258626  0  -0.584837  -0.59447  0  3.32493  0
N  N187  1  0.15584997  0.14443629  0.03214784  1  -1.266436  0  -0.580705  -0.590593  0  3.337315  0
N  N188  1  0.46281670  0.47369698  0.84943144  1  -1.25768  0  -0.580259  -0.590905  0  3.335744  0
N  N189  1  0.28439816  0.27972744  0.90406860  1  -1.261022  0  -0.583588  -0.594421  0  3.326483  0
N  N190  1  0.96553732  0.72163177  0.84203243  1  -1.271133  0  -0.580633  -0.59139  0  3.336994  0
N  N191  1  0.78717048  0.02470823  0.91144393  1  -1.263987  0  -0.579713  -0.591608  0  3.335528  0
O  O192  1  0.00039715  0.49861416  0.50069997  1  -1.21958  0  -0.571739  -1.020674  0  2.534067  0
O  O193  1  0.07603087  0.31717165  0.52335909  1  -1.161699  0  -0.327285  -0.555046  0  2.341655  0
O  O194  1  0.03518584  0.52747211  0.58710809  1  -1.168041  0  -0.317818  -0.550427  0  2.322818  0
O  O195  1  0.15760584  0.50546164  0.45043409  1  -1.17437  0  -0.322779  -0.557559  0  2.331393  0
O  O196  1  0.02434129  0.37455928  0.58240373  1  -1.174767  0  -0.324659  -0.561948  0  2.32541  0
O  O197  1  0.15175734  0.39306150  0.44628660  1  -1.179618  0  -0.329601  -0.560092  0  2.336414  0
O  O198  1  0.07801415  0.58858946  0.53067375  1  -1.159407  0  -0.313171  -0.543287  0  2.443176  0
O  O199  1  0.00507140  0.65507144  0.44852144  1  -1.182049  0  -0.33099  -0.557565  0  2.349688  0
O  O200  1  0.89042238  0.49851062  0.44172201  1  -1.176671  0  -0.315098  -0.546895  0  2.450005  0
O  O201  1  0.88891015  0.65492399  0.44762215  1  -1.172049  0  -0.32066  -0.553177  0  2.330386  0
O  O202  1  0.99466822  0.38525899  0.44205268  1  -1.172925  0  -0.312065  -0.543193  0  2.321184  0
O  O203  1  0.87532660  0.52728429  0.58271894  1  -1.182864  0  -0.323018  -0.56039  0  2.319165  0
O  O204  1  0.81711639  0.57698238  0.52391124  1  -1.146419  0  -0.328176  -0.553452  0  2.350364  0
O  O205  1  0.74978673  0.24958846  0.25074945  1  -1.219511  0  -0.571291  -1.020121  0  2.535707  0
O  O206  1  0.59662276  0.35702752  0.30339380  1  -1.178768  0  -0.328554  -0.555723  0  2.343945  0
O  O207  1  0.66086302  0.16565981  0.21879127  1  -1.168648  0  -0.315911  -0.547505  0  2.321185  0
O  O208  1  0.72405749  0.37541757  0.16829490  1  -1.170801  0  -0.322643  -0.557134  0  2.328431  0
O  O209  1  0.59281959  0.24328274  0.30010285  1  -1.179604  0  -0.322881  -0.560694  0  2.322189  0
O  O210  1  0.67376184  0.43321483  0.22723543  1  -1.179635  0  -0.32944  -0.557649  0  2.341615  0
O  O211  1  0.72497918  0.21429454  0.16664342  1  -1.172299  0  -0.313518  -0.544235  0  2.445588  0
O  O212  1  0.87706001  0.22651282  0.17061753  1  -1.17886  0  -0.329547  -0.554895  0  2.349152  0
O  O213  1  0.86551584  0.25378854  0.30756367  1  -1.174095  0  -0.317023  -0.54996  0  2.332372  0
O  O214  1  0.93610327  0.17036661  0.22879167  1  -1.173162  0  -0.324009  -0.560756  0  2.325225  0
O  O215  1  0.75429504  0.36136610  0.30836472  1  -1.177511  0  -0.309872  -0.537383  0  2.335164  0
O  O216  1  0.74684083  0.09304044  0.29902285  1  -1.183263  0  -0.330672  -0.559893  0  2.339802  0
O  O217  1  0.85977594  0.09666582  0.30435014  1  -1.167352  0  -0.324564  -0.559178  0  2.323671  0
O  O218  1  0.25034150  0.74901981  0.75017411  1  -1.230408  0  -0.571734  -1.021059  0  2.535332  0
O  O219  1  0.37541499  0.72606929  0.66809688  1  -1.176077  0  -0.324443  -0.559821  0  2.325063  0
O  O220  1  0.36513498  0.75444134  0.80834173  1  -1.167281  0  -0.315931  -0.548012  0  2.320958  0
O  O221  1  0.17198752  0.93270068  0.72653127  1  -1.154704  0  -0.327196  -0.553421  0  2.347526  0
O  O222  1  0.43263707  0.67308260  0.72708209  1  -1.183778  0  -0.331034  -0.560594  0  2.341148  0
O  O223  1  0.22297293  0.87480511  0.66765491  1  -1.175086  0  -0.324485  -0.561404  0  2.324308  0
O  O224  1  0.25287404  0.85978588  0.80753051  1  -1.177721  0  -0.31274  -0.543062  0  2.445068  0
O  O225  1  0.09554216  0.85678072  0.80257185  1  -1.16958  0  -0.327784  -0.553454  0  2.349489  0
O  O226  1  0.16256304  0.66507266  0.71937830  1  -1.160356  0  -0.312437  -0.543917  0  2.331245  0
O  O227  1  0.09252187  0.74232925  0.80029085  1  -1.16736  0  -0.322798  -0.55878  0  2.323872  0
O  O228  1  0.22187081  0.71572597  0.66504263  1  -1.158923  0  -0.315662  -0.544893  0  2.340284  0
O  O229  1  0.36000030  0.59684820  0.80403768  1  -1.174271  0  -0.321965  -0.557385  0  2.3194  0
O  O230  1  0.24696966  0.59272367  0.79941790  1  -1.183436  0  -0.331293  -0.558004  0  2.344545  0
O  O231  1  0.49999468  0.99955194  0.00025489  1  -1.229819  0  -0.571317  -1.019953  0  2.536995  0
O  O232  1  0.50414982  0.15560943  0.94973740  1  -1.182191  0  -0.330221  -0.557749  0  2.344311  0
O  O233  1  0.38869087  0.99718782  0.94082140  1  -1.179369  0  -0.317205  -0.547842  0  2.339843  0
O  O234  1  0.65241613  0.89356280  0.94679862  1  -1.183795  0  -0.328997  -0.556296  0  2.346838  0
O  O235  1  0.38910133  0.15428295  0.94711941  1  -1.175151  0  -0.323698  -0.559403  0  2.32635  0
O  O236  1  0.65755052  0.00647830  0.95058238  1  -1.173191  0  -0.323426  -0.558653  0  2.324016  0
O  O237  1  0.49635352  0.88607831  0.94201953  1  -1.168723  0  -0.309316  -0.539621  0  2.329192  0
O  O238  1  0.57646709  0.81670964  0.02321478  1  -1.165829  0  -0.329689  -0.556897  0  2.34509  0
O  O239  1  0.53136958  0.02963774  0.08655080  1  -1.171893  0  -0.313132  -0.544031  0  2.330464  0
O  O240  1  0.52479596  0.87450369  0.08212002  1  -1.175676  0  -0.322825  -0.558947  0  2.325131  0
O  O241  1  0.58268561  0.08683857  0.03146367  1  -1.169385  0  -0.312864  -0.540705  0  2.336669  0
O  O242  1  0.31413677  0.07722960  0.02167824  1  -1.146558  0  -0.323831  -0.559395  0  2.322012  0
O  O243  1  0.37386778  0.02733277  0.08000305  1  -1.179934  0  -0.330384  -0.558016  0  2.344893  0
