# generated using pymatgen
data_CdH13C15NO5
_symmetry_space_group_name_H-M   'P 1'
_cell_length_a   7.64971234
_cell_length_b   9.73133439
_cell_length_c   11.65718735
_cell_angle_alpha   113.95321914
_cell_angle_beta   107.37012787
_cell_angle_gamma   91.12479445
_symmetry_Int_Tables_number   1
_chemical_formula_structural   CdH13C15NO5
_chemical_formula_sum   'Cd2 H26 C30 N2 O10'
_cell_volume   746.94903530
_cell_formula_units_Z   2
loop_
 _symmetry_equiv_pos_site_id
 _symmetry_equiv_pos_as_xyz
  1  'x, y, z'
loop_
 _atom_site_type_symbol
 _atom_site_label
 _atom_site_symmetry_multiplicity
 _atom_site_fract_x
 _atom_site_fract_y
 _atom_site_fract_z
 _atom_site_occupancy
 _atom_site_hle17_bader_spin_density
 _atom_site_hle17_ddec_charge
 _atom_site_hle17_ddec_spin_density
 _atom_site_hle17_ddec_sum_bond_order
 _atom_site_hle17_magmom
 _atom_site_hse06_10hf_bader_spin_density
 _atom_site_hse06_10hf_ddec_charge
 _atom_site_hse06_10hf_ddec_spin_density
 _atom_site_hse06_10hf_ddec_sum_bond_order
 _atom_site_hse06_10hf_magmom
 _atom_site_hse06_bader_spin_density
 _atom_site_hse06_ddec_charge
 _atom_site_hse06_ddec_spin_density
 _atom_site_hse06_ddec_sum_bond_order
 _atom_site_hse06_magmom
 _atom_site_pbe_bader_spin_density
 _atom_site_pbe_cm5_charge
 _atom_site_pbe_ddec_charge
 _atom_site_pbe_ddec_spin_density
 _atom_site_pbe_ddec_sum_bond_order
 _atom_site_pbe_magmom
Cd  Cd0  1  0.24162715  0.48641761  0.00620775  1  0  1.245156  0  1.569672  0  0  1.076493  0  2.003077  0  0  1.138354  0  1.943258  0  0  0.780788  1.031882  0  2.044179  0
Cd  Cd1  1  0.75837108  0.51357900  0.99379765  1  0  1.245156  0  1.569624  0  0  1.076497  0  2.003021  0  0  1.138359  0  1.943201  0  0  0.780773  1.031836  0  2.044218  0
H  H2  1  0.62286556  0.29992887  0.69283653  1  0  0.098132  0  0.981257  0  0  0.105657  0  1.052144  0  0  0.108482  0  1.050275  0  0  0.1019  0.103537  0  1.0536  0
H  H3  1  0.37713681  0.70006772  0.30716025  1  0  0.098148  0  0.981225  0  0  0.105678  0  1.052109  0  0  0.108495  0  1.050259  0  0  0.10189  0.103556  0  1.053561  0
H  H4  1  0.96135889  0.94781940  0.65631520  1  0  0.099454  0  0.950617  0  0  0.111265  0  1.008292  0  0  0.114927  0  1.005952  0  0  0.10508  0.108573  0  1.010174  0
H  H5  1  0.03863618  0.05218179  0.34368942  1  0  0.099375  0  0.95059  0  0  0.111198  0  1.008261  0  0  0.114861  0  1.005921  0  0  0.105046  0.108506  0  1.010142  0
H  H6  1  0.49798083  0.58040806  0.60427621  1  0  0.097297  0  0.97347  0  0  0.106317  0  1.038199  0  0  0.109205  0  1.037113  0  0  0.103391  0.104158  0  1.03908  0
H  H7  1  0.50201726  0.41960110  0.39572828  1  0  0.097242  0  0.973547  0  0  0.106263  0  1.038283  0  0  0.10915  0  1.037193  0  0  0.103362  0.104104  0  1.039162  0
H  H8  1  0.25877728  0.56526437  0.39703438  1  0  0.105405  0  0.958485  0  0  0.113474  0  1.024513  0  0  0.116516  0  1.023109  0  0  0.10313  0.111502  0  1.025103  0
H  H9  1  0.74122762  0.43473791  0.60296740  1  0  0.105455  0  0.958453  0  0  0.113468  0  1.024549  0  0  0.116511  0  1.023145  0  0  0.103131  0.111501  0  1.025135  0
H  H10  1  0.06854036  0.46921243  0.73572594  1  0  0.110542  0  0.980745  0  0  0.118392  0  1.04663  0  0  0.121954  0  1.04403  0  0  0.103137  0.115769  0  1.048615  0
H  H11  1  0.93146040  0.53078302  0.26427100  1  0  0.110528  0  0.980741  0  0  0.118308  0  1.046718  0  0  0.121866  0  1.044114  0  0  0.103117  0.115689  0  1.048694  0
H  H12  1  0.54738088  0.78463353  0.12171150  1  0  0.059241  0  0.955173  0  0  0.06719  0  1.026547  0  0  0.069056  0  1.021712  0  0  0.124195  0.065692  0  1.030081  0
H  H13  1  0.45262405  0.21537559  0.87829518  1  0  0.059331  0  0.955194  0  0  0.067226  0  1.026611  0  0  0.06913  0  1.02173  0  0  0.124242  0.065727  0  1.030147  0
H  H14  1  0.71199138  0.00353875  0.22014145  1  0  0.114521  0  0.95582  0  0  0.131993  0  1.022175  0  0  0.133706  0  1.020421  0  0  0.109378  0.13057  0  1.023611  0
H  H15  1  0.28800855  0.99646585  0.77985070  1  0  0.11457  0  0.95576  0  0  0.132047  0  1.022094  0  0  0.133759  0  1.020341  0  0  0.109405  0.130622  0  1.02353  0
H  H16  1  0.58943799  0.13970850  0.30904838  1  0  0.09605  0  0.948532  0  0  0.115722  0  1.011498  0  0  0.115335  0  1.013833  0  0  0.099262  0.115888  0  1.009921  0
H  H17  1  0.41056355  0.86029722  0.69094362  1  0  0.096047  0  0.94859  0  0  0.115698  0  1.011576  0  0  0.115311  0  1.013909  0  0  0.09925  0.115864  0  1.009999  0
H  H18  1  0.63426930  0.15017425  0.17127314  1  0  0.101569  0  0.94492  0  0  0.119003  0  1.010601  0  0  0.119267  0  1.011811  0  0  0.102468  0.118661  0  1.009992  0
H  H19  1  0.36571919  0.84982128  0.82871368  1  0  0.101571  0  0.944789  0  0  0.118941  0  1.010572  0  0  0.119205  0  1.011779  0  0  0.10245  0.1186  0  1.009961  0
H  H20  1  0.15783301  0.95226524  0.99576072  1  0  0.111592  0  0.937946  0  0  0.132376  0  0.997261  0  0  0.133904  0  0.996104  0  0  0.110903  0.131161  0  0.998215  0
H  H21  1  0.84216572  0.04773365  0.00423697  1  0  0.111534  0  0.937975  0  0  0.132342  0  0.997273  0  0  0.133871  0  0.996113  0  0  0.110885  0.131126  0  0.998227  0
H  H22  1  0.29953266  0.13611947  0.06850002  1  0  0.115798  0  0.947572  0  0  0.134949  0  1.010879  0  0  0.135848  0  1.010548  0  0  0.106312  0.134277  0  1.011193  0
H  H23  1  0.70046333  0.86387943  0.93149629  1  0  0.115798  0  0.947541  0  0  0.134934  0  1.010868  0  0  0.135833  0  1.010536  0  0  0.106323  0.134263  0  1.01118  0
H  H24  1  0.20453579  0.07826417  0.16711567  1  0  0.096398  0  0.931631  0  0  0.118214  0  0.993655  0  0  0.118011  0  0.994548  0  0  0.102795  0.118301  0  0.9931  0
H  H25  1  0.79546521  0.92173242  0.83288256  1  0  0.096344  0  0.93163  0  0  0.118146  0  0.99368  0  0  0.117943  0  0.994572  0  0  0.10277  0.118234  0  0.993126  0
H  H26  1  0.29581163  0.23935958  0.53778958  1  0  0.09332  0  0.9801  0  0  0.102909  0  1.043218  0  0  0.104499  0  1.044726  0  0  0.097166  0.102108  0  1.041438  0
H  H27  1  0.70420013  0.76064265  0.46221010  1  0  0.093272  0  0.980332  0  0  0.102846  0  1.043442  0  0  0.104445  0  1.04494  0  0  0.097151  0.102043  0  1.04166  0
C  C28  1  0.96358138  0.24644417  0.80357068  1  0  0.647984  0  3.895462  0  0  0.597469  0  4.185467  0  0  0.632691  0  4.179163  0  0  0.202006  0.573409  0  4.189007  0
C  C29  1  0.03641892  0.75355584  0.19643457  1  0  0.647981  0  3.895503  0  0  0.597512  0  4.185441  0  0  0.632734  0  4.179135  0  0  0.202087  0.573452  0  4.188976  0
C  C30  1  0.80608030  0.13571987  0.68707449  1  0  -0.054843  0  3.757779  0  0  -0.031956  0  3.992834  0  0  -0.039465  0  4.015833  0  0  -0.017153  -0.026925  0  3.97713  0
C  C31  1  0.19392364  0.86427784  0.31292985  1  0  -0.054859  0  3.75812  0  0  -0.031973  0  3.993138  0  0  -0.039482  0  4.016137  0  0  -0.017138  -0.026943  0  3.97743  0
C  C32  1  0.63879339  0.18158873  0.64249210  1  0  -0.112085  0  3.693903  0  0  -0.144233  0  3.944524  0  0  -0.144245  0  3.963941  0  0  -0.080427  -0.144009  0  3.930964  0
C  C33  1  0.36120692  0.81841129  0.35751230  1  0  -0.112053  0  3.693973  0  0  -0.144231  0  3.944583  0  0  -0.144244  0  3.963995  0  0  -0.080393  -0.144004  0  3.93102  0
C  C34  1  0.48824941  0.07770319  0.53314576  1  0  0.058552  0  3.782857  0  0  0.076168  0  4.007672  0  0  0.075871  0  4.031488  0  0  -0.005581  0.076285  0  3.991616  0
C  C35  1  0.51175365  0.92229682  0.46685574  1  0  0.058574  0  3.783003  0  0  0.076243  0  4.007749  0  0  0.075953  0  4.031561  0  0  -0.005553  0.076361  0  3.991688  0
C  C36  1  0.82837927  0.98167628  0.62079485  1  0  -0.077122  0  3.756721  0  0  -0.101255  0  4.005374  0  0  -0.101643  0  4.02505  0  0  -0.08624  -0.100971  0  3.992187  0
C  C37  1  0.17162375  0.01831688  0.37920433  1  0  -0.07698  0  3.757018  0  0  -0.101118  0  4.005668  0  0  -0.101506  0  4.025343  0  0  -0.086207  -0.100832  0  3.992477  0
C  C38  1  0.44370164  0.51651764  0.79535701  1  0  0.641204  0  3.925154  0  0  0.588623  0  4.219067  0  0  0.624233  0  4.212449  0  0  0.198626  0.564367  0  4.22291  0
C  C39  1  0.55629707  0.48348124  0.20464583  1  0  0.641199  0  3.925284  0  0  0.588636  0  4.219166  0  0  0.624247  0  4.212545  0  0  0.198547  0.56438  0  4.223007  0
C  C40  1  0.29705879  0.52297806  0.68085782  1  0  -0.069652  0  3.78925  0  0  -0.045966  0  4.027233  0  0  -0.05379  0  4.04869  0  0  -0.020842  -0.04099  0  4.013032  0
C  C41  1  0.70293470  0.47702201  0.31913753  1  0  -0.069606  0  3.789224  0  0  -0.045929  0  4.027196  0  0  -0.053759  0  4.048656  0  0  -0.020811  -0.040949  0  4.012987  0
C  C42  1  0.35065894  0.55330261  0.58573598  1  0  -0.091115  0  3.77645  0  0  -0.116148  0  4.029785  0  0  -0.116444  0  4.05  0  0  -0.091087  -0.11588  0  4.015993  0
C  C43  1  0.64933611  0.44669174  0.41426202  1  0  -0.091066  0  3.776256  0  0  -0.116111  0  4.029599  0  0  -0.116401  0  4.049811  0  0  -0.091048  -0.115844  0  4.015806  0
C  C44  1  0.21915279  0.54595853  0.47237256  1  0  -0.110568  0  3.730473  0  0  -0.128528  0  3.97672  0  0  -0.131454  0  3.997223  0  0  -0.086628  -0.126382  0  3.962115  0
C  C45  1  0.78084909  0.45403577  0.52762849  1  0  -0.110666  0  3.730384  0  0  -0.128598  0  3.976631  0  0  -0.131525  0  3.99713  0  0  -0.086669  -0.126455  0  3.962031  0
C  C46  1  0.11107261  0.49149337  0.66284797  1  0  -0.089541  0  3.66368  0  0  -0.121378  0  3.905113  0  0  -0.119794  0  3.921633  0  0  -0.074042  -0.122271  0  3.893959  0
C  C47  1  0.88893019  0.50849865  0.33714906  1  0  -0.089499  0  3.663616  0  0  -0.121271  0  3.90508  0  0  -0.119677  0  3.921596  0  0  -0.074017  -0.122166  0  3.893917  0
C  C48  1  0.02731978  0.51285086  0.45093213  1  0  0.059497  0  3.787864  0  0  0.079187  0  4.007287  0  0  0.078524  0  4.031714  0  0  -0.003372  0.079498  0  3.990907  0
C  C49  1  0.97268003  0.48714003  0.54906565  1  0  0.059591  0  3.787883  0  0  0.079332  0  4.007264  0  0  0.078675  0  4.031691  0  0  -0.00332  0.079642  0  3.990887  0
C  C50  1  0.41513003  0.82105560  0.08468598  1  0  0.379049  0  3.797554  0  0  0.301843  0  4.088899  0  0  0.329923  0  4.09126  0  0  0.167215  0.282989  0  4.086727  0
C  C51  1  0.58487193  0.17895240  0.91531888  1  0  0.379076  0  3.797836  0  0  0.301895  0  4.089224  0  0  0.329954  0  4.091574  0  0  0.167152  0.283044  0  4.087051  0
C  C52  1  0.60082444  0.07179106  0.21062854  1  0  -0.177079  0  3.643919  0  0  -0.275728  0  3.888443  0  0  -0.272933  0  3.899751  0  0  -0.13277  -0.277406  0  3.88106  0
C  C53  1  0.39917526  0.92821239  0.78936318  1  0  -0.177047  0  3.643936  0  0  -0.275643  0  3.88845  0  0  -0.272844  0  3.899762  0  0  -0.132757  -0.277315  0  3.881066  0
C  C54  1  0.26235711  0.03833463  0.08540873  1  0  -0.167218  0  3.624354  0  0  -0.268281  0  3.867428  0  0  -0.264235  0  3.87669  0  0  -0.132031  -0.270936  0  3.861328  0
C  C55  1  0.73763912  0.96166542  0.91458801  1  0  -0.167038  0  3.624412  0  0  -0.268093  0  3.867483  0  0  -0.264045  0  3.876749  0  0  -0.132008  -0.270742  0  3.861369  0
C  C56  1  0.31467730  0.12185364  0.48667210  1  0  -0.10589  0  3.727139  0  0  -0.122596  0  3.97176  0  0  -0.125316  0  3.99321  0  0  -0.087536  -0.120618  0  3.956614  0
C  C57  1  0.68532050  0.87814069  0.51332387  1  0  -0.105784  0  3.727278  0  0  -0.122476  0  3.971861  0  0  -0.1252  0  3.993295  0  0  -0.087496  -0.120495  0  3.956713  0
N  N58  1  0.42671567  0.97056673  0.12053049  1  0  -0.081281  0  3.500357  0  0  0.022762  0  3.735744  0  0  0.002712  0  3.761557  0  0  -0.279655  0.03627  0  3.717942  0
N  N59  1  0.57328284  0.02943102  0.87946507  1  0  -0.081527  0  3.500538  0  0  0.022537  0  3.735898  0  0  0.002472  0  3.761744  0  0  -0.279648  0.036046  0  3.718095  0
O  O60  1  0.11150622  0.20245430  0.84812656  1  0  -0.607747  0  1.921509  0  0  -0.555979  0  2.152203  0  0  -0.581803  0  2.142476  0  0  -0.310734  -0.537805  0  2.158125  0
O  O61  1  0.88849684  0.79754570  0.15187580  1  0  -0.607737  0  1.9214  0  0  -0.555986  0  2.152082  0  0  -0.581809  0  2.142351  0  0  -0.310778  -0.537809  0  2.158002  0
O  O62  1  0.40455821  0.43942811  0.85344390  1  0  -0.697594  0  2.086309  0  0  -0.627218  0  2.347557  0  0  -0.659615  0  2.336876  0  0  -0.334879  -0.604416  0  2.35395  0
O  O63  1  0.59544120  0.56057419  0.14655939  1  0  -0.697586  0  2.086248  0  0  -0.627212  0  2.347476  0  0  -0.659604  0  2.336785  0  0  -0.33485  -0.604409  0  2.353869  0
O  O64  1  0.26636982  0.72749048  0.01426149  1  0  -0.557778  0  2.071378  0  0  -0.496022  0  2.330709  0  0  -0.524297  0  2.324192  0  0  -0.317402  -0.476144  0  2.334384  0
O  O65  1  0.73362453  0.27250728  0.98574697  1  0  -0.557743  0  2.071684  0  0  -0.496  0  2.330993  0  0  -0.524277  0  2.324495  0  0  -0.317391  -0.476121  0  2.334668  0
O  O66  1  0.94421221  0.38965384  0.85383136  1  0  -0.708752  0  2.066023  0  0  -0.626532  0  2.323571  0  0  -0.661153  0  2.311289  0  0  -0.340829  -0.602155  0  2.331258  0
O  O67  1  0.05578720  0.61034847  0.14617364  1  0  -0.708718  0  2.066006  0  0  -0.626535  0  2.323562  0  0  -0.661152  0  2.311274  0  0  -0.340855  -0.602161  0  2.331249  0
O  O68  1  0.60916613  0.58163281  0.82767826  1  0  -0.622665  0  1.959827  0  0  -0.558353  0  2.20173  0  0  -0.587015  0  2.190161  0  0  -0.316593  -0.538142  0  2.209065  0
O  O69  1  0.39083377  0.41837862  0.17233250  1  0  -0.622711  0  1.959899  0  0  -0.558403  0  2.20179  0  0  -0.587063  0  2.19022  0  0  -0.316591  -0.538197  0  2.209124  0
