# generated using pymatgen
data_CuH15C16(N3O)4
_symmetry_space_group_name_H-M   'P 1'
_cell_length_a   8.20762994
_cell_length_b   10.86180805
_cell_length_c   12.16922431
_cell_angle_alpha   80.60320526
_cell_angle_beta   80.11908407
_cell_angle_gamma   87.36596201
_symmetry_Int_Tables_number   1
_chemical_formula_structural   CuH15C16(N3O)4
_chemical_formula_sum   'Cu2 H30 C32 N24 O8'
_cell_volume   1054.26874742
_cell_formula_units_Z   2
loop_
 _symmetry_equiv_pos_site_id
 _symmetry_equiv_pos_as_xyz
  1  'x, y, z'
loop_
 _atom_site_type_symbol
 _atom_site_label
 _atom_site_symmetry_multiplicity
 _atom_site_fract_x
 _atom_site_fract_y
 _atom_site_fract_z
 _atom_site_occupancy
 _atom_site_hle17_ddec_charge
 _atom_site_hle17_ddec_spin_density
 _atom_site_hle17_ddec_sum_bond_order
 _atom_site_hle17_magmom
 _atom_site_hse06_10hf_ddec_charge
 _atom_site_hse06_10hf_ddec_spin_density
 _atom_site_hse06_10hf_ddec_sum_bond_order
 _atom_site_hse06_10hf_magmom
 _atom_site_hse06_ddec_charge
 _atom_site_hse06_ddec_spin_density
 _atom_site_hse06_ddec_sum_bond_order
 _atom_site_hse06_magmom
 _atom_site_pbe_cm5_charge
 _atom_site_pbe_ddec_charge
 _atom_site_pbe_ddec_spin_density
 _atom_site_pbe_ddec_sum_bond_order
 _atom_site_pbe_magmom
Cu  Cu0  1  0.28498936  0.52451160  0.08393773  1  0.656282  0.671956  2.073175  0.481  0.598111  0.779036  2.490823  0.603  0.676116  0.865476  2.435474  0.694  0.813534  0.550923  0.675752  2.530125  0.512
Cu  Cu1  1  0.71500635  0.47548627  0.91606518  1  0.656333  -0.671975  2.073242  -0.481  0.598182  -0.779039  2.490929  -0.603  0.676201  -0.865478  2.435565  -0.694  0.813595  0.551025  -0.675745  2.530216  -0.512
H  H2  1  0.10211696  0.31551920  0.27787518  1  0.108028  0.000688  0.909476  0.001  0.117109  0.000933  0.964286  0.001  0.119115  0.00071  0.962077  0.001  0.141255  0.115524  0.00104  0.966279  0.001
H  H3  1  0.89787529  0.68446747  0.72212318  1  0.108044  -0.000687  0.909329  -0.001  0.117117  -0.000933  0.964236  -0.001  0.119125  -0.000711  0.962029  -0.001  0.14129  0.11558  -0.00104  0.96617  -0.001
H  H4  1  0.84366274  0.19115874  0.28623986  1  0.134099  6.3e-05  0.917625  0.0  0.148167  4e-05  0.963398  0.0  0.151622  2.9e-05  0.963105  0.0  0.131539  0.145242  4.7e-05  0.964386  0.0
H  H5  1  0.15632836  0.80882421  0.71375754  1  0.134113  -6.6e-05  0.917665  0.0  0.14817  -4e-05  0.963433  0.0  0.151623  -2.8e-05  0.963144  0.0  0.131537  0.145268  -4.7e-05  0.964393  0.0
H  H6  1  0.66843120  0.25579765  0.13504652  1  0.115449  -0.000525  0.953179  -0.001  0.114467  -0.000738  1.025963  -0.001  0.117654  -0.000559  1.021677  -0.001  0.131598  0.112124  -0.000822  1.029359  -0.001
H  H7  1  0.33154853  0.74419748  0.86495283  1  0.115392  0.000529  0.953044  0.001  0.114324  0.000739  1.025948  0.001  0.117509  0.00056  1.021662  0.001  0.131589  0.111982  0.000822  1.029343  0.001
H  H8  1  0.52801416  0.16897320  0.35586249  1  0.122733  -2.8e-05  0.962068  0.0  0.139073  -1.3e-05  1.029964  0.0  0.140726  -7e-06  1.028641  0.0  0.110806  0.137865  -1.5e-05  1.030917  0.0
H  H9  1  0.47199008  0.83103490  0.64413303  1  0.122786  2.3e-05  0.962104  0.0  0.138994  1.3e-05  1.03013  0.0  0.140647  8e-06  1.02881  0.0  0.110813  0.137786  1.5e-05  1.031082  0.0
H  H10  1  0.46417720  0.09165865  0.49759534  1  0.099947  2.2e-05  0.949345  0.0  0.120252  -0.0  1.011818  0.0  0.121  2e-06  1.011274  0.0  0.105831  0.11969  -2e-06  1.01213  0.0
H  H11  1  0.53582710  0.90834664  0.50239812  1  0.099938  -2.7e-05  0.949395  0.0  0.120246  -0.0  1.011844  0.0  0.120992  -2e-06  1.011303  0.0  0.105836  0.119684  2e-06  1.012156  0.0
H  H12  1  0.64988660  0.17871057  0.46450130  1  0.103667  0.00013  0.9259  0.0  0.12156  8e-06  0.991201  0.0  0.122336  7e-06  0.990274  0.0  0.105503  0.120979  1.1e-05  0.991949  0.0
H  H13  1  0.35012149  0.82129004  0.53549406  1  0.103679  -0.000135  0.925906  0.0  0.121596  -9e-06  0.991158  0.0  0.122373  -7e-06  0.99023  0.0  0.105542  0.121015  -1.1e-05  0.99191  0.0
H  H14  1  0.15939171  0.35052807  0.77207361  1  0.110781  -3.5e-05  0.912382  0.0  0.134704  -1.2e-05  0.967912  0.0  0.134587  1e-06  0.967948  0.0  0.105985  0.134605  -2.7e-05  0.968123  0.0
H  H15  1  0.84062133  0.64947066  0.22792394  1  0.110807  3.8e-05  0.912315  0.0  0.134704  1.2e-05  0.967896  0.0  0.134585  -1e-06  0.967928  0.0  0.105963  0.134604  2.7e-05  0.96811  0.0
H  H16  1  0.21674590  0.51138481  0.73466800  1  0.089505  -1.1e-05  1.005484  0.0  0.106586  -1.1e-05  1.074598  0.0  0.106784  -8e-06  1.076109  0.0  0.097338  0.106531  -1.4e-05  1.073456  0.0
H  H17  1  0.78326465  0.48861300  0.26533407  1  0.0894  1.2e-05  1.005554  0.0  0.106547  1.1e-05  1.074605  0.0  0.106745  8e-06  1.076117  0.0  0.097318  0.106493  1.4e-05  1.073461  0.0
H  H18  1  0.36851999  0.39332016  0.76771117  1  0.104484  7.9e-05  0.961841  0.0  0.119978  4.7e-05  1.030273  0.0  0.120001  4e-05  1.031996  0.0  0.102872  0.119913  4.6e-05  1.029066  0.0
H  H19  1  0.63149307  0.60667764  0.23228569  1  0.104454  -7.8e-05  0.961899  0.0  0.119965  -4.7e-05  1.030311  0.0  0.119987  -4e-05  1.032033  0.0  0.102922  0.119887  -4.6e-05  1.029123  0.0
H  H20  1  0.17051354  0.94757463  0.94621064  1  0.096973  4.1e-05  0.962472  0.0  0.114214  -2.3e-05  1.030985  0.0  0.114176  -1.6e-05  1.03214  0.0  0.103917  0.114224  -2.2e-05  1.030214  0.0
H  H21  1  0.82948713  0.05242415  0.05378911  1  0.096962  -4.1e-05  0.962456  0.0  0.114204  2.3e-05  1.030965  0.0  0.114166  1.6e-05  1.032124  0.0  0.103929  0.114216  2.2e-05  1.030191  0.0
H  H22  1  0.12594717  0.07803507  0.84356724  1  0.11281  -0.000258  0.922331  0.0  0.132967  -4.3e-05  0.982784  0.0  0.134113  -2.4e-05  0.981346  0.0  0.108591  0.13208  -7.1e-05  0.983924  0.0
H  H23  1  0.87404982  0.92195999  0.15643593  1  0.112811  0.000258  0.92234  0.0  0.132975  4.3e-05  0.982777  0.0  0.134123  2.4e-05  0.981342  0.0  0.108594  0.132088  7.1e-05  0.983919  0.0
H  H24  1  0.10914931  0.09578515  0.98791849  1  0.110106  -0.000112  0.935892  0.0  0.131514  -8e-05  0.99624  0.0  0.132305  -4.5e-05  0.996216  0.0  0.111658  0.130937  -0.000112  0.996263  0.0
H  H25  1  0.89085020  0.90420897  0.01208208  1  0.110127  0.000113  0.935846  0.0  0.131516  8e-05  0.996213  0.0  0.132335  4.5e-05  0.996156  0.0  0.111666  0.130939  0.000112  0.996235  0.0
H  H26  1  0.87806463  0.02319464  0.76260817  1  0.108734  -1.6e-05  0.951247  0.0  0.128458  -1.1e-05  1.011452  0.0  0.13036  -1e-05  1.009836  0.0  0.109656  0.127016  -9e-06  1.012653  0.0
H  H27  1  0.12193579  0.97681814  0.23739038  1  0.108749  1.4e-05  0.951172  0.0  0.12842  1.1e-05  1.011436  0.0  0.130323  1e-05  1.009824  0.0  0.109633  0.126979  9e-06  1.012639  0.0
H  H28  1  0.73451030  0.00197129  0.67161411  1  0.105383  2.2e-05  0.914939  0.0  0.130236  8e-06  0.967745  0.0  0.130939  8e-06  0.967516  0.0  0.109884  0.129545  6e-06  0.968109  0.0
H  H29  1  0.26548766  0.99803964  0.32838581  1  0.105322  -2.4e-05  0.915064  0.0  0.130174  -8e-06  0.967861  0.0  0.130888  -8e-06  0.967623  0.0  0.109844  0.129491  -6e-06  0.968217  0.0
H  H30  1  0.74472119  0.88963215  0.79519326  1  0.099406  -2.4e-05  0.955303  0.0  0.112968  -1.8e-05  1.029952  0.0  0.113843  -1.6e-05  1.029703  0.0  0.100455  0.112284  -1.7e-05  1.030178  0.0
H  H31  1  0.25528672  0.11037687  0.20480418  1  0.099535  2e-05  0.955238  0.0  0.113118  1.8e-05  1.029856  0.0  0.113998  1.6e-05  1.029602  0.0  0.100492  0.112435  1.7e-05  1.030081  0.0
C  C32  1  0.02329138  0.33422269  0.21337440  1  0.218579  -0.00043  3.588838  -0.001  0.179777  0.000924  3.850524  0.0  0.197009  0.00023  3.858571  -0.001  0.09813  0.167475  0.001527  3.846403  0.001
C  C33  1  0.97670949  0.66576303  0.78662889  1  0.218847  0.00041  3.588449  0.001  0.179868  -0.000923  3.850357  0.0  0.197095  -0.000229  3.858407  0.001  0.09819  0.167532  -0.001527  3.846236  -0.001
C  C34  1  0.88113961  0.26694582  0.21758471  1  -0.120696  0.000972  3.602727  0.001  -0.13197  0.000397  3.848847  0.0  -0.142344  0.000362  3.863346  0.0  -0.045488  -0.125913  0.000365  3.840985  0.0
C  C35  1  0.11886609  0.73304827  0.78241517  1  -0.120948  -0.000937  3.602824  -0.001  -0.132136  -0.0004  3.848912  0.0  -0.142509  -0.000362  3.863407  0.0  -0.045494  -0.126103  -0.000366  3.841058  0.0
C  C36  1  0.78404358  0.30184691  0.13376215  1  0.204169  -0.000376  3.571341  0.0  0.167805  -0.000699  3.831999  0.0  0.183577  -0.000282  3.84211  0.001  0.089787  0.156409  -0.000875  3.826627  0.0
C  C37  1  0.21594848  0.69814910  0.86623815  1  0.204598  0.000346  3.571694  0.0  0.16827  0.0007  3.832301  0.0  0.18404  0.000282  3.842407  -0.001  0.089964  0.15688  0.000875  3.826924  0.0
C  C38  1  0.97290224  0.45149413  0.04789992  1  0.31711  -0.000671  3.758949  -0.001  0.292348  -0.000189  4.014212  0.0  0.309521  -0.000237  4.026367  0.0  0.262301  0.279693  -0.000153  4.008287  0.0
C  C39  1  0.02709597  0.54850280  0.95210202  1  0.316928  0.00066  3.758832  0.001  0.292192  0.00019  4.013984  0.0  0.309362  0.000238  4.026134  0.0  0.262214  0.279537  0.000155  4.00806  0.0
C  C40  1  0.38005347  0.37484950  0.39100825  1  0.255815  0.004645  3.883174  0.005  0.219274  0.002621  4.162455  0.004  0.232532  0.001757  4.180456  0.002  0.206086  0.210599  0.003021  4.149871  0.004
C  C41  1  0.61994216  0.62515490  0.60899124  1  0.255681  -0.004663  3.883275  -0.005  0.219135  -0.002617  4.162596  -0.004  0.232393  -0.001758  4.180599  -0.002  0.206017  0.210459  -0.00302  4.15001  -0.004
C  C42  1  0.52439612  0.17414698  0.44528331  1  -0.152975  -2e-06  3.64165  0.0  -0.258121  2.3e-05  3.896  0.0  -0.253159  2e-06  3.903412  0.0  -0.13235  -0.261315  5.6e-05  3.890768  0.0
C  C43  1  0.47561064  0.82585830  0.55471234  1  -0.153015  2.8e-05  3.641673  0.0  -0.258033  -2.2e-05  3.896062  0.0  -0.253068  -2e-06  3.903474  0.0  -0.132396  -0.261228  -5.6e-05  3.89083  0.0
C  C44  1  0.38447275  0.29753080  0.58488404  1  0.606142  -0.000612  3.849517  -0.001  0.539332  -8.5e-05  4.148184  0.0  0.573696  -0.000125  4.146207  0.0  0.331678  0.516188  -6.3e-05  4.14868  0.0
C  C45  1  0.61553910  0.70246606  0.41511228  1  0.606121  0.000608  3.849738  0.001  0.53938  8.8e-05  4.148374  0.0  0.573744  0.000123  4.146398  0.0  0.331633  0.516237  6.3e-05  4.148875  0.0
C  C46  1  0.25760794  0.41542667  0.72926498  1  -0.145551  0.000185  3.64927  0.0  -0.250934  0.00013  3.904894  0.0  -0.245854  0.000114  3.914793  0.0  -0.14917  -0.254091  0.000127  3.897834  0.0
C  C47  1  0.74240379  0.58457394  0.27073737  1  -0.14548  -0.000194  3.649083  0.0  -0.250933  -0.000128  3.904752  0.0  -0.245848  -0.000115  3.914646  0.0  -0.149208  -0.254077  -0.000127  3.897707  0.0
C  C48  1  0.24482448  0.50645841  0.53117560  1  0.507626  -0.000556  3.846808  0.0  0.458127  -1e-05  4.140572  0.0  0.490477  -7.3e-05  4.137519  0.0  0.232964  0.436238  3.5e-05  4.142027  0.0
C  C49  1  0.75517116  0.49354133  0.46883198  1  0.507382  0.000551  3.847057  0.0  0.458004  1.2e-05  4.140642  0.0  0.490351  7.3e-05  4.137594  0.0  0.232931  0.436117  -3.5e-05  4.142095  0.0
C  C50  1  0.29091892  0.48270426  0.41669162  1  -0.102482  0.004936  3.839777  0.008  -0.106414  0.002481  4.120488  0.004  -0.118275  0.001063  4.140477  0.002  0.06713  -0.098924  0.00341  4.107019  0.005
C  C51  1  0.70908531  0.51730011  0.58331349  1  -0.102396  -0.004912  3.840007  -0.007  -0.106292  -0.002484  4.120599  -0.004  -0.118151  -0.001057  4.14059  -0.002  0.067109  -0.098805  -0.003409  4.107127  -0.005
C  C52  1  0.39107684  0.19362649  0.93689698  1  0.272542  -0.004308  3.866253  -0.004  0.237971  -0.001976  4.141747  -0.002  0.251877  -0.001473  4.15635  -0.002  0.216809  0.228587  -0.002229  4.131561  -0.002
C  C53  1  0.60891509  0.80637793  0.06310128  1  0.272373  0.004305  3.866278  0.004  0.237916  0.001978  4.141692  0.002  0.251815  0.001474  4.156294  0.002  0.216828  0.228531  0.002229  4.131506  0.002
C  C54  1  0.17832353  0.04874297  0.92110115  1  -0.137894  -0.000356  3.628166  0.0  -0.24364  -0.00033  3.885122  0.0  -0.2385  -0.000219  3.893094  0.0  -0.130179  -0.246959  -0.000412  3.87949  0.0
C  C55  1  0.82167471  0.95125302  0.07889929  1  -0.137903  0.000353  3.628143  0.0  -0.243584  0.000331  3.885113  0.0  -0.238473  0.000219  3.893088  0.0  -0.13017  -0.246902  0.000412  3.879479  0.0
C  C56  1  0.47062681  0.02078317  0.84183699  1  0.634176  9.4e-05  3.81732  0.0  0.558705  -6.3e-05  4.13087  0.0  0.593962  -6.8e-05  4.127047  0.0  0.338014  0.534878  -4.6e-05  4.132811  0.0
C  C57  1  0.52937992  0.97922305  0.15816017  1  0.634309  -8.9e-05  3.81708  0.0  0.55884  6.4e-05  4.130722  0.0  0.594098  6.9e-05  4.126894  0.0  0.338129  0.535014  4.6e-05  4.132661  0.0
C  C58  1  0.75602228  0.98885129  0.75945434  1  -0.143235  1.3e-05  3.654032  0.0  -0.244058  -2e-06  3.899005  0.0  -0.239377  -5e-06  3.906774  0.0  -0.135666  -0.246874  2e-06  3.893634  0.0
C  C59  1  0.24398191  0.01115775  0.24054434  1  -0.143359  1e-06  3.6541  0.0  -0.244163  2e-06  3.899056  0.0  -0.239491  3e-06  3.906805  0.0  -0.135676  -0.246988  -2e-06  3.893683  0.0
C  C60  1  0.68906574  0.16880815  0.86052968  1  0.510314  -0.000103  3.849792  0.0  0.458582  8e-06  4.146355  0.0  0.490535  -3.5e-05  4.141748  0.0  0.237083  0.437081  2.4e-05  4.149055  0.0
C  C61  1  0.31092863  0.83119532  0.13947338  1  0.510412  0.000102  3.849437  0.0  0.458718  -7e-06  4.145919  0.0  0.490658  3.7e-05  4.141322  0.0  0.237121  0.437207  -2.4e-05  4.148643  0.0
C  C62  1  0.55178812  0.23707220  0.91410460  1  -0.08706  0.00121  3.812481  0.0  -0.088594  -0.002299  4.078703  -0.003  -0.093971  -0.001456  4.095943  -0.002  0.07729  -0.085422  -0.0027  4.067825  -0.004
C  C63  1  0.44820625  0.76292941  0.08590284  1  -0.087049  -0.001201  3.812476  0.0  -0.088609  0.002299  4.078644  0.003  -0.093952  0.001457  4.095837  0.002  0.077302  -0.085432  0.002702  4.06777  0.004
N  N64  1  0.06805269  0.42728032  0.12782775  1  -0.316805  0.054402  3.280861  0.068  -0.271655  0.045639  3.56834  0.06  -0.30145  0.039198  3.583031  0.054  -0.315588  -0.252329  0.045563  3.560272  0.058
N  N65  1  0.93193826  0.57270917  0.87217199  1  -0.316974  -0.054405  3.280763  -0.068  -0.271738  -0.045648  3.568252  -0.06  -0.301534  -0.039205  3.582939  -0.054  -0.315676  -0.252427  -0.045575  3.560214  -0.058
N  N66  1  0.83187084  0.39488879  0.04833932  1  -0.316242  -0.043296  3.247695  -0.054  -0.270484  -0.040354  3.53493  -0.053  -0.299784  -0.034804  3.548958  -0.048  -0.31573  -0.251392  -0.040228  3.527304  -0.051
N  N67  1  0.16812856  0.60511651  0.95164976  1  -0.31643  0.0433  3.248081  0.054  -0.270591  0.040347  3.535168  0.053  -0.299892  0.034798  3.549213  0.048  -0.315839  -0.251495  0.04022  3.527532  0.051
N  N68  1  0.25931852  0.54973212  0.31782071  1  -0.173864  0.004849  2.914978  0.006  -0.173518  0.004673  3.20247  0.006  -0.171064  0.000975  3.217185  0.001  -0.207621  -0.173767  0.007614  3.192559  0.009
N  N69  1  0.74067475  0.45026482  0.68218179  1  -0.173837  -0.004864  2.914935  -0.006  -0.173494  -0.004668  3.202409  -0.006  -0.17104  -0.000983  3.217123  -0.001  -0.2076  -0.173743  -0.007613  3.192499  -0.009
N  N70  1  0.32777491  0.48359458  0.23971512  1  -0.070426  0.101524  3.36103  0.125  -0.049347  0.071267  3.723132  0.094  -0.074407  0.059161  3.749053  0.082  -0.15938  -0.035451  0.072324  3.707755  0.092
N  N71  1  0.67222078  0.51640515  0.76028670  1  -0.070462  -0.101523  3.360932  -0.125  -0.049405  -0.071266  3.723067  -0.094  -0.074469  -0.059156  3.748989  -0.082  -0.159369  -0.035514  -0.072327  3.707701  -0.092
N  N72  1  0.40393199  0.37519011  0.27881993  1  -0.331113  0.007542  2.864068  0.01  -0.32167  0.005941  3.164831  0.008  -0.331193  0.00342  3.181215  0.004  -0.249149  -0.314583  0.007374  3.154006  0.01
N  N73  1  0.59606610  0.62481428  0.72117929  1  -0.331106  -0.007524  2.864039  -0.01  -0.321636  -0.005943  3.164784  -0.008  -0.33116  -0.00342  3.181174  -0.004  -0.249136  -0.314554  -0.007374  3.153969  -0.01
N  N74  1  0.42927680  0.28496448  0.47222782  1  -0.208107  0.0027  3.490778  0.003  -0.120287  0.000656  3.72518  0.001  -0.142722  0.000609  3.745492  0.001  -0.25003  -0.105153  0.000648  3.710826  0.001
N  N75  1  0.57073490  0.71504172  0.52776550  1  -0.207956  -0.002704  3.490618  -0.003  -0.120277  -0.000658  3.725125  -0.001  -0.142714  -0.000608  3.745439  -0.001  -0.249932  -0.10514  -0.000648  3.710767  -0.001
N  N76  1  0.29678382  0.40657585  0.60926205  1  -0.275349  0.000956  3.352426  0.001  -0.185246  0.000335  3.58988  0.0  -0.210308  0.000206  3.606365  0.0  -0.251803  -0.168325  0.000496  3.578123  0.001
N  N77  1  0.70322795  0.59342289  0.39074057  1  -0.275258  -0.000948  3.352583  -0.001  -0.185217  -0.000338  3.590014  0.0  -0.210277  -0.000206  3.606494  0.0  -0.251745  -0.168296  -0.000496  3.578256  -0.001
N  N78  1  0.54436024  0.34662155  0.95527275  1  -0.197022  -0.076909  3.31631  -0.096  -0.17239  -0.057988  3.649914  -0.076  -0.192964  -0.048442  3.670056  -0.067  -0.25334  -0.160281  -0.059152  3.63838  -0.075
N  N79  1  0.45563789  0.65338004  0.04472769  1  -0.197066  0.076913  3.316352  0.096  -0.172417  0.057997  3.649946  0.076  -0.192999  0.048445  3.670085  0.067  -0.253365  -0.1603  0.059158  3.638407  0.075
N  N80  1  0.38797207  0.36693273  0.00047540  1  -0.074564  -0.002318  3.142292  -0.001  -0.060079  -0.001919  3.485758  -0.001  -0.065832  -0.000572  3.500202  0.001  -0.128426  -0.056336  -0.002986  3.477063  -0.002
N  N81  1  0.61202123  0.63306235  0.99952655  1  -0.074522  0.002329  3.14225  0.001  -0.060052  0.001919  3.485735  0.001  -0.065807  0.000573  3.500178  -0.001  -0.128372  -0.056315  0.002986  3.477041  0.002
N  N82  1  0.29029087  0.27371458  0.99169136  1  -0.302915  -0.016224  2.899696  -0.019  -0.289177  -0.0078  3.196481  -0.01  -0.298467  -0.004612  3.209987  -0.006  -0.233578  -0.28171  -0.010078  3.18654  -0.012
N  N83  1  0.70969378  0.72628147  0.00830895  1  -0.302809  0.016235  2.899578  0.019  -0.289092  0.007802  3.19634  0.01  -0.298389  0.004614  3.209858  0.006  -0.233543  -0.281623  0.010082  3.186399  0.012
N  N84  1  0.35025826  0.08540009  0.90526934  1  -0.221789  -0.003153  3.488522  -0.004  -0.140063  -0.000315  3.733098  0.0  -0.162945  -0.000152  3.753574  0.0  -0.251957  -0.124415  -0.000579  3.71872  -0.001
N  N85  1  0.64973868  0.91459964  0.09473070  1  -0.221734  0.003155  3.488587  0.004  -0.140159  0.000314  3.733314  0.0  -0.163041  0.000148  3.753796  0.0  -0.252077  -0.12451  0.000579  3.718936  0.001
N  N86  1  0.63407122  0.06207847  0.82515673  1  -0.266413  0.000456  3.340555  0.001  -0.175668  0.000118  3.577208  0.0  -0.200359  0.000109  3.594255  0.0  -0.246397  -0.159104  0.00011  3.565251  0.0
N  N87  1  0.36593184  0.93792310  0.17484645  1  -0.266473  -0.000458  3.340445  -0.001  -0.175718  -0.000119  3.577096  0.0  -0.200411  -0.000112  3.594153  0.0  -0.246389  -0.159151  -0.000109  3.565148  0.0
O  O88  1  0.42047712  0.21608527  0.66084050  1  -0.552006  0.00259  1.928512  0.003  -0.521384  0.000149  2.158043  0.0  -0.541763  -0.000151  2.152264  0.0  -0.301424  -0.506857  0.000767  2.16126  0.001
O  O89  1  0.57953089  0.78391721  0.33916036  1  -0.55204  -0.00259  1.928564  -0.003  -0.521407  -0.00015  2.158061  0.0  -0.541788  0.000155  2.152284  0.0  -0.30142  -0.506877  -0.000767  2.161278  -0.001
O  O90  1  0.17077491  0.59937106  0.56329349  1  -0.521301  0.000171  1.894027  0.0  -0.488943  -0.000674  2.105927  -0.001  -0.507908  -0.000829  2.098704  -0.001  -0.303503  -0.475153  -0.00026  2.110231  0.0
O  O91  1  0.82922690  0.40063145  0.43670887  1  -0.521217  -0.000171  1.89396  0.0  -0.488922  0.000675  2.105821  0.001  -0.507888  0.000827  2.098595  0.001  -0.303526  -0.475132  0.00026  2.110123  0.0
O  O92  1  0.43675149  0.92758046  0.80442207  1  -0.5676  -0.000935  1.942108  -0.001  -0.526692  -1.7e-05  2.178933  0.0  -0.546767  9e-06  2.170795  0.0  -0.294803  -0.512329  -9.7e-05  2.183985  0.0
O  O93  1  0.56325281  0.07242111  0.19557934  1  -0.567612  0.000929  1.942054  0.001  -0.526731  1.7e-05  2.178921  0.0  -0.54681  -3e-06  2.170782  0.0  -0.294844  -0.512369  9.7e-05  2.183972  0.0
O  O94  1  0.83702845  0.19393048  0.84824211  1  -0.519418  0.000834  1.911487  0.001  -0.491924  0.000228  2.138448  0.0  -0.509419  0.000275  2.128303  0.0  -0.292139  -0.479945  0.00021  2.145252  0.0
O  O95  1  0.16296092  0.80607489  0.15176370  1  -0.51949  -0.000835  1.911115  -0.001  -0.491996  -0.000228  2.138037  0.0  -0.509493  -0.000274  2.127897  0.0  -0.292197  -0.480004  -0.00021  2.144834  0.0
