# generated using pymatgen
data_InH4(C3O2)4
_symmetry_space_group_name_H-M   'P 1'
_cell_length_a   17.88345756
_cell_length_b   17.88359354
_cell_length_c   17.88371615
_cell_angle_alpha   109.47113311
_cell_angle_beta   109.47067039
_cell_angle_gamma   109.47181597
_symmetry_Int_Tables_number   1
_chemical_formula_structural   InH4(C3O2)4
_chemical_formula_sum   'In6 H24 C72 O48'
_cell_volume   4402.93611094
_cell_formula_units_Z   6
loop_
 _symmetry_equiv_pos_site_id
 _symmetry_equiv_pos_as_xyz
  1  'x, y, z'
loop_
 _atom_site_type_symbol
 _atom_site_label
 _atom_site_symmetry_multiplicity
 _atom_site_fract_x
 _atom_site_fract_y
 _atom_site_fract_z
 _atom_site_occupancy
 _atom_site_pbe_bader_charge
 _atom_site_pbe_bader_spin_density
 _atom_site_pbe_cm5_charge
 _atom_site_pbe_ddec_charge
 _atom_site_pbe_ddec_spin_density
 _atom_site_pbe_ddec_sum_bond_order
 _atom_site_pbe_magmom
In  In0  1  0.87499866  0.75000662  0.12500107  1  1.871623  0  0.764085  1.362641  0  2.599385  0
In  In1  1  0.62499574  0.24999873  0.37500045  1  1.871483  0  0.764063  1.36261  0  2.599543  0
In  In2  1  0.75000018  0.87500778  0.62500088  1  1.871499  0  0.764069  1.36263  0  2.599602  0
In  In3  1  0.24998941  0.62500194  0.87499818  1  1.87162  0  0.764015  1.362626  0  2.599635  0
In  In4  1  0.12499317  0.37499148  0.24999626  1  1.871407  0  0.764048  1.362569  0  2.599562  0
In  In5  1  0.37499615  0.12499398  0.75000338  1  1.871581  0  0.764061  1.362601  0  2.599351  0
H  H6  1  0.54464546  0.66495184  0.98323976  1  0.153078  0  0.125627  0.138057  0  0.974202  0
H  H7  1  0.81828567  0.83504266  0.87970704  1  0.152908  0  0.125675  0.138068  0  0.974348  0
H  H8  1  0.68171663  0.06142603  0.51675457  1  0.151034  0  0.12564  0.137967  0  0.974038  0
H  H9  1  0.95533408  0.43858253  0.62029495  1  0.151593  0  0.125597  0.13807  0  0.974291  0
H  H10  1  0.56140858  0.01675309  0.68170061  1  0.150575  0  0.125649  0.138091  0  0.974228  0
H  H11  1  0.93856037  0.12028778  0.95532652  1  0.151478  0  0.125618  0.138039  0  0.974265  0
H  H12  1  0.16496262  0.48324037  0.54466451  1  0.152869  0  0.125596  0.138019  0  0.974231  0
H  H13  1  0.33504162  0.37969007  0.81826590  1  0.118393  0  0.125667  0.137996  0  0.974247  0
H  H14  1  0.87969899  0.31827015  0.33503889  1  0.153422  0  0.125674  0.138054  0  0.974088  0
H  H15  1  0.98324931  0.04467190  0.16495802  1  0.153133  0  0.125588  0.138056  0  0.974111  0
H  H16  1  0.62030764  0.45535634  0.93858806  1  0.151096  0  0.125584  0.138038  0  0.97421  0
H  H17  1  0.51677349  0.18173564  0.56143618  1  0.149768  0  0.125682  0.13814  0  0.974078  0
H  H18  1  0.37969703  0.33504009  0.31828722  1  0.152882  0  0.125674  0.138044  0  0.974081  0
H  H19  1  0.48325038  0.16495664  0.04467308  1  0.153084  0  0.125619  0.138084  0  0.97431  0
H  H20  1  0.12030194  0.93857508  0.45533870  1  0.151305  0  0.125576  0.13803  0  0.974194  0
H  H21  1  0.01676447  0.56141805  0.18173350  1  0.150386  0  0.125719  0.138186  0  0.973957  0
H  H22  1  0.04466107  0.98322871  0.66495379  1  0.153062  0  0.125619  0.138045  0  0.97415  0
H  H23  1  0.31828535  0.87970953  0.83504128  1  0.152974  0  0.125678  0.138043  0  0.974301  0
H  H24  1  0.18172904  0.51677170  0.06143104  1  0.150575  0  0.125703  0.138084  0  0.974019  0
H  H25  1  0.45534428  0.62030041  0.43857891  1  0.15139  0  0.125578  0.137997  0  0.974298  0
H  H26  1  0.06139692  0.68169580  0.01675492  1  0.145199  0  0.125673  0.138121  0  0.974181  0
H  H27  1  0.43856017  0.95532698  0.12028730  1  0.151355  0  0.125598  0.138014  0  0.974184  0
H  H28  1  0.66496442  0.54466309  0.48323563  1  0.152854  0  0.125616  0.138056  0  0.974261  0
H  H29  1  0.83503962  0.81828811  0.37970276  1  0.152871  0  0.125668  0.138066  0  0.974278  0
C  C30  1  0.52516816  0.59284408  0.95284036  1  -0.022571  0  -0.043872  -0.067889  0  3.849465  0
C  C31  1  0.85998998  0.90714403  0.93232279  1  -0.038931  0  -0.043746  -0.067883  0  3.8487  0
C  C32  1  0.64000622  0.07234214  0.54715532  1  0.001799  0  -0.043811  -0.065965  0  3.850593  0
C  C33  1  0.97481803  0.42766516  0.56767490  1  -0.044315  0  -0.043807  -0.067806  0  3.848711  0
C  C34  1  0.57233232  0.04715451  0.64000316  1  0.002035  0  -0.043826  -0.066177  0  3.849532  0
C  C35  1  0.92765339  0.06766693  0.97481130  1  -0.042261  0  -0.043884  -0.067846  0  3.848776  0
C  C36  1  0.09285782  0.45284579  0.52518609  1  -0.023689  0  -0.043792  -0.067763  0  3.848571  0
C  C37  1  0.40714672  0.43231839  0.85998098  1  -0.009867  0  -0.043745  -0.067772  0  3.848646  0
C  C38  1  0.93233053  0.35998932  0.40715058  1  -0.045511  0  -0.043742  -0.067875  0  3.848743  0
C  C39  1  0.95284603  0.02518958  0.09284604  1  -0.023832  0  -0.043933  -0.068131  0  3.848581  0
C  C40  1  0.56767444  0.47482079  0.92766015  1  -0.042248  0  -0.04379  -0.067835  0  3.848339  0
C  C41  1  0.54716248  0.14002249  0.57234690  1  0.002892  0  -0.043825  -0.066194  0  3.849942  0
C  C42  1  0.43233524  0.40715333  0.36000120  1  -0.043808  0  -0.043751  -0.067906  0  3.848705  0
C  C43  1  0.45285131  0.09285532  0.02519363  1  -0.023981  0  -0.043889  -0.068028  0  3.848104  0
C  C44  1  0.06767336  0.92765881  0.47481905  1  -0.041451  0  -0.043824  -0.067929  0  3.848398  0
C  C45  1  0.04715740  0.57233344  0.14001580  1  0.012081  0  -0.04381  -0.066198  0  3.850001  0
C  C46  1  0.02517828  0.95283615  0.59284992  1  -0.023672  0  -0.043829  -0.06788  0  3.848926  0
C  C47  1  0.35999200  0.93233386  0.90714427  1  -0.044829  0  -0.043833  -0.067929  0  3.848645  0
C  C48  1  0.14001367  0.54716564  0.07234302  1  0.00162  0  -0.043758  -0.065974  0  3.850459  0
C  C49  1  0.47482563  0.56767961  0.42766635  1  -0.042595  0  -0.043861  -0.067905  0  3.848911  0
C  C50  1  0.07232812  0.64000481  0.04715758  1  0.007356  0  -0.043717  -0.066054  0  3.849653  0
C  C51  1  0.42765547  0.97481855  0.06766905  1  -0.044026  0  -0.043867  -0.067915  0  3.849285  0
C  C52  1  0.59285860  0.52518098  0.45284124  1  -0.023539  0  -0.043805  -0.067923  0  3.848637  0
C  C53  1  0.90714415  0.85999141  0.43232616  1  -0.038963  0  -0.043771  -0.067899  0  3.848801  0
C  C54  1  0.69085300  0.63904518  0.02273428  1  1.530518  0  0.229049  0.550786  0  4.180183  0
C  C55  1  0.88370353  0.86096944  0.05182139  1  1.530615  0  0.229142  0.550713  0  4.18074  0
C  C56  1  0.61629961  0.16811968  0.47726691  1  1.515248  0  0.229077  0.551454  0  4.180546  0
C  C57  1  0.80915693  0.33188971  0.44819154  1  1.524793  0  0.229052  0.550666  0  4.180175  0
C  C58  1  0.66811351  0.97727033  0.61629511  1  1.514763  0  0.229063  0.551505  0  4.180775  0
C  C59  1  0.83188109  0.94818060  0.80915272  1  1.525222  0  0.229158  0.550867  0  4.180462  0
C  C60  1  0.13903235  0.52272186  0.69084605  1  1.530851  0  0.229076  0.550834  0  4.180131  0
C  C61  1  0.36095233  0.55178030  0.88367823  1  1.53021  0  0.229081  0.550884  0  4.180155  0
C  C62  1  0.05182123  0.38370136  0.36097223  1  1.530321  0  0.229233  0.551007  0  4.180363  0
C  C63  1  0.02272695  0.19084794  0.13901838  1  1.530469  0  0.228899  0.550442  0  4.180861  0
C  C64  1  0.44820146  0.30915708  0.83188384  1  1.524184  0  0.229091  0.550932  0  4.18007  0
C  C65  1  0.47726815  0.11630852  0.66811717  1  1.515941  0  0.229065  0.551715  0  4.180388  0
C  C66  1  0.55181487  0.36097122  0.38369888  1  1.530592  0  0.22909  0.550715  0  4.180493  0
C  C67  1  0.52272803  0.13902739  0.19084679  1  1.529778  0  0.229054  0.550617  0  4.180636  0
C  C68  1  0.94818901  0.83187704  0.30914930  1  1.524646  0  0.229124  0.550877  0  4.180549  0
C  C69  1  0.97727220  0.66811545  0.11632076  1  1.515585  0  0.229127  0.551998  0  4.180298  0
C  C70  1  0.19085418  0.02272951  0.63903296  1  1.530868  0  0.229145  0.550772  0  4.180671  0
C  C71  1  0.38370267  0.05182545  0.86097356  1  1.530199  0  0.22912  0.550772  0  4.180487  0
C  C72  1  0.11631335  0.47727202  0.16811698  1  1.515905  0  0.228961  0.551512  0  4.180521  0
C  C73  1  0.30916110  0.44820210  0.33188908  1  1.524806  0  0.228941  0.550537  0  4.180285  0
C  C74  1  0.16811034  0.61630455  0.97727159  1  1.515973  0  0.228941  0.551392  0  4.18039  0
C  C75  1  0.33187577  0.80914707  0.94817226  1  1.525431  0  0.228927  0.550561  0  4.180742  0
C  C76  1  0.63903995  0.69084389  0.52272865  1  1.530364  0  0.228977  0.550663  0  4.179969  0
C  C77  1  0.86096361  0.88369812  0.55180906  1  1.530736  0  0.229133  0.550759  0  4.180485  0
C  C78  1  0.59244300  0.56738418  0.96652912  1  0.06138  0  -0.000791  -0.017778  0  3.961906  0
C  C79  1  0.89915549  0.93263112  0.02507696  1  0.02115  0  -0.000704  -0.017582  0  3.961847  0
C  C80  1  0.60085205  0.12592917  0.53346994  1  -0.007959  0  -0.00077  -0.020679  0  3.965928  0
C  C81  1  0.90755074  0.37407839  0.47492361  1  -0.026129  0  -0.000828  -0.017831  0  3.962467  0
C  C82  1  0.62592453  0.03347129  0.60083360  1  -0.008062  0  -0.000746  -0.020543  0  3.965769  0
C  C83  1  0.87407357  0.97492265  0.90754675  1  -0.03161  0  -0.000954  -0.018053  0  3.962674  0
C  C84  1  0.06737234  0.46652708  0.59245044  1  0.06371  0  -0.000907  -0.018043  0  3.962429  0
C  C85  1  0.43262290  0.52506959  0.89915058  1  0.021222  0  -0.000765  -0.017965  0  3.962628  0
C  C86  1  0.02507789  0.39915045  0.43262655  1  0.021764  0  -0.000819  -0.017937  0  3.962208  0
C  C87  1  0.96652830  0.09246073  0.06737008  1  0.061716  0  -0.000776  -0.017681  0  3.96221  0
C  C88  1  0.47492486  0.40754942  0.87407587  1  -0.026389  0  -0.000889  -0.01797  0  3.962573  0
C  C89  1  0.53347147  0.10085132  0.62591972  1  -0.007979  0  -0.000714  -0.02055  0  3.965706  0
C  C90  1  0.52507925  0.43262540  0.39915635  1  0.020738  0  -0.000859  -0.017874  0  3.962449  0
C  C91  1  0.46653104  0.06736744  0.09246495  1  0.064016  0  -0.000877  -0.017778  0  3.962448  0
C  C92  1  0.97492025  0.87407301  0.40754913  1  -0.031848  0  -0.000882  -0.017878  0  3.962072  0
C  C93  1  0.03346493  0.62590976  0.10085017  1  -0.017675  0  -0.000744  -0.020647  0  3.965666  0
C  C94  1  0.09245146  0.96652304  0.56737855  1  0.061656  0  -0.00084  -0.017808  0  3.962014  0
C  C95  1  0.39915910  0.02507704  0.93263027  1  0.021648  0  -0.000728  -0.017683  0  3.962113  0
C  C96  1  0.10085470  0.53347265  0.12593100  1  -0.007796  0  -0.000817  -0.020802  0  3.96589  0
C  C97  1  0.40755873  0.47493176  0.37408403  1  -0.026801  0  -0.000751  -0.017653  0  3.962066  0
C  C98  1  0.12591545  0.60083752  0.03347246  1  -0.007944  0  -0.000761  -0.020575  0  3.965952  0
C  C99  1  0.37407695  0.90755185  0.97492665  1  -0.026577  0  -0.000825  -0.01779  0  3.962096  0
C  C100  1  0.56737445  0.59244629  0.46652601  1  0.062512  0  -0.000826  -0.017784  0  3.962362  0
C  C101  1  0.93262491  0.89915150  0.52507651  1  0.020634  0  -0.000818  -0.01788  0  3.962497  0
O  O102  1  0.75176941  0.61414170  0.03008334  1  -1.086748  0  -0.263375  -0.498051  0  2.137196  0
O  O103  1  0.91595344  0.88588427  0.13764472  1  -1.08278  0  -0.263487  -0.498123  0  2.136773  0
O  O104  1  0.58404035  0.22169088  0.46991946  1  -1.082906  0  -0.263431  -0.497925  0  2.13622  0
O  O105  1  0.74823407  0.27831533  0.36235746  1  -1.081364  0  -0.263354  -0.497938  0  2.136361  0
O  O106  1  0.72168734  0.96992545  0.58403439  1  -1.082571  0  -0.263388  -0.497988  0  2.13609  0
O  O107  1  0.77830541  0.86235753  0.74822734  1  -1.081504  0  -0.263427  -0.498069  0  2.136712  0
O  O108  1  0.11412940  0.53007766  0.75176524  1  -1.08642  0  -0.263379  -0.497999  0  2.136801  0
O  O109  1  0.38584433  0.63760841  0.91593190  1  -1.081904  0  -0.263209  -0.497799  0  2.136668  0
O  O110  1  0.13763727  0.41594563  0.38586873  1  -1.082601  0  -0.263449  -0.498111  0  2.13692  0
O  O111  1  0.03007358  0.25176778  0.11410911  1  -1.086231  0  -0.263322  -0.497914  0  2.136568  0
O  O112  1  0.36237563  0.24823752  0.77832015  1  -1.080815  0  -0.263322  -0.498007  0  2.13681  0
O  O113  1  0.46992454  0.08406061  0.72169034  1  -1.083443  0  -0.263409  -0.498032  0  2.136663  0
O  O114  1  0.63763857  0.38587352  0.41595618  1  -1.082945  0  -0.263368  -0.497917  0  2.13677  0
O  O115  1  0.53007488  0.11411395  0.25177173  1  -1.085728  0  -0.263372  -0.497977  0  2.136182  0
O  O116  1  0.86236915  0.77831377  0.24823879  1  -1.081214  0  -0.26339  -0.498053  0  2.13701  0
O  O117  1  0.96992179  0.72167849  0.08407018  1  -1.084161  0  -0.263313  -0.497995  0  2.136941  0
O  O118  1  0.25176713  0.03007339  0.61412784  1  -1.086619  0  -0.263449  -0.498066  0  2.136965  0
O  O119  1  0.41595646  0.13764771  0.88588497  1  -1.082862  0  -0.263481  -0.498161  0  2.136822  0
O  O120  1  0.08405938  0.46991621  0.22168513  1  -1.083195  0  -0.2633  -0.497859  0  2.136583  0
O  O121  1  0.24823308  0.36236694  0.27830942  1  -1.080795  0  -0.263361  -0.498  0  2.136558  0
O  O122  1  0.22167943  0.58403729  0.96991506  1  -1.083227  0  -0.263388  -0.497978  0  2.136065  0
O  O123  1  0.27829752  0.74822743  0.86235387  1  -1.08191  0  -0.263302  -0.497921  0  2.136979  0
O  O124  1  0.61414144  0.75176900  0.53008324  1  -1.08651  0  -0.26331  -0.497909  0  2.136859  0
O  O125  1  0.88587080  0.91595669  0.63763645  1  -1.08261  0  -0.263406  -0.498007  0  2.136673  0
O  O126  1  0.71540124  0.72312159  0.06389048  1  -1.043223  0  -0.237812  -0.445841  0  2.032925  0
O  O127  1  0.84078728  0.77690311  0.99231214  1  -1.054044  0  -0.237731  -0.4457  0  2.033989  0
O  O128  1  0.65921957  0.15152630  0.43610729  1  -1.044339  0  -0.237707  -0.445609  0  2.033079  0
O  O129  1  0.78458193  0.34847908  0.50769543  1  -1.046308  0  -0.237741  -0.445699  0  2.033373  0
O  O130  1  0.65151982  0.93611618  0.65921500  1  -1.044409  0  -0.237726  -0.445654  0  2.033418  0
O  O131  1  0.84847448  0.00768911  0.78458307  1  -1.04642  0  -0.237714  -0.445683  0  2.03354  0
O  O132  1  0.22311077  0.56387914  0.71540988  1  -1.043566  0  -0.237754  -0.445785  0  2.033225  0
O  O133  1  0.27687306  0.49227453  0.84076659  1  -1.054418  0  -0.237781  -0.445812  0  2.032981  0
O  O134  1  0.99230353  0.34078565  0.27689465  1  -1.053673  0  -0.237801  -0.445823  0  2.033358  0
O  O135  1  0.06388446  0.21541807  0.22309969  1  -1.043527  0  -0.237614  -0.445563  0  2.033655  0
O  O136  1  0.50772439  0.28460585  0.84848698  1  -1.046131  0  -0.237777  -0.44577  0  2.032904  0
O  O137  1  0.43610909  0.15922473  0.65151319  1  -1.044184  0  -0.237621  -0.445627  0  2.032667  0
O  O138  1  0.49229486  0.27689340  0.34077969  1  -1.053735  0  -0.237737  -0.445749  0  2.033278  0
O  O139  1  0.56388344  0.22309916  0.21541282  1  -1.043294  0  -0.237666  -0.445592  0  2.033869  0
O  O140  1  0.00770699  0.84847522  0.28459898  1  -1.046186  0  -0.23779  -0.445774  0  2.033576  0
O  O141  1  0.93610966  0.65150800  0.15923785  1  -1.042992  0  -0.23783  -0.445951  0  2.032434  0
O  O142  1  0.21540909  0.06388453  0.72310361  1  -1.043528  0  -0.237776  -0.445706  0  2.033626  0
O  O143  1  0.34078450  0.99230452  0.77689521  1  -1.053483  0  -0.237757  -0.445766  0  2.033525  0
O  O144  1  0.15923582  0.43612099  0.15152145  1  -1.044366  0  -0.237662  -0.445556  0  2.032684  0
O  O145  1  0.28459515  0.50770802  0.34848275  1  -1.046358  0  -0.237655  -0.445557  0  2.033374  0
O  O146  1  0.15151685  0.65922339  0.93611541  1  -1.044814  0  -0.237665  -0.445584  0  2.03314  0
O  O147  1  0.34847702  0.78457848  0.00768327  1  -1.046366  0  -0.237605  -0.44565  0  2.033606  0
O  O148  1  0.72312382  0.71541175  0.56390086  1  -1.043261  0  -0.237646  -0.445656  0  2.03274  0
O  O149  1  0.77689205  0.84078123  0.49230661  1  -1.053901  0  -0.237748  -0.445679  0  2.033604  0
