# generated using pymatgen
data_Zr3H24C26N10ClO16
_symmetry_space_group_name_H-M   'P 1'
_cell_length_a   14.89267775
_cell_length_b   14.85571717
_cell_length_c   14.85159600
_cell_angle_alpha   59.74703042
_cell_angle_beta   60.04491436
_cell_angle_gamma   60.02477577
_symmetry_Int_Tables_number   1
_chemical_formula_structural   Zr3H24C26N10ClO16
_chemical_formula_sum   'Zr6 H48 C52 N20 Cl2 O32'
_cell_volume   2320.14435642
_cell_formula_units_Z   2
loop_
 _symmetry_equiv_pos_site_id
 _symmetry_equiv_pos_as_xyz
  1  'x, y, z'
loop_
 _atom_site_type_symbol
 _atom_site_label
 _atom_site_symmetry_multiplicity
 _atom_site_fract_x
 _atom_site_fract_y
 _atom_site_fract_z
 _atom_site_occupancy
 _atom_site_pbe_bader_charge
 _atom_site_pbe_bader_spin_density
 _atom_site_pbe_cm5_charge
 _atom_site_pbe_ddec_charge
 _atom_site_pbe_ddec_spin_density
 _atom_site_pbe_ddec_sum_bond_order
 _atom_site_pbe_magmom
Zr  Zr0  1  0.87983537  0.88161107  0.62006788  1  2.629698  0  1.636794  2.362114  0  2.783805  0
Zr  Zr1  1  0.11801413  0.11827384  0.38186689  1  2.624677  0  1.633391  2.365445  0  2.769722  0
Zr  Zr2  1  0.11758172  0.88037028  0.62051908  1  2.63025  0  1.632834  2.363644  0  2.772674  0
Zr  Zr3  1  0.87963502  0.11892325  0.38346410  1  2.626908  0  1.636423  2.360787  0  2.787898  0
Zr  Zr4  1  0.11660288  0.88217189  0.38343835  1  2.627405  0  1.635988  2.35521  0  2.798633  0
Zr  Zr5  1  0.88220157  0.11767357  0.61912388  1  2.631665  0  1.636323  2.357788  0  2.791992  0
H  H6  1  0.09370577  0.71851060  0.59454160  1  0.603878  0  0.329491  0.420264  0  0.863697  0
H  H7  1  0.09384078  0.09295752  0.22002059  1  0.5963  0  0.330204  0.421364  0  0.863602  0
H  H8  1  0.09359589  0.09265414  0.59378563  1  0.615646  0  0.3334  0.426125  0  0.85273  0
H  H9  1  0.71957773  0.09382117  0.59508165  1  0.604986  0  0.335312  0.427755  0  0.85274  0
H  H10  1  0.99317196  0.57470237  0.73976251  1  0.077092  0  0.098486  0.103696  0  1.044164  0
H  H11  1  0.00725696  0.40514398  0.73631793  1  0.084412  0  0.09932  0.099422  0  1.015785  0
H  H12  1  0.00330688  0.23545327  0.07290155  1  0.058429  0  0.098074  0.099188  0  1.047264  0
H  H13  1  0.01332723  0.23359074  0.90391697  1  0.067556  0  0.099901  0.100167  0  1.014629  0
H  H14  1  0.15545659  0.35807375  0.32271323  1  0.478458  0  0.290759  0.294643  0  1.006935  0
H  H15  1  0.19260216  0.47245349  0.26202161  1  0.427427  0  0.293345  0.280874  0  0.966382  0
H  H16  1  0.80585432  0.68712120  0.62833975  1  0.472932  0  0.292884  0.296657  0  1.006954  0
H  H17  1  0.74208239  0.60752897  0.64767888  1  0.418519  0  0.292182  0.27796  0  0.975172  0
H  H18  1  0.18398635  0.63417642  0.35871265  1  0.469904  0  0.290657  0.290911  0  1.014904  0
H  H19  1  0.24951483  0.51063991  0.33858532  1  0.40908  0  0.290913  0.276334  0  0.976771  0
H  H20  1  0.84149662  0.34063132  0.67205758  1  0.476558  0  0.293244  0.29411  0  1.006822  0
H  H21  1  0.80181783  0.43598822  0.72847767  1  0.43493  0  0.293533  0.278685  0  0.972511  0
H  H22  1  0.35980408  0.14819848  0.17158517  1  0.475267  0  0.291761  0.295731  0  1.011263  0
H  H23  1  0.47884037  0.17785574  0.08841090  1  0.410543  0  0.291099  0.276244  0  0.979278  0
H  H24  1  0.67491446  0.81426766  0.86885031  1  0.48528  0  0.293604  0.298515  0  0.999572  0
H  H25  1  0.58843423  0.75128499  0.98738445  1  0.423743  0  0.295193  0.282209  0  0.96329  0
H  H26  1  0.63611863  0.18106568  0.83167392  1  0.480342  0  0.291005  0.290907  0  1.010895  0
H  H27  1  0.51665138  0.24357397  0.91579207  1  0.424313  0  0.291209  0.276741  0  0.975988  0
H  H28  1  0.33082561  0.85015621  0.13776179  1  0.472931  0  0.28997  0.293408  0  1.009156  0
H  H29  1  0.41756454  0.82007343  0.02009840  1  0.417088  0  0.289781  0.272776  0  0.980345  0
H  H30  1  0.80884958  0.13083974  0.87367172  1  0.473619  0  0.290969  0.294152  0  1.012594  0
H  H31  1  0.74196182  0.15140197  0.99682733  1  0.41812  0  0.289901  0.275936  0  0.979921  0
H  H32  1  0.14752908  0.81926464  0.17186790  1  0.482769  0  0.292964  0.295209  0  1.004158  0
H  H33  1  0.18770087  0.76203930  0.07735787  1  0.433303  0  0.292224  0.27927  0  0.973675  0
H  H34  1  0.83197083  0.16663740  0.15301801  1  0.466336  0  0.293442  0.293213  0  1.006078  0
H  H35  1  0.79691507  0.22843822  0.03700832  1  0.415563  0  0.29351  0.278679  0  0.970001  0
H  H36  1  0.18435908  0.85722700  0.82713370  1  0.473735  0  0.291384  0.295956  0  1.009472  0
H  H37  1  0.24881284  0.84016923  0.90538273  1  0.422094  0  0.291897  0.278378  0  0.974637  0
H  H38  1  0.36680633  0.67625624  0.31607596  1  0.476873  0  0.291299  0.293888  0  1.008654  0
H  H39  1  0.48457521  0.59028540  0.25416538  1  0.436868  0  0.290187  0.275737  0  0.98095  0
H  H40  1  0.67329217  0.36642031  0.64600716  1  0.474703  0  0.289712  0.290587  0  1.015176  0
H  H41  1  0.58811891  0.48344488  0.67687009  1  0.407716  0  0.288352  0.271174  0  0.982931  0
H  H42  1  0.64661109  0.33900499  0.34407695  1  0.479281  0  0.291004  0.294736  0  1.014723  0
H  H43  1  0.52502994  0.41791514  0.31856088  1  0.417054  0  0.291022  0.276247  0  0.977546  0
H  H44  1  0.33009612  0.63623111  0.68352839  1  0.477003  0  0.29343  0.295756  0  1.002812  0
H  H45  1  0.41711707  0.51720190  0.74565630  1  0.41614  0  0.294538  0.280266  0  0.9669  0
H  H46  1  0.36696740  0.81277995  0.64540570  1  0.459822  0  0.292014  0.294242  0  1.00721  0
H  H47  1  0.48316213  0.75148048  0.67799842  1  0.418298  0  0.290097  0.273696  0  0.980269  0
H  H48  1  0.66829112  0.14800028  0.32260077  1  0.470624  0  0.290482  0.291002  0  1.015826  0
H  H49  1  0.58789521  0.17570627  0.25566022  1  0.419615  0  0.28901  0.273909  0  0.982  0
H  H50  1  0.63358113  0.85144941  0.68566937  1  0.450988  0  0.292478  0.292658  0  1.007171  0
H  H51  1  0.51616300  0.82093185  0.74664821  1  0.42576  0  0.290422  0.27375  0  0.978538  0
H  H52  1  0.33172604  0.17792865  0.35011819  1  0.465675  0  0.290986  0.2915  0  1.012624  0
H  H53  1  0.41452810  0.24253881  0.32254077  1  0.421782  0  0.289441  0.274099  0  0.981159  0
C  C54  1  0.99645069  0.69965362  0.49596755  1  1.493279  0  0.232326  0.658837  0  4.046902  0
C  C55  1  0.30565961  0.99660701  0.19856673  1  1.450432  0  0.23204  0.659514  0  4.042708  0
C  C56  1  0.99809807  0.30736557  0.49656977  1  1.472369  0  0.229956  0.65653  0  4.052632  0
C  C57  1  0.69786821  0.99749695  0.80921146  1  1.456127  0  0.231178  0.657594  0  4.052319  0
C  C58  1  0.99116505  0.70198404  0.81007602  1  1.580201  0  0.238301  0.665168  0  4.100836  0
C  C59  1  0.69564804  0.99720897  0.50053552  1  1.452652  0  0.233114  0.66134  0  4.045594  0
C  C60  1  0.99228012  0.30805939  0.20320351  1  1.592363  0  0.238096  0.666309  0  4.097227  0
C  C61  1  0.30730675  0.99580880  0.49761296  1  1.471892  0  0.233125  0.662891  0  4.042072  0
C  C62  1  0.30551408  0.69716196  0.50062827  1  1.46168  0  0.231128  0.658097  0  4.049734  0
C  C63  1  0.99773360  0.99529601  0.80838794  1  1.444344  0  0.229791  0.656061  0  4.056487  0
C  C64  1  0.69829220  0.30821573  0.49857529  1  1.440581  0  0.23272  0.659875  0  4.044866  0
C  C65  1  0.99286623  0.99780303  0.20075897  1  1.46869  0  0.231871  0.658879  0  4.047592  0
C  C66  1  0.99741855  0.40753881  0.49536701  1  0.08565  0  -0.041181  -0.25365  0  3.944439  0
C  C67  1  0.99595153  0.60193940  0.49384657  1  0.018572  0  -0.038204  -0.249636  0  3.937027  0
C  C68  1  0.08252557  0.45419638  0.41553494  1  0.400331  0  0.075472  0.170238  0  4.046838  0
C  C69  1  0.90617273  0.56083479  0.56742409  1  0.437103  0  0.081714  0.174367  0  4.049193  0
C  C70  1  0.08576751  0.54537298  0.41991518  1  0.419407  0  0.077989  0.172752  0  4.040916  0
C  C71  1  0.91159323  0.45979812  0.57432260  1  0.370443  0  0.078958  0.169166  0  4.047611  0
C  C72  1  0.40498091  0.99668502  0.09993448  1  0.08453  0  -0.038041  -0.250034  0  3.933061  0
C  C73  1  0.59893885  0.99682496  0.90831579  1  0.036451  0  -0.039052  -0.251329  0  3.945539  0
C  C74  1  0.45543067  0.07789648  0.05302943  1  0.401538  0  0.083334  0.183223  0  4.038553  0
C  C75  1  0.55262408  0.91139306  0.95951737  1  0.386708  0  0.07676  0.169234  0  4.045537  0
C  C76  1  0.54640565  0.08239511  0.95399024  1  0.424037  0  0.080076  0.173379  0  4.034737  0
C  C77  1  0.45279273  0.91603443  0.04882392  1  0.393165  0  0.078399  0.17182  0  4.041816  0
C  C78  1  0.99603360  0.99549382  0.90820014  1  0.012369  0  -0.041458  -0.252686  0  3.944477  0
C  C79  1  0.99261424  0.99603704  0.10257580  1  0.074615  0  -0.039453  -0.251726  0  3.938705  0
C  C80  1  0.90552370  0.06987326  0.96405454  1  0.404811  0  0.077217  0.170848  0  4.047183  0
C  C81  1  0.07858224  0.91607486  0.05175093  1  0.39115  0  0.081778  0.177907  0  4.034166  0
C  C82  1  0.90748051  0.07473969  0.05555952  1  0.393924  0  0.076428  0.163931  0  4.052643  0
C  C83  1  0.08466929  0.92146114  0.95094107  1  0.442211  0  0.07953  0.175725  0  4.050508  0
C  C84  1  0.40495191  0.59865750  0.50022128  1  0.003413  0  -0.038932  -0.251057  0  3.941016  0
C  C85  1  0.59930716  0.40734235  0.49856172  1  0.024043  0  -0.037104  -0.247162  0  3.934449  0
C  C86  1  0.45668835  0.55334952  0.41441750  1  0.437652  0  0.081234  0.178344  0  4.033446  0
C  C87  1  0.55161840  0.45725616  0.58013134  1  0.399507  0  0.076857  0.169288  0  4.042333  0
C  C88  1  0.54833082  0.45481016  0.41766167  1  0.442649  0  0.08233  0.178692  0  4.040793  0
C  C89  1  0.45195031  0.54668107  0.58530460  1  0.447411  0  0.077129  0.169897  0  4.045081  0
C  C90  1  0.98723930  0.60160023  0.91241995  1  0.047857  0  -0.014864  -0.127338  0  3.922507  0
C  C91  1  0.99367890  0.50427223  0.90845912  1  0.006753  0  -0.001876  0.066416  0  3.958048  0
C  C92  1  0.97746096  0.60384137  0.00922590  1  0.078744  0  0.011584  0.061247  0  4.050706  0
C  C93  1  0.99862669  0.50036842  0.81223306  1  -0.033151  0  -0.094903  -0.131327  0  3.965861  0
C  C94  1  0.00529159  0.40514028  0.81073980  1  -0.081239  0  -0.092598  -0.075511  0  4.022145  0
C  C95  1  0.98856232  0.41040906  0.10260634  1  0.025065  0  -0.012581  -0.121614  0  3.915319  0
C  C96  1  0.97714461  0.50753746  0.10543963  1  0.106926  0  0.011484  0.062333  0  4.045155  0
C  C97  1  0.99553326  0.40660004  0.00497675  1  0.018461  0  -0.001818  0.068279  0  3.957902  0
C  C98  1  0.00385198  0.30951914  0.99983631  1  -0.021011  0  -0.096518  -0.135364  0  3.974024  0
C  C99  1  0.00838024  0.30877973  0.90513741  1  -0.024561  0  -0.093744  -0.080568  0  4.027174  0
C  C100  1  0.40576736  0.99612516  0.49833587  1  -0.000943  0  -0.037905  -0.249742  0  3.936829  0
C  C101  1  0.59621077  0.99786939  0.50091172  1  0.025265  0  -0.037966  -0.248978  0  3.940938  0
C  C102  1  0.45614290  0.91159697  0.57994671  1  0.458082  0  0.079127  0.173181  0  4.039508  0
C  C103  1  0.54950128  0.07877019  0.41579168  1  0.41449  0  0.079735  0.175517  0  4.038141  0
C  C104  1  0.54500761  0.91713136  0.58586156  1  0.389561  0  0.077479  0.169987  0  4.040811  0
C  C105  1  0.45165064  0.08199678  0.41861941  1  0.400237  0  0.080275  0.176557  0  4.039639  0
N  N106  1  0.16996033  0.41148626  0.33351336  1  -1.228928  0  -0.612494  -0.617265  0  3.332856  0
N  N107  1  0.81229198  0.61095364  0.63995526  1  -1.220529  0  -0.609629  -0.615507  0  3.362489  0
N  N108  1  0.17880186  0.57637440  0.34552935  1  -1.213659  0  -0.61101  -0.611603  0  3.342894  0
N  N109  1  0.82607012  0.42040446  0.65877639  1  -1.254393  0  -0.608236  -0.605463  0  3.333183  0
N  N110  1  0.41745265  0.16012761  0.09521687  1  -1.208606  0  -0.612649  -0.613743  0  3.344134  0
N  N111  1  0.59709315  0.82247389  0.92340867  1  -1.231094  0  -0.610331  -0.612807  0  3.316945  0
N  N112  1  0.58094489  0.17252341  0.90941417  1  -1.21417  0  -0.609389  -0.608052  0  3.338296  0
N  N113  1  0.40914035  0.83484094  0.08440136  1  -1.215823  0  -0.612203  -0.615753  0  3.335669  0
N  N114  1  0.81325762  0.14436069  0.93171654  1  -1.215017  0  -0.615331  -0.620225  0  3.347337  0
N  N115  1  0.16369194  0.83221099  0.09199085  1  -1.229332  0  -0.609208  -0.608094  0  3.32921  0
N  N116  1  0.81902977  0.15660700  0.09799677  1  -1.205739  0  -0.610883  -0.609113  0  3.326609  0
N  N117  1  0.17846300  0.84782005  0.90230434  1  -1.218932  0  -0.610517  -0.618273  0  3.370581  0
N  N118  1  0.42088465  0.59799623  0.32522045  1  -1.236922  0  -0.611107  -0.612707  0  3.338143  0
N  N119  1  0.59502512  0.41983991  0.66214091  1  -1.213459  0  -0.614883  -0.615912  0  3.340513  0
N  N120  1  0.58632555  0.41381505  0.33441794  1  -1.223607  0  -0.611966  -0.612103  0  3.339795  0
N  N121  1  0.40792921  0.58169752  0.67487296  1  -1.227126  0  -0.609948  -0.609148  0  3.323277  0
N  N122  1  0.41994126  0.82256995  0.66126560  1  -1.199209  0  -0.611433  -0.611858  0  3.337751  0
N  N123  1  0.59176222  0.16178722  0.32846062  1  -1.204526  0  -0.613911  -0.61359  0  3.336696  0
N  N124  1  0.58003901  0.83642384  0.67587691  1  -1.180737  0  -0.608688  -0.60758  0  3.340907  0
N  N125  1  0.40858944  0.17073180  0.33670672  1  -1.207115  0  -0.61173  -0.609641  0  3.338869  0
Cl  Cl126  1  0.95800452  0.51459848  0.22639695  1  -0.172472  0  0.014566  -0.03765  0  1.612664  0
Cl  Cl127  1  0.96168504  0.72358765  0.01576396  1  -0.169243  0  0.01196  -0.032909  0  1.60407  0
O  O128  1  0.92080724  0.74132857  0.57203894  1  -1.203429  0  -0.357324  -0.624342  0  2.31202  0
O  O129  1  0.26334531  0.07168674  0.24173337  1  -1.192332  0  -0.359376  -0.620912  0  2.315537  0
O  O130  1  0.07329495  0.26490414  0.42087311  1  -1.183151  0  -0.3612  -0.630237  0  2.334323  0
O  O131  1  0.73993908  0.92217524  0.76655973  1  -1.186359  0  -0.359665  -0.622846  0  2.330398  0
O  O132  1  0.07088213  0.73640476  0.76969715  1  -1.174402  0  -0.347078  -0.615773  0  2.274223  0
O  O133  1  0.73907502  0.07243195  0.42401431  1  -1.19307  0  -0.359378  -0.624515  0  2.318994  0
O  O134  1  0.91611829  0.26837812  0.24357195  1  -1.175356  0  -0.351896  -0.614347  0  2.284002  0
O  O135  1  0.26526845  0.91933641  0.57296015  1  -1.193199  0  -0.359916  -0.624773  0  2.315468  0
O  O136  1  0.26343360  0.74099866  0.42412936  1  -1.19369  0  -0.359294  -0.625405  0  2.316699  0
O  O137  1  0.92221111  0.07075618  0.76541613  1  -1.191957  0  -0.36337  -0.62489  0  2.330905  0
O  O138  1  0.74209363  0.26578216  0.57351775  1  -1.184772  0  -0.361582  -0.627211  0  2.315618  0
O  O139  1  0.06812810  0.92250311  0.24382380  1  -1.188965  0  -0.358166  -0.620891  0  2.3283  0
O  O140  1  0.07479977  0.92071317  0.76521202  1  -1.183253  0  -0.360785  -0.626226  0  2.328622  0
O  O141  1  0.73885915  0.26425648  0.42453685  1  -1.183918  0  -0.358705  -0.619785  0  2.32631  0
O  O142  1  0.91904501  0.07604392  0.24060766  1  -1.190822  0  -0.360911  -0.631436  0  2.316546  0
O  O143  1  0.26124758  0.73738383  0.57854790  1  -1.188276  0  -0.362498  -0.626752  0  2.317514  0
O  O144  1  0.91513797  0.74240533  0.77000830  1  -1.175413  0  -0.353875  -0.618051  0  2.287403  0
O  O145  1  0.26392483  0.07302802  0.42243919  1  -1.194925  0  -0.360586  -0.625659  0  2.312561  0
O  O146  1  0.07207887  0.26753679  0.23770167  1  -1.172318  0  -0.349186  -0.618895  0  2.265973  0
O  O147  1  0.73753100  0.92156698  0.57724819  1  -1.185685  0  -0.361702  -0.627481  0  2.312009  0
O  O148  1  0.73982534  0.07404209  0.76600225  1  -1.1931  0  -0.360089  -0.626678  0  2.31013  0
O  O149  1  0.07412420  0.74037315  0.42260604  1  -1.191829  0  -0.364065  -0.625493  0  2.32747  0
O  O150  1  0.26155159  0.92211239  0.23981105  1  -1.190094  0  -0.361716  -0.629051  0  2.312028  0
O  O151  1  0.92393630  0.26339396  0.57405900  1  -1.192455  0  -0.358891  -0.623333  0  2.320148  0
O  O152  1  0.79916635  0.06674504  0.56830036  1  -1.227724  0  -0.702463  -1.072348  0  2.394751  0
O  O153  1  0.06700997  0.06597079  0.56726511  1  -1.239136  0  -0.699351  -1.067866  0  2.384402  0
O  O154  1  0.06486766  0.06828466  0.30001767  1  -1.223961  0  -0.698777  -1.070319  0  2.379984  0
O  O155  1  0.06469939  0.79850737  0.56995117  1  -1.232998  0  -0.697425  -1.068665  0  2.376716  0
O  O156  1  0.14648887  0.95039597  0.45234720  1  -1.190415  0  -0.7986  -1.143544  0  2.164622  0
O  O157  1  0.94945211  0.95114976  0.45236122  1  -1.196942  0  -0.798757  -1.142965  0  2.162576  0
O  O158  1  0.95074060  0.14755217  0.45115055  1  -1.192246  0  -0.796446  -1.139857  0  2.152445  0
O  O159  1  0.95051782  0.94974366  0.64901182  1  -1.189965  0  -0.796092  -1.139871  0  2.149996  0
