# generated using pymatgen
data_HgH9C13Br2N
_symmetry_space_group_name_H-M   'P 1'
_cell_length_a   7.49299107
_cell_length_b   10.42597180
_cell_length_c   9.98249853
_cell_angle_alpha   121.47987847
_cell_angle_beta   105.39099082
_cell_angle_gamma   90.00229198
_symmetry_Int_Tables_number   1
_chemical_formula_structural   HgH9C13Br2N
_chemical_formula_sum   'Hg2 H18 C26 Br4 N2'
_cell_volume   632.04293719
_cell_formula_units_Z   2
loop_
 _symmetry_equiv_pos_site_id
 _symmetry_equiv_pos_as_xyz
  1  'x, y, z'
loop_
 _atom_site_type_symbol
 _atom_site_label
 _atom_site_symmetry_multiplicity
 _atom_site_fract_x
 _atom_site_fract_y
 _atom_site_fract_z
 _atom_site_occupancy
 _atom_site_pbe_bader_spin_density
 _atom_site_pbe_cm5_charge
 _atom_site_pbe_ddec_charge
 _atom_site_pbe_ddec_spin_density
 _atom_site_pbe_ddec_sum_bond_order
 _atom_site_pbe_magmom
Hg  Hg0  1  0.24999363  0.92837505  0.99999385  1  0  0.446063  0.491178  0  2.662572  0
Hg  Hg1  1  0.75000825  0.07162484  0.00000673  1  0  0.446051  0.491131  0  2.662615  0
H  H2  1  0.24997670  0.33314517  0.99999162  1  0  0.105293  0.114007  0  1.005145  0
H  H3  1  0.75001599  0.66685715  0.00001029  1  0  0.105296  0.114012  0  1.005112  0
H  H4  1  0.00720765  0.19928685  0.72668129  1  0  0.087656  0.10177  0  1.052534  0
H  H5  1  0.49274545  0.47258804  0.27329294  1  0  0.087639  0.101754  0  1.05248  0
H  H6  1  0.99278900  0.80071417  0.27331677  1  0  0.087657  0.101767  0  1.052535  0
H  H7  1  0.50724987  0.52740740  0.72670595  1  0  0.087652  0.101784  0  1.05251  0
H  H8  1  0.79136844  0.20683982  0.49219069  1  0  0.090209  0.098382  0  1.02969  0
H  H9  1  0.70859509  0.71462418  0.50777633  1  0  0.090188  0.098321  0  1.02963  0
H  H10  1  0.20862898  0.79316459  0.50780831  1  0  0.090184  0.098339  0  1.029672  0
H  H11  1  0.29140577  0.28537118  0.49222269  1  0  0.090189  0.098332  0  1.029655  0
H  H12  1  0.00324530  0.68482093  0.73927249  1  0  0.083176  0.097465  0  1.077321  0
H  H13  1  0.49673722  0.94554199  0.26072326  1  0  0.083216  0.097532  0  1.077261  0
H  H14  1  0.99675344  0.31518359  0.26073085  1  0  0.083188  0.097489  0  1.077354  0
H  H15  1  0.50326626  0.05445911  0.73928130  1  0  0.083228  0.097532  0  1.07725  0
H  H16  1  0.79098563  0.44937732  0.50308179  1  0  0.096952  0.102366  0  1.004477  0
H  H17  1  0.70899932  0.94627758  0.49690400  1  0  0.096911  0.102278  0  1.004536  0
H  H18  1  0.20901366  0.55062940  0.49691980  1  0  0.096957  0.102395  0  1.004505  0
H  H19  1  0.29100266  0.05371665  0.50309567  1  0  0.096898  0.102269  0  1.004516  0
C  C20  1  0.24997497  0.43796242  0.99998467  1  0  -0.050947  -0.092505  0  3.870974  0
C  C21  1  0.75002024  0.56203871  0.00001615  1  0  -0.050914  -0.092458  0  3.871101  0
C  C22  1  0.12921315  0.43780801  0.86648418  1  0  -0.005221  0.032662  0  4.003317  0
C  C23  1  0.37075179  0.57131360  0.13349374  1  0  -0.005165  0.032512  0  4.003175  0
C  C24  1  0.87077933  0.56219308  0.13351405  1  0  -0.005221  0.032603  0  4.003418  0
C  C25  1  0.62924594  0.42868636  0.86650700  1  0  -0.005142  0.032604  0  4.003103  0
C  C26  1  0.13102099  0.57845933  0.87077661  1  0  0.114346  0.20272  0  3.988643  0
C  C27  1  0.36894956  0.70767100  0.12921019  1  0  0.114528  0.202926  0  3.988722  0
C  C28  1  0.86897704  0.42154168  0.12922174  1  0  0.114362  0.202828  0  3.988597  0
C  C29  1  0.63104741  0.29232553  0.87078862  1  0  0.114506  0.202875  0  3.988863  0
C  C30  1  0.00476966  0.30419919  0.72737472  1  0  -0.086096  -0.107785  0  3.951948  0
C  C31  1  0.49519407  0.57680720  0.27260136  1  0  -0.08609  -0.107689  0  3.951772  0
C  C32  1  0.99522660  0.69580644  0.27262667  1  0  -0.086144  -0.107888  0  3.951967  0
C  C33  1  0.50480317  0.42319045  0.72739708  1  0  -0.086172  -0.107832  0  3.951763  0
C  C34  1  0.88672445  0.30842945  0.59912615  1  0  -0.091341  -0.080027  0  4.001884  0
C  C35  1  0.61324638  0.70928478  0.40085544  1  0  -0.091383  -0.080034  0  4.001772  0
C  C36  1  0.11327211  0.69157723  0.40087284  1  0  -0.091327  -0.079907  0  4.001782  0
C  C37  1  0.38674710  0.29070830  0.59913883  1  0  -0.091325  -0.080016  0  4.001713  0
C  C38  1  0.00529891  0.57884050  0.73665939  1  0  -0.100504  -0.180026  0  3.963887  0
C  C39  1  0.49467650  0.84217336  0.26332622  1  0  -0.100664  -0.180215  0  3.963841  0
C  C40  1  0.99470236  0.42116283  0.26334285  1  0  -0.1005  -0.180069  0  3.963949  0
C  C41  1  0.50532969  0.15782781  0.73668195  1  0  -0.100675  -0.180184  0  3.963879  0
C  C42  1  0.88690494  0.44742075  0.60513551  1  0  -0.077132  -0.032906  0  3.968048  0
C  C43  1  0.61307826  0.84227171  0.39484771  1  0  -0.077001  -0.032715  0  3.9677  0
C  C44  1  0.11309581  0.55258029  0.39486544  1  0  -0.077143  -0.032976  0  3.967972  0
C  C45  1  0.38692475  0.15772702  0.60515251  1  0  -0.07699  -0.0327  0  3.967686  0
Br  Br46  1  0.48999843  0.18854688  0.20839632  1  0  -0.211121  -0.359871  0  1.420834  0
Br  Br47  1  0.01002031  0.98016096  0.79160347  1  0  -0.211141  -0.359872  0  1.420785  0
Br  Br48  1  0.51002903  0.81144369  0.79160679  1  0  -0.211139  -0.359872  0  1.420776  0
Br  Br49  1  0.98999784  0.01984323  0.20839877  1  0  -0.211125  -0.359866  0  1.420799  0
N  N50  1  0.24999132  0.70747989  0.99999812  1  0  -0.302369  -0.262218  0  3.474487  0
N  N51  1  0.75000994  0.29252344  0.00000412  1  0  -0.302355  -0.2622  0  3.474474  0
