# generated using pymatgen
data_MnH24C18(SN7)2
_symmetry_space_group_name_H-M   'P 1'
_cell_length_a   8.39659647
_cell_length_b   8.71081362
_cell_length_c   11.23422995
_cell_angle_alpha   108.43328508
_cell_angle_beta   91.07995571
_cell_angle_gamma   105.22312154
_symmetry_Int_Tables_number   1
_chemical_formula_structural   MnH24C18(SN7)2
_chemical_formula_sum   'Mn1 H24 C18 S2 N14'
_cell_volume   747.50069149
_cell_formula_units_Z   1
loop_
 _symmetry_equiv_pos_site_id
 _symmetry_equiv_pos_as_xyz
  1  'x, y, z'
loop_
 _atom_site_type_symbol
 _atom_site_label
 _atom_site_symmetry_multiplicity
 _atom_site_fract_x
 _atom_site_fract_y
 _atom_site_fract_z
 _atom_site_occupancy
 _atom_site_hle17_ddec_charge
 _atom_site_hle17_ddec_spin_density
 _atom_site_hle17_ddec_sum_bond_order
 _atom_site_hle17_magmom
 _atom_site_hse06_10hf_ddec_charge
 _atom_site_hse06_10hf_ddec_spin_density
 _atom_site_hse06_10hf_ddec_sum_bond_order
 _atom_site_hse06_10hf_magmom
 _atom_site_hse06_ddec_charge
 _atom_site_hse06_ddec_spin_density
 _atom_site_hse06_ddec_sum_bond_order
 _atom_site_hse06_magmom
 _atom_site_pbe_cm5_charge
 _atom_site_pbe_ddec_charge
 _atom_site_pbe_ddec_spin_density
 _atom_site_pbe_ddec_sum_bond_order
 _atom_site_pbe_magmom
Mn  Mn0  1  0.00006529  0.00000973  0.99990176  1  0.651522  1.062773  3.045429  1.021  0.546941  1.020416  3.609607  0.974  0.596644  1.020702  3.5442  0.975  0.682194  0.513331  1.006606  3.651314  0.955
H  H1  1  0.51119232  0.72052370  0.18350531  1  0.07925  0.000159  0.933773  0.0  0.091142  0.000233  1.00524  0.0  0.091737  0.000178  1.005499  0.0  0.107304  0.090519  0.000298  1.005042  0.0
H  H2  1  0.48880956  0.27948293  0.81649952  1  0.079195  0.000146  0.933831  0.0  0.091107  0.000233  1.00525  0.0  0.091717  0.000177  1.005494  0.0  0.107252  0.090489  0.000298  1.005049  0.0
H  H3  1  0.64093811  0.79135089  0.07642605  1  0.090311  -0.000256  0.946224  0.0  0.101698  -0.0003  1.014792  0.0  0.102113  -0.000268  1.015754  0.0  0.116875  0.101266  -0.00029  1.014204  0.0
H  H4  1  0.35906770  0.20865690  0.92358267  1  0.090297  -0.000236  0.946305  0.0  0.101722  -0.000301  1.014797  0.0  0.102135  -0.000269  1.015762  0.0  0.116893  0.101295  -0.000291  1.014215  0.0
H  H5  1  0.45723230  0.56431204  0.89432845  1  0.072015  -6.8e-05  0.923679  0.0  0.091994  -1.5e-05  0.978821  0.0  0.092674  -1.2e-05  0.979273  0.0  0.094931  0.091396  -2.2e-05  0.978656  0.0
H  H6  1  0.54277638  0.43569335  0.10567610  1  0.071974  -4.6e-05  0.92372  0.0  0.09201  -1.5e-05  0.978806  0.0  0.09269  -1.2e-05  0.979252  0.0  0.094942  0.091415  -2.2e-05  0.978639  0.0
H  H7  1  0.31752389  0.50074856  0.99814241  1  0.072767  1.4e-05  0.954827  0.0  0.090304  4.5e-05  1.016602  0.0  0.090248  3.3e-05  1.018254  0.0  0.09168  0.090125  6.3e-05  1.015616  0.0
H  H8  1  0.68247863  0.49925180  0.00185988  1  0.072933  -3.4e-05  0.954819  0.0  0.090379  4.5e-05  1.01662  0.0  0.090324  3.3e-05  1.018273  0.0  0.091714  0.090199  6.4e-05  1.015635  0.0
H  H9  1  0.35638414  0.20674679  0.17932497  1  0.100766  -0.000115  0.925371  0.0  0.113159  -0.000156  0.979649  0.0  0.114787  -0.000143  0.977455  0.0  0.140576  0.111591  -0.000157  0.981743  0.0
H  H10  1  0.64362988  0.79326249  0.82063701  1  0.100728  -0.000111  0.925383  0.0  0.113173  -0.000156  0.979612  0.0  0.114801  -0.000143  0.977422  0.0  0.140598  0.111605  -0.000157  0.981705  0.0
H  H11  1  0.19014292  0.69243681  0.96190647  1  0.110473  4.6e-05  0.935434  0.0  0.121235  -0.000169  0.996535  0.0  0.12339  -0.000126  0.993449  0.0  0.144846  0.119248  -0.000222  0.999363  0.0
H  H12  1  0.80989184  0.30757010  0.03805149  1  0.110449  5.2e-05  0.93532  0.0  0.121213  -0.000169  0.996429  0.0  0.123371  -0.000126  0.993337  0.0  0.1448  0.119199  -0.000221  0.999291  0.0
H  H13  1  0.73400761  0.20837184  0.47581283  1  0.080217  -3.7e-05  0.915063  0.0  0.098861  -6.5e-05  0.972867  0.0  0.099426  -3.2e-05  0.972442  0.0  0.112541  0.098236  -8.2e-05  0.973389  0.0
H  H14  1  0.26596853  0.79162294  0.52420294  1  0.080317  -8e-06  0.914863  0.0  0.098976  -6.5e-05  0.972639  0.0  0.099537  -3.1e-05  0.972219  0.0  0.112577  0.098352  -8.2e-05  0.973165  0.0
H  H15  1  0.79570199  0.07555238  0.54733763  1  0.089639  2e-05  0.906527  0.0  0.10645  -6.3e-05  0.965592  0.0  0.107157  -2.8e-05  0.965379  0.0  0.112788  0.105953  -5.5e-05  0.965592  0.0
H  H16  1  0.20425663  0.92444337  0.45268627  1  0.089823  -1.9e-05  0.906406  0.0  0.106464  -6.3e-05  0.965579  0.0  0.107166  -2.8e-05  0.965376  0.0  0.11283  0.105971  -5.5e-05  0.965567  0.0
H  H17  1  0.54510247  0.83663811  0.42942300  1  0.07483  -1.6e-05  0.925779  0.0  0.092048  2.6e-05  0.984579  0.0  0.09332  2.4e-05  0.98421  0.0  0.092035  0.090984  4.2e-05  0.985005  0.0
H  H18  1  0.45486340  0.16335440  0.57058319  1  0.074656  7.8e-05  0.926078  0.0  0.092073  2.5e-05  0.984535  0.0  0.093339  2.4e-05  0.984178  0.0  0.092036  0.091003  4.2e-05  0.984958  0.0
H  H19  1  0.48560944  0.96991611  0.35717253  1  0.07147  6.7e-05  0.966678  0.0  0.08495  3.4e-05  1.033738  0.0  0.085965  2.7e-05  1.034541  0.0  0.088707  0.084341  4.3e-05  1.03296  0.0
H  H20  1  0.51436348  0.03008915  0.64283260  1  0.071651  -1.9e-05  0.966717  0.0  0.084953  3.4e-05  1.033823  0.0  0.085954  2.7e-05  1.034649  0.0  0.088706  0.084344  4.3e-05  1.033041  0.0
H  H21  1  0.97593218  0.74949668  0.18033478  1  0.084456  -0.000172  0.966141  0.0  0.089493  -0.000187  1.03771  0.0  0.091359  -0.000122  1.035523  0.0  0.119037  0.087904  -0.000212  1.039557  0.0
H  H22  1  0.02405974  0.25050222  0.81971334  1  0.084591  -0.000173  0.965784  0.0  0.089596  -0.000188  1.037439  0.0  0.091473  -0.000122  1.035245  0.0  0.119083  0.088002  -0.000213  1.039294  0.0
H  H23  1  0.82968464  0.19511354  0.25761742  1  0.109365  0.000349  0.918979  0.0  0.11979  -0.000138  0.981149  0.0  0.12223  -0.000122  0.977367  0.0  0.146758  0.117871  -0.000167  0.983986  0.0
H  H24  1  0.17031460  0.80486974  0.74240262  1  0.109468  0.000339  0.919236  0.0  0.119909  -0.000139  0.981357  0.0  0.122358  -0.000123  0.977567  0.0  0.146723  0.117975  -0.000168  0.984206  0.0
C  C25  1  0.51303546  0.73106219  0.08849085  1  -0.020314  0.000137  3.633823  0.0  -0.095308  0.000183  3.896711  0.0  -0.09225  0.000159  3.908743  0.0  -0.052496  -0.096784  0.000272  3.888207  0.0
C  C26  1  0.48696999  0.26894443  0.91151488  1  -0.020167  0.000147  3.633788  0.0  -0.095254  0.000182  3.896709  0.0  -0.092212  0.000159  3.908759  0.0  -0.052475  -0.096734  0.000271  3.888191  0.0
C  C27  1  0.44879653  0.55673967  0.99014724  1  -0.123013  -7.2e-05  3.689067  0.0  -0.16232  4.2e-05  3.947001  0.0  -0.16408  3e-05  3.962227  0.0  -0.160478  -0.160902  5.4e-05  3.936448  0.0
C  C28  1  0.55120620  0.44326562  0.00985991  1  -0.123244  7e-06  3.689162  0.0  -0.162472  4.2e-05  3.94707  0.0  -0.164231  3.2e-05  3.962294  0.0  -0.160511  -0.16105  5.4e-05  3.93653  0.0
C  C29  1  0.35222336  0.07540667  0.13554171  1  0.192264  0.000848  3.688508  0.001  0.13818  -0.001384  3.98118  0.0  0.151408  -0.000785  3.991749  0.0  0.146774  0.129098  -0.00173  3.974328  -0.001
C  C30  1  0.64779409  0.92460631  0.86442394  1  0.192263  0.000803  3.688495  0.001  0.13813  -0.001385  3.981306  0.0  0.151352  -0.000792  3.99188  0.0  0.146769  0.129048  -0.00173  3.974449  -0.001
C  C31  1  0.26451468  0.81453141  0.02378502  1  0.1547  -0.006701  3.613344  -0.004  0.075813  -0.002743  3.883117  -0.001  0.091828  -0.000169  3.893629  0.0  0.160033  0.064408  -0.004819  3.87718  -0.002
C  C32  1  0.73550972  0.18547663  0.97617672  1  0.154886  -0.006681  3.613187  -0.004  0.076048  -0.002747  3.882958  -0.001  0.09206  -0.000182  3.893467  0.0  0.160028  0.064661  -0.00482  3.877039  -0.002
C  C33  1  0.72705945  0.07648183  0.46348501  1  -0.001322  -0.000376  3.610824  0.0  -0.077615  -3.7e-05  3.870679  0.0  -0.073561  1.1e-05  3.881428  0.0  -0.044811  -0.079972  -7.1e-05  3.863151  0.0
C  C34  1  0.27290002  0.92351272  0.53653680  1  -0.001695  -0.000303  3.610661  0.0  -0.077643  -3.6e-05  3.870501  0.0  -0.073596  1e-05  3.881245  0.0  -0.044862  -0.080004  -7.1e-05  3.862987  0.0
C  C35  1  0.54662846  0.96810968  0.44398851  1  -0.127073  -0.000833  3.678041  -0.001  -0.166225  1e-05  3.939474  0.0  -0.168488  4e-06  3.954251  0.0  -0.165248  -0.164583  2.7e-05  3.929287  0.0
C  C36  1  0.45333693  0.03188518  0.55602363  1  -0.127521  -0.00051  3.678534  0.0  -0.166186  9e-06  3.939625  0.0  -0.168454  3e-06  3.954411  0.0  -0.165212  -0.164526  2.6e-05  3.92942  0.0
C  C37  1  0.92485223  0.85342180  0.22479072  1  0.180792  -0.001464  3.701466  0.0  0.130818  -0.002006  3.991578  -0.001  0.142444  -0.001567  4.003898  0.0  0.138336  0.122935  -0.002175  3.983399  -0.001
C  C38  1  0.07514167  0.14656708  0.77525302  1  0.180555  -0.001425  3.701653  0.0  0.130571  -0.002025  3.99171  -0.001  0.142202  -0.001584  4.004026  0.0  0.138288  0.122672  -0.002195  3.983559  -0.001
C  C39  1  0.85387315  0.08089202  0.26202519  1  0.165999  -0.008632  3.61911  -0.006  0.083915  -0.00359  3.889914  -0.002  0.100042  -0.001597  3.899908  -0.001  0.166336  0.073326  -0.004579  3.883244  -0.003
C  C40  1  0.14611898  0.91909088  0.73800628  1  0.165461  -0.008768  3.619105  -0.006  0.083433  -0.003636  3.889976  -0.002  0.099572  -0.001616  3.89996  -0.001  0.166221  0.072831  -0.004638  3.883331  -0.003
C  C41  1  0.12624428  0.38197941  0.15341285  1  0.246449  0.0052  4.062466  0.006  0.237076  0.011127  4.365083  0.011  0.260843  0.011691  4.378795  0.011  0.122824  0.220321  0.012362  4.353964  0.012
C  C42  1  0.87379112  0.61801186  0.84655793  1  0.245654  0.005263  4.062671  0.006  0.236534  0.011124  4.36517  0.011  0.260297  0.011689  4.378884  0.011  0.12255  0.219778  0.012355  4.354055  0.012
S  S43  1  0.17058543  0.57452236  0.24861604  1  -0.39523  0.010952  2.009342  0.01  -0.393821  0.01643  2.289851  0.013  -0.407954  0.012059  2.281767  0.009  -0.201192  -0.380627  0.023692  2.293979  0.018
S  S44  1  0.82940417  0.42544311  0.75140371  1  -0.394823  0.010751  2.009681  0.01  -0.39364  0.016422  2.290206  0.013  -0.407774  0.012055  2.282122  0.009  -0.201105  -0.380445  0.023669  2.294335  0.018
N  N45  1  0.41568635  0.84585020  0.08370572  1  0.042497  -0.000602  3.572752  0.0  0.159731  -0.001058  3.765193  -0.001  0.149473  -0.000678  3.789361  -0.001  -0.136023  0.164697  -0.001577  3.75175  -0.001
N  N46  1  0.58431224  0.15414886  0.91629709  1  0.042332  -0.000603  3.573042  0.0  0.159718  -0.001057  3.765272  -0.001  0.149461  -0.000679  3.789437  -0.001  -0.13597  0.164691  -0.001575  3.751829  -0.001
N  N47  1  0.47319126  0.01155378  0.15572342  1  -0.282273  0.001186  2.891276  0.001  -0.282293  8.5e-05  3.167093  0.0  -0.290658  -0.000168  3.17987  0.0  -0.22372  -0.276249  3.2e-05  3.158458  0.0
N  N48  1  0.52680138  0.98844516  0.84428287  1  -0.282149  0.001114  2.891606  0.001  -0.282303  8.2e-05  3.167466  0.0  -0.290677  -0.000167  3.180253  0.0  -0.223714  -0.276255  2.9e-05  3.158823  0.0
N  N49  1  0.22086968  0.95893036  0.05411503  1  -0.321911  -0.00985  3.273342  -0.009  -0.263756  -0.007372  3.58008  -0.009  -0.287769  -0.006508  3.592307  -0.008  -0.333419  -0.247718  -0.008154  3.571389  -0.009
N  N50  1  0.77917222  0.04108627  0.94581704  1  -0.32174  -0.009917  3.272886  -0.009  -0.263902  -0.007375  3.580017  -0.009  -0.287902  -0.006508  3.592215  -0.008  -0.333379  -0.247861  -0.008157  3.571321  -0.009
N  N51  1  0.81584170  0.01720905  0.35584035  1  0.040809  -0.000338  3.569084  -0.001  0.162022  -0.000957  3.758761  -0.001  0.151387  -0.00074  3.783072  0.0  -0.132547  0.167458  -0.001215  3.744741  -0.001
N  N52  1  0.18412972  0.98278512  0.64419480  1  0.041812  -0.000559  3.568361  -0.001  0.162209  -0.000967  3.758753  -0.001  0.151665  -0.000749  3.782888  0.0  -0.132387  0.167637  -0.001227  3.744753  -0.001
N  N53  1  0.86016104  0.87195907  0.33375976  1  -0.280125  0.00082  2.839127  0.002  -0.286947  -0.000121  3.102638  0.0  -0.294118  -0.000325  3.114425  0.0  -0.234075  -0.281633  -0.0002  3.094705  0.0
N  N54  1  0.13980853  0.12803218  0.66628708  1  -0.280388  0.000962  2.839831  0.002  -0.286891  -0.000115  3.103257  0.0  -0.294068  -0.00032  3.115025  0.0  -0.234209  -0.281591  -0.000194  3.095348  0.0
N  N55  1  0.92297927  0.97921157  0.17660731  1  -0.332769  -0.006691  3.25557  -0.008  -0.270698  -0.007292  3.551879  -0.009  -0.295646  -0.006283  3.565506  -0.008  -0.327945  -0.25368  -0.008334  3.541944  -0.009
N  N56  1  0.07702287  0.02078067  0.82345162  1  -0.332507  -0.006667  3.257404  -0.008  -0.270204  -0.007303  3.553737  -0.009  -0.29518  -0.006288  3.567356  -0.008  -0.328209  -0.253191  -0.008353  3.543835  -0.009
N  N57  1  0.09189925  0.23957023  0.08370226  1  -0.501075  -0.0149  3.173784  -0.015  -0.463467  -0.010715  3.490855  -0.015  -0.485954  -0.014863  3.494508  -0.018  -0.431423  -0.446468  -0.006058  3.485749  -0.012
N  N58  1  0.90815084  0.76045966  0.91621287  1  -0.500296  -0.015033  3.173421  -0.015  -0.462895  -0.010714  3.490527  -0.015  -0.485375  -0.014851  3.494175  -0.018  -0.431172  -0.4459  -0.006057  3.485424  -0.012
