# generated using pymatgen
data_NdPH19C24NO8
_symmetry_space_group_name_H-M   'P 1'
_cell_length_a   10.67266997
_cell_length_b   11.99809397
_cell_length_c   14.65878634
_cell_angle_alpha   73.66554965
_cell_angle_beta   74.26607607
_cell_angle_gamma   63.18259183
_symmetry_Int_Tables_number   1
_chemical_formula_structural   NdPH19C24NO8
_chemical_formula_sum   'Nd2 P2 H38 C48 N2 O16'
_cell_volume   1584.60351286
_cell_formula_units_Z   2
loop_
 _symmetry_equiv_pos_site_id
 _symmetry_equiv_pos_as_xyz
  1  'x, y, z'
loop_
 _atom_site_type_symbol
 _atom_site_label
 _atom_site_symmetry_multiplicity
 _atom_site_fract_x
 _atom_site_fract_y
 _atom_site_fract_z
 _atom_site_occupancy
 _atom_site_pbe_bader_charge
 _atom_site_pbe_bader_spin_density
 _atom_site_pbe_cm5_charge
 _atom_site_pbe_ddec_charge
 _atom_site_pbe_ddec_spin_density
 _atom_site_pbe_ddec_sum_bond_order
 _atom_site_pbe_magmom
Nd  Nd0  1  0.99272751  0.54627442  0.62794616  1  2.25689  0  1.50779  2.133747  0  2.156177  0
Nd  Nd1  1  0.00726114  0.45372916  0.37205394  1  2.256955  0  1.507769  2.133823  0  2.15601  0
P  P2  1  0.14407523  0.71305944  0.73279167  1  2.827863  0  0.275556  0.871184  0  4.818672  0
P  P3  1  0.85594006  0.28692536  0.26721598  1  2.827784  0  0.275456  0.871061  0  4.818609  0
H  H4  1  0.49165775  0.63558000  0.43767397  1  0.114648  0  0.108903  0.114622  0  0.996201  0
H  H5  1  0.50834300  0.36441098  0.56232716  1  0.114986  0  0.108919  0.114627  0  0.996174  0
H  H6  1  0.94803994  0.89239092  0.61083695  1  0.116569  0  0.112429  0.119216  0  1.024001  0
H  H7  1  0.05197278  0.10759494  0.38916555  1  0.116469  0  0.112467  0.119325  0  1.024075  0
H  H8  1  0.25264144  0.67496577  0.54183247  1  0.136386  0  0.112589  0.115219  0  1.049686  0
H  H9  1  0.74735410  0.32501419  0.45817030  1  0.136304  0  0.112553  0.115094  0  1.049674  0
H  H10  1  0.96007405  0.83572575  0.89209338  1  0.087355  0  0.101938  0.098517  0  1.010896  0
H  H11  1  0.03992531  0.16427940  0.10789451  1  0.087498  0  0.101951  0.098518  0  1.010949  0
H  H12  1  0.66571618  0.60304934  0.68140545  1  0.122195  0  0.113373  0.103873  0  1.050904  0
H  H13  1  0.33428058  0.39694647  0.31859472  1  0.121251  0  0.113331  0.103884  0  1.050974  0
H  H14  1  0.42950686  0.64718586  0.78444695  1  0.065988  0  0.102329  0.099169  0  1.009376  0
H  H15  1  0.57049275  0.35279584  0.21555249  1  0.066093  0  0.102288  0.099152  0  1.009495  0
H  H16  1  0.19059401  0.90418272  0.79768618  1  0.06027  0  0.100689  0.095103  0  1.004874  0
H  H17  1  0.80941244  0.09580897  0.20231834  1  0.059778  0  0.100729  0.095155  0  1.004913  0
H  H18  1  0.27866630  0.39965683  0.03060985  1  0.095879  0  0.106205  0.107946  0  0.993549  0
H  H19  1  0.72131597  0.60036643  0.96941228  1  0.09572  0  0.106222  0.10791  0  0.993439  0
H  H20  1  0.92443407  0.75350545  0.06987788  1  0.101473  0  0.10841  0.113665  0  0.993239  0
H  H21  1  0.07554782  0.24653022  0.93011073  1  0.103126  0  0.108416  0.113748  0  0.993298  0
H  H22  1  0.87369437  0.12767417  0.55062350  1  0.072166  0  0.102035  0.096784  0  1.040532  0
H  H23  1  0.12630770  0.87232053  0.44937512  1  0.075508  0  0.10205  0.096739  0  1.04053  0
H  H24  1  0.10402236  0.14081604  0.74270680  1  0.127501  0  0.112187  0.118382  0  0.992387  0
H  H25  1  0.89598301  0.85917847  0.25730003  1  0.127487  0  0.112207  0.11834  0  0.992408  0
H  H26  1  0.30893145  0.47465141  0.85171292  1  0.062194  0  0.112069  0.111733  0  0.980574  0
H  H27  1  0.69108106  0.52534834  0.14830754  1  0.062056  0  0.112078  0.111752  0  0.980644  0
H  H28  1  0.65555344  0.80928885  0.73603361  1  0.112291  0  0.127743  0.052241  0  0.976308  0
H  H29  1  0.34441414  0.19072660  0.26398120  1  0.112608  0  0.1278  0.052291  0  0.976289  0
H  H30  1  0.70739287  0.07695612  0.51790770  1  0.076057  0  0.101283  0.115664  0  1.011434  0
H  H31  1  0.29262509  0.92304374  0.48207267  1  0.075721  0  0.101326  0.115699  0  1.011571  0
H  H32  1  0.55612133  0.07589937  0.49002726  1  0.048385  0  0.104375  0.116158  0  1.005213  0
H  H33  1  0.44386548  0.92410169  0.50994584  1  0.048824  0  0.104475  0.11624  0  1.005274  0
H  H34  1  0.72395687  0.93909817  0.48343649  1  0.093671  0  0.112368  0.130689  0  1.009323  0
H  H35  1  0.27605386  0.06087756  0.51655787  1  0.093882  0  0.11248  0.130863  0  1.009272  0
H  H36  1  0.39342222  0.07826949  0.65117348  1  0.056531  0  0.107947  0.122668  0  0.99225  0
H  H37  1  0.60655474  0.92175232  0.34881941  1  0.055317  0  0.108015  0.122731  0  0.992253  0
H  H38  1  0.50670674  0.12768694  0.68406593  1  0.056852  0  0.111993  0.131378  0  0.968919  0
H  H39  1  0.49330911  0.87233535  0.31592263  1  0.057152  0  0.112044  0.131483  0  0.968846  0
H  H40  1  0.47717935  0.99082524  0.75466045  1  0.055474  0  0.111817  0.119145  0  0.990475  0
H  H41  1  0.52284436  0.00917807  0.24532880  1  0.055584  0  0.111887  0.11924  0  0.99049  0
C  C42  1  0.13874519  0.66121734  0.86072310  1  -0.603977  0  -0.023822  -0.153601  0  4.006049  0
C  C43  1  0.86125560  0.33878575  0.13928202  1  -0.603497  0  -0.02384  -0.153864  0  4.006131  0
C  C44  1  0.47509394  0.64025397  0.51347286  1  -0.065552  0  -0.076064  -0.089087  0  3.95886  0
C  C45  1  0.52490699  0.35972677  0.48652448  1  -0.065842  0  -0.076159  -0.089178  0  3.959162  0
C  C46  1  0.07387425  0.88453691  0.70726761  1  -0.587378  0  -0.02772  -0.155167  0  4.01109  0
C  C47  1  0.92612897  0.11545303  0.29273597  1  -0.587393  0  -0.02765  -0.154936  0  4.010922  0
C  C48  1  0.32522341  0.66630483  0.66921974  1  -0.599558  0  -0.018914  -0.139293  0  3.985777  0
C  C49  1  0.67478962  0.33365204  0.33078671  1  -0.599966  0  -0.018758  -0.139226  0  3.985514  0
C  C50  1  0.98184651  0.94746131  0.63925137  1  -0.117488  0  -0.080705  -0.081451  0  3.969463  0
C  C51  1  0.01818305  0.05252119  0.36074421  1  -0.117553  0  -0.080692  -0.081649  0  3.969507  0
C  C52  1  0.34262128  0.66227693  0.57148551  1  -0.036521  0  -0.073224  -0.075958  0  3.963656  0
C  C53  1  0.65737483  0.33770863  0.42851515  1  -0.036186  0  -0.073166  -0.075713  0  3.963811  0
C  C54  1  0.59168861  0.62117826  0.55178502  1  -0.010691  0  -0.005418  -0.016821  0  3.924618  0
C  C55  1  0.40830940  0.37882596  0.44820952  1  -0.010889  0  -0.005457  -0.016809  0  3.924468  0
C  C56  1  0.02994983  0.74002873  0.92217026  1  -0.064642  0  -0.081576  -0.080938  0  4.012054  0
C  C57  1  0.97004230  0.25998313  0.07783058  1  -0.065393  0  -0.081504  -0.080762  0  4.012378  0
C  C58  1  0.57487597  0.62243804  0.64982612  1  -0.099289  0  -0.073396  -0.082493  0  3.93059  0
C  C59  1  0.42513701  0.37753479  0.35017048  1  -0.098401  0  -0.073361  -0.082657  0  3.930668  0
C  C60  1  0.44160497  0.64616994  0.70829102  1  0.004881  0  -0.08457  -0.091076  0  4.00568  0
C  C61  1  0.55840488  0.35382174  0.29169777  1  0.00498  0  -0.084576  -0.091038  0  4.005602  0
C  C62  1  0.11881977  0.95335560  0.74482087  1  -0.046746  0  -0.086607  -0.089866  0  4.026205  0
C  C63  1  0.88118881  0.04663322  0.25518251  1  -0.046008  0  -0.086568  -0.089904  0  4.026317  0
C  C64  1  0.10038782  0.57299449  0.06014694  1  -0.084736  0  -0.000539  0.00776  0  3.919193  0
C  C65  1  0.89958824  0.42702819  0.93985891  1  -0.084711  0  -0.000357  0.007806  0  3.918996  0
C  C66  1  0.07326881  0.52876463  0.16735737  1  1.575054  0  0.188061  0.571739  0  4.240235  0
C  C67  1  0.92670681  0.47126646  0.83265072  1  1.575572  0  0.187977  0.571725  0  4.240361  0
C  C68  1  0.20969428  0.49480660  0.99908303  1  0.055704  0  -0.076745  -0.089421  0  3.950181  0
C  C69  1  0.79029966  0.50521629  0.00093191  1  0.055864  0  -0.076901  -0.089608  0  3.950254  0
C  C70  1  0.01010443  0.69527164  0.02098353  1  -0.037659  0  -0.079877  -0.09121  0  3.962939  0
C  C71  1  0.98988075  0.30474047  0.97901806  1  -0.038856  0  -0.079964  -0.091351  0  3.962885  0
C  C72  1  0.98511773  0.14676589  0.64321842  1  -0.031955  0  -0.004918  -0.011799  0  3.923802  0
C  C73  1  0.01488435  0.85323157  0.35678501  1  -0.032078  0  -0.005003  -0.012009  0  3.924196  0
C  C74  1  0.93971956  0.07782238  0.60667474  1  -0.049067  0  -0.082428  -0.091475  0  3.959921  0
C  C75  1  0.06027760  0.92217524  0.39333038  1  -0.052582  0  -0.082473  -0.091364  0  3.960302  0
C  C76  1  0.07221109  0.08443443  0.71422774  1  -0.028622  0  -0.080172  -0.096873  0  3.955885  0
C  C77  1  0.92779649  0.91555251  0.28578106  1  -0.028394  0  -0.080189  -0.096728  0  3.956136  0
C  C78  1  0.95060183  0.28527320  0.60130605  1  1.618671  0  0.230675  0.633934  0  4.18226  0
C  C79  1  0.04940984  0.71472483  0.39869793  1  1.618467  0  0.23069  0.63379  0  4.18209  0
C  C80  1  0.73275074  0.59396418  0.48648250  1  1.563419  0  0.21  0.605335  0  4.212119  0
C  C81  1  0.26723362  0.40606301  0.51350483  1  1.563952  0  0.21003  0.605329  0  4.212016  0
C  C82  1  0.22763443  0.53753224  0.89953284  1  -0.048085  0  -0.071877  -0.065349  0  3.976332  0
C  C83  1  0.77236218  0.46248126  0.10047553  1  -0.048146  0  -0.071855  -0.065112  0  3.976115  0
C  C84  1  0.69329153  0.84199771  0.65954097  1  1.363133  0  0.187191  0.314913  0  4.113883  0
C  C85  1  0.30674880  0.15796382  0.34045924  1  1.364489  0  0.187463  0.315287  0  4.113379  0
C  C86  1  0.65234677  0.01657202  0.52262636  1  0.250986  0  -0.132398  -0.266251  0  3.880396  0
C  C87  1  0.34765756  0.98343209  0.47735116  1  0.25036  0  -0.132522  -0.266328  0  3.880714  0
C  C88  1  0.49103326  0.04428622  0.68119069  1  0.299981  0  -0.12396  -0.27321  0  3.924678  0
C  C89  1  0.50895585  0.95574361  0.31879501  1  0.300869  0  -0.124025  -0.273442  0  3.925405  0
N  N90  1  0.61288027  0.96239536  0.62250209  1  -1.204581  0  -0.284976  0.012096  0  3.724745  0
N  N91  1  0.38713000  0.03758793  0.37748379  1  -1.204939  0  -0.285194  0.011942  0  3.726161  0
O  O92  1  0.94788576  0.58280094  0.21187818  1  -1.17069  0  -0.383093  -0.620495  0  2.182281  0
O  O93  1  0.05208989  0.41722823  0.78813648  1  -1.171256  0  -0.383092  -0.620474  0  2.182342  0
O  O94  1  0.74455259  0.57744817  0.40225126  1  -1.165156  0  -0.371585  -0.610915  0  2.175287  0
O  O95  1  0.25544793  0.42258497  0.59773532  1  -1.165299  0  -0.371644  -0.611002  0  2.175108  0
O  O96  1  0.92101641  0.32311042  0.51642761  1  -1.206834  0  -0.379342  -0.651359  0  2.295094  0
O  O97  1  0.07898233  0.67687682  0.48358438  1  -1.206825  0  -0.37934  -0.651297  0  2.29515  0
O  O98  1  0.17430229  0.43992901  0.20999646  1  -1.19181  0  -0.388107  -0.656082  0  2.151343  0
O  O99  1  0.82568558  0.56010177  0.78999337  1  -1.191634  0  -0.38812  -0.656095  0  2.151501  0
O  O100  1  0.95853418  0.35054541  0.65241111  1  -1.196552  0  -0.385287  -0.657979  0  2.273537  0
O  O101  1  0.04146847  0.64945105  0.34759721  1  -1.19641  0  -0.385361  -0.657911  0  2.273381  0
O  O102  1  0.83939215  0.58415932  0.51715015  1  -1.214823  0  -0.422767  -0.740719  0  2.453446  0
O  O103  1  0.16058831  0.41585482  0.48285265  1  -1.214993  0  -0.422679  -0.740533  0  2.453622  0
O  O104  1  0.06053712  0.66923154  0.69391791  1  -1.442229  0  -0.430026  -0.735831  0  2.342799  0
O  O105  1  0.93947071  0.33075725  0.30609177  1  -1.442346  0  -0.430051  -0.735802  0  2.342827  0
O  O106  1  0.80171669  0.77156603  0.61220144  1  -1.173904  0  -0.339829  -0.518208  0  2.410819  0
O  O107  1  0.19828469  0.22840715  0.38780439  1  -1.174982  0  -0.340135  -0.518721  0  2.409638  0
