# generated using pymatgen
data_NiP2H38C24S4(NO)4
_symmetry_space_group_name_H-M   'P 1'
_cell_length_a   8.56296082
_cell_length_b   8.64293367
_cell_length_c   11.07348257
_cell_angle_alpha   88.54257232
_cell_angle_beta   81.52540662
_cell_angle_gamma   89.65149887
_symmetry_Int_Tables_number   1
_chemical_formula_structural   NiP2H38C24S4(NO)4
_chemical_formula_sum   'Ni1 P2 H38 C24 S4 N4 O4'
_cell_volume   810.32573304
_cell_formula_units_Z   1
loop_
 _symmetry_equiv_pos_site_id
 _symmetry_equiv_pos_as_xyz
  1  'x, y, z'
loop_
 _atom_site_type_symbol
 _atom_site_label
 _atom_site_symmetry_multiplicity
 _atom_site_fract_x
 _atom_site_fract_y
 _atom_site_fract_z
 _atom_site_occupancy
 _atom_site_pbe_cm5_charge
 _atom_site_pbe_ddec_charge
 _atom_site_pbe_ddec_spin_density
 _atom_site_pbe_ddec_sum_bond_order
 _atom_site_pbe_magmom
Ni  Ni0  1  0.50000122  0.49999823  0.49999863  1  0.453018  0.378148  0.184658  2.95572  0.15
P  P1  1  0.64522276  0.57594842  0.71771174  1  0.255036  0.853846  0.006009  5.38471  0.006
P  P2  1  0.35477732  0.42404807  0.28229029  1  0.255054  0.85389  0.00601  5.384608  0.006
H  H3  1  0.77605673  0.32838498  0.81684647  1  0.092613  0.023735  -0.001374  1.006777  0.0
H  H4  1  0.22394453  0.67161498  0.18315536  1  0.092606  0.023696  -0.001374  1.006824  0.0
H  H5  1  0.52232151  0.19236674  0.87535069  1  0.083323  0.120115  6.9e-05  1.036453  0.0
H  H6  1  0.47767857  0.80763322  0.12464946  1  0.083317  0.120097  6.9e-05  1.036484  0.0
H  H7  1  0.49670436  0.27884787  0.02191432  1  0.091346  0.14149  -0.000134  1.013086  0.0
H  H8  1  0.50329927  0.72114861  0.97808551  1  0.091326  0.141475  -0.000134  1.013129  0.0
H  H9  1  0.65357836  0.14468619  0.98083817  1  0.08703  0.121305  -6.1e-05  1.028662  0.0
H  H10  1  0.34642172  0.85531376  0.01916108  1  0.087041  0.121323  -6.1e-05  1.028643  0.0
H  H11  1  0.85070335  0.54263018  0.94673831  1  0.087943  0.13186  7.7e-05  1.015099  0.0
H  H12  1  0.14929791  0.45736746  0.05326266  1  0.087933  0.131862  7.7e-05  1.015067  0.0
H  H13  1  0.85883158  0.35881128  0.02265124  1  0.084251  0.11498  4e-06  1.043355  0.0
H  H14  1  0.14117086  0.64118636  0.97734779  1  0.084225  0.114931  4e-06  1.043378  0.0
H  H15  1  0.69569337  0.48536005  0.06531283  1  0.087718  0.137192  -2.7e-05  1.033764  0.0
H  H16  1  0.30430907  0.51463643  0.93468893  1  0.08771  0.137193  -2.7e-05  1.033754  0.0
H  H17  1  0.78827260  0.79488901  0.57916136  1  0.096651  0.029255  9.4e-05  0.989885  0.0
H  H18  1  0.21172630  0.20511095  0.42083983  1  0.096646  0.029231  9.4e-05  0.989916  0.0
H  H19  1  0.04075296  0.67155508  0.59522854  1  0.079456  0.132115  -0.000249  1.04434  0.0
H  H20  1  0.95924476  0.32844605  0.40477546  1  0.079432  0.132076  -0.000249  1.044357  0.0
H  H21  1  0.06843882  0.78530936  0.72301008  1  0.085754  0.126615  -4.4e-05  1.016796  0.0
H  H22  1  0.93155890  0.21468945  0.27699217  1  0.085767  0.126625  -4.4e-05  1.016769  0.0
H  H23  1  0.07493526  0.87385657  0.57521703  1  0.088381  0.131237  0.000123  0.997972  0.0
H  H24  1  0.92506482  0.12614455  0.42478400  1  0.088388  0.131224  0.000123  0.997984  0.0
H  H25  1  0.66424381  0.98193148  0.72903259  1  0.085251  0.122577  4e-06  1.039502  0.0
H  H26  1  0.33575272  0.01806501  0.27096805  1  0.085261  0.122566  5e-06  1.039445  0.0
H  H27  1  0.84191590  0.06310006  0.65013082  1  0.086372  0.124626  -0.00026  1.018564  0.0
H  H28  1  0.15808182  0.93690337  0.34986953  1  0.08637  0.124648  -0.00026  1.018614  0.0
H  H29  1  0.83633472  0.98562829  0.80135298  1  0.088409  0.132414  4e-06  1.020151  0.0
H  H30  1  0.16365827  0.01437051  0.19864710  1  0.088407  0.132413  4e-06  1.020129  0.0
H  H31  1  0.53397712  0.16569886  0.56290094  1  0.10944  0.089159  0.001773  1.012674  0.001
H  H32  1  0.46602650  0.83429643  0.43709350  1  0.109419  0.089152  0.001772  1.012782  0.001
H  H33  1  0.39853795  0.97069650  0.71277773  1  0.092533  0.107981  -0.000679  1.07199  0.0
H  H34  1  0.60145386  0.02930691  0.28721787  1  0.092543  0.107974  -0.000679  1.071993  0.0
H  H35  1  0.05149948  0.32224826  0.82985364  1  0.114345  0.123405  0.000292  1.015966  0.0
H  H36  1  0.94850769  0.67775515  0.17014562  1  0.114329  0.123372  0.000292  1.015997  0.0
H  H37  1  0.19761501  0.49933769  0.67139379  1  0.108887  0.088013  0.001297  1.034014  0.001
H  H38  1  0.80238979  0.50066456  0.32860397  1  0.108835  0.087997  0.001297  1.034061  0.001
H  H39  1  0.19151108  0.90423801  0.87885068  1  0.117991  0.078733  -0.000323  1.014021  0.0
H  H40  1  0.80848663  0.09577003  0.12114595  1  0.117954  0.078676  -0.000323  1.014054  0.0
C  C41  1  0.69264466  0.36974141  0.89493103  1  0.012034  0.320881  -0.000774  3.791585  -0.001
C  C42  1  0.30735542  0.63025855  0.10507003  1  0.012069  0.320933  -0.000773  3.791696  -0.001
C  C43  1  0.58395384  0.23870188  0.94655661  1  -0.250111  -0.424448  -0.000114  3.888144  0.0
C  C44  1  0.41604742  0.76129692  0.05344343  1  -0.250113  -0.424444  -0.000114  3.888206  0.0
C  C45  1  0.77967710  0.44445747  0.98817120  1  -0.255805  -0.451923  0.000185  3.908316  0.0
C  C46  1  0.22032416  0.55554134  0.01183155  1  -0.255763  -0.451871  0.000185  3.908346  0.0
C  C47  1  0.84044022  0.81265382  0.66310313  1  0.007655  0.310234  0.000251  3.824223  0.0
C  C48  1  0.15955868  0.18734614  0.33689896  1  0.007663  0.310333  0.000251  3.824187  0.0
C  C49  1  0.01690098  0.78403145  0.63793248  1  -0.25324  -0.431433  1.1e-05  3.897807  0.0
C  C50  1  0.98310028  0.21596736  0.36207027  1  -0.253246  -0.431433  1.1e-05  3.89784  0.0
C  C51  1  0.79308979  0.97017357  0.71398943  1  -0.252505  -0.435116  -0.0003  3.907669  0.0
C  C52  1  0.20690321  0.02982756  0.28601150  1  -0.25251  -0.435164  -0.0003  3.907662  0.0
C  C53  1  0.42597646  0.19472501  0.62307309  1  0.042672  0.086043  -0.000516  3.948413  -0.001
C  C54  1  0.57402244  0.80527377  0.37692181  1  0.042702  0.0861  -0.000517  3.948507  -0.001
C  C55  1  0.35063833  0.08758910  0.70722693  1  -0.082754  -0.171424  0.000264  3.935248  0.0
C  C56  1  0.64935348  0.91240968  0.29276788  1  -0.082817  -0.171438  0.000264  3.935335  0.0
C  C57  1  0.21492571  0.13190180  0.78602639  1  0.006884  0.105196  -0.002065  4.01693  -0.001
C  C58  1  0.78506847  0.86810164  0.21397436  1  0.006919  0.10515  -0.002065  4.016978  -0.001
C  C59  1  0.15716499  0.28274940  0.77193602  1  -0.071235  -0.144425  0.000684  3.891047  0.001
C  C60  1  0.84283863  0.71725400  0.22806004  1  -0.071171  -0.144294  0.000684  3.891116  0.001
C  C61  1  0.23823557  0.38154482  0.68433267  1  0.045254  0.093764  -7.2e-05  3.925904  0.0
C  C62  1  0.76177513  0.61846205  0.31566430  1  0.045234  0.093698  -7.1e-05  3.925981  0.0
C  C63  1  0.14271124  0.02220095  0.87886266  1  0.082504  0.05027  -0.002089  3.919425  -0.001
C  C64  1  0.85729003  0.97780367  0.12114447  1  0.082532  0.050329  -0.002089  3.919676  -0.001
S  S65  1  0.74104273  0.43406045  0.58717712  1  -0.171132  -0.475442  -0.095438  2.397342  -0.064
S  S66  1  0.25895853  0.56593835  0.41282292  1  -0.171142  -0.475466  -0.095437  2.397363  -0.064
S  S67  1  0.45831444  0.68561105  0.66825212  1  -0.165333  -0.466704  -0.041227  2.408755  -0.031
S  S68  1  0.54169036  0.31438657  0.33174574  1  -0.165313  -0.466673  -0.041222  2.408674  -0.031
N  N69  1  0.37234062  0.34024509  0.61214032  1  -0.325972  -0.182681  0.048362  3.633405  0.054
N  N70  1  0.62766300  0.65975252  0.38785587  1  -0.325913  -0.182666  0.048362  3.633276  0.054
N  N71  1  0.02496093  0.06088200  0.96009169  1  -0.207589  -0.168457  -0.000981  3.314094  -0.001
N  N72  1  0.97502970  0.93911915  0.03991312  1  -0.207562  -0.168471  -0.000981  3.314303  -0.001
O  O73  1  0.59186777  0.48786540  0.84538514  1  -0.200657  -0.364211  0.000573  2.494572  0.001
O  O74  1  0.40813349  0.51213225  0.15461674  1  -0.200714  -0.364257  0.000573  2.494439  0.001
O  O75  1  0.77280684  0.69556994  0.75479321  1  -0.20994  -0.369858  -0.005681  2.450744  -0.006
O  O76  1  0.22719442  0.30443002  0.24520771  1  -0.209894  -0.369856  -0.005681  2.450732  -0.006
