# generated using pymatgen
data_ZnH7C10NO5
_symmetry_space_group_name_H-M   'P 1'
_cell_length_a   8.24930265
_cell_length_b   9.28389108
_cell_length_c   10.87057857
_cell_angle_alpha   82.44282067
_cell_angle_beta   92.78363487
_cell_angle_gamma   89.85572086
_symmetry_Int_Tables_number   1
_chemical_formula_structural   ZnH7C10NO5
_chemical_formula_sum   'Zn2 H14 C20 N2 O10'
_cell_volume   824.29165960
_cell_formula_units_Z   2
loop_
 _symmetry_equiv_pos_site_id
 _symmetry_equiv_pos_as_xyz
  1  'x, y, z'
loop_
 _atom_site_type_symbol
 _atom_site_label
 _atom_site_symmetry_multiplicity
 _atom_site_fract_x
 _atom_site_fract_y
 _atom_site_fract_z
 _atom_site_occupancy
 _atom_site_pbe_bader_charge
 _atom_site_pbe_bader_spin_density
 _atom_site_pbe_cm5_charge
 _atom_site_pbe_ddec_charge
 _atom_site_pbe_ddec_spin_density
 _atom_site_pbe_ddec_sum_bond_order
 _atom_site_pbe_magmom
Zn  Zn0  1  0.34134011  0.50267955  0.49032395  1  1.291542  0  0.681864  0.837004  0  2.435388  0
Zn  Zn1  1  0.65907264  0.49735851  0.50974659  1  1.300989  0  0.681598  0.836311  0  2.437632  0
H  H2  1  0.38087602  0.86069307  0.95890863  1  0.083389  0  0.102806  0.037094  0  0.957487  0
H  H3  1  0.34011560  0.21881696  0.18820906  1  0.057097  0  0.097661  0.14078  0  0.987894  0
H  H4  1  0.18640079  0.35484877  0.16751672  1  0.029401  0  0.09373  0.138641  0  1.006121  0
H  H5  1  0.78679932  0.75985564  0.94990004  1  0.039396  0  0.096066  0.133838  0  0.988995  0
H  H6  1  0.81320154  0.64507832  0.83250066  1  0.033331  0  0.093978  0.138845  0  1.006097  0
H  H7  1  0.65953180  0.78113863  0.81181574  1  0.055784  0  0.097722  0.14071  0  0.987997  0
H  H8  1  0.61864110  0.13927486  0.04116958  1  0.083028  0  0.102896  0.037156  0  0.95696  0
H  H9  1  0.10254423  0.60511949  0.97842841  1  0.037373  0  0.091604  0.124103  0  1.014894  0
H  H10  1  0.17477907  0.66683055  0.82878021  1  0.05929  0  0.094881  0.134939  0  0.993541  0
H  H11  1  0.11741772  0.48319670  0.86530185  1  0.060281  0  0.092434  0.130592  0  1.000461  0
H  H12  1  0.89704391  0.39488639  0.02160362  1  0.04346  0  0.091542  0.123929  0  1.015126  0
H  H13  1  0.88216988  0.51679637  0.13471429  1  0.062973  0  0.092424  0.130483  0  1.000072  0
H  H14  1  0.82483944  0.33315796  0.17125239  1  0.060352  0  0.094693  0.135085  0  0.992928  0
H  H15  1  0.21284314  0.24007436  0.05012060  1  0.038229  0  0.095864  0.133779  0  0.988821  0
C  C16  1  0.49952489  0.78033591  0.49381227  1  1.688555  0  0.231498  0.675083  0  4.206874  0
C  C17  1  0.53827213  0.36364415  0.97732028  1  -0.035284  0  -0.004589  -0.052496  0  3.648687  0
C  C18  1  0.51016562  0.50676278  0.12518621  1  0.007152  0  -0.004267  -0.113399  0  3.645683  0
C  C19  1  0.48935175  0.49322852  0.87479845  1  0.008355  0  -0.003729  -0.113007  0  3.64516  0
C  C20  1  0.50061586  0.93533109  0.49669973  1  -0.22642  0  -0.018891  -0.107239  0  3.91985  0
C  C21  1  0.50113252  0.06474248  0.50308555  1  0.026268  0  -0.019369  -0.106533  0  3.919805  0
C  C22  1  0.43346770  0.78851437  0.04179367  1  0.905975  0  0.101495  0.288643  0  3.96398  0
C  C23  1  0.56616651  0.21146028  0.95823629  1  0.908215  0  0.101533  0.288934  0  3.963316  0
C  C24  1  0.17576543  0.57498545  0.90371786  1  -0.074705  0  -0.240601  -0.412239  0  3.995723  0
C  C25  1  0.82382523  0.42499982  0.09631538  1  -0.081822  0  -0.240436  -0.412162  0  3.994071  0
C  C26  1  0.27658616  0.29921558  0.11902037  1  -0.028361  0  -0.236982  -0.4134  0  3.965803  0
C  C27  1  0.50233613  0.21970968  0.50613784  1  1.678244  0  0.230939  0.672395  0  4.211128  0
C  C28  1  0.72303448  0.70073163  0.88100170  1  -0.029851  0  -0.237609  -0.41352  0  3.966714  0
C  C29  1  0.48976538  0.48422700  0.73926753  1  1.543811  0  0.222635  0.622014  0  4.137716  0
C  C30  1  0.50950090  0.51577465  0.26071517  1  1.540809  0  0.221916  0.620337  0  4.138363  0
C  C31  1  0.34517096  0.53546411  0.95224169  1  0.030584  0  0.007521  0.111151  0  3.637116  0
C  C32  1  0.65440332  0.46451606  0.04777405  1  0.027297  0  0.007893  0.1114  0  3.634468  0
C  C33  1  0.39201910  0.40643359  0.05725013  1  0.018912  0  0.016775  0.124393  0  3.607461  0
C  C34  1  0.60754468  0.59354615  0.94274333  1  0.017146  0  0.016827  0.124002  0  3.606597  0
C  C35  1  0.46128248  0.63633449  0.02268785  1  -0.039275  0  -0.004309  -0.052385  0  3.649188  0
N  N36  1  0.93452005  0.49891394  0.50851178  1  -0.027145  0  0.093654  0.129639  0  2.919731  0
N  N37  1  0.06591060  0.50119033  0.49138467  1  0.09406  0  0.093515  0.129419  0  2.919844  0
O  O38  1  0.36049036  0.72177300  0.48654882  1  -1.13101  0  -0.309414  -0.534621  0  2.253394  0
O  O39  1  0.53000088  0.16158732  0.86151726  1  -1.073526  0  -0.267953  -0.363923  0  2.095379  0
O  O40  1  0.64139196  0.27817680  0.51372066  1  -1.121309  0  -0.309382  -0.533389  0  2.254662  0
O  O41  1  0.36412082  0.28297887  0.49847512  1  -1.135255  0  -0.309707  -0.5386  0  2.257004  0
O  O42  1  0.63777154  0.71711935  0.50133695  1  -1.136701  0  -0.310464  -0.539731  0  2.255459  0
O  O43  1  0.35340114  0.48640652  0.67830349  1  -1.160968  0  -0.315397  -0.547092  0  2.316552  0
O  O44  1  0.64578922  0.51335435  0.32178020  1  -1.155489  0  -0.314952  -0.546389  0  2.318286  0
O  O45  1  0.36959617  0.52070167  0.30583569  1  -1.151633  0  -0.315811  -0.542955  0  2.308036  0
O  O46  1  0.62963745  0.47957897  0.69402914  1  -1.150744  0  -0.31611  -0.543906  0  2.309975  0
O  O47  1  0.46982979  0.83840559  0.13848077  1  -1.071802  0  -0.26799  -0.363713  0  2.095058  0
