# generated using pymatgen
data_K3CdH18C14N3O10
_symmetry_space_group_name_H-M   'P 1'
_cell_length_a   8.75841033
_cell_length_b   9.06021055
_cell_length_c   15.28381152
_cell_angle_alpha   97.64744828
_cell_angle_beta   96.22021774
_cell_angle_gamma   104.51861645
_symmetry_Int_Tables_number   1
_chemical_formula_structural   K3CdH18C14N3O10
_chemical_formula_sum   'K6 Cd2 H36 C28 N6 O20'
_cell_volume   1150.88175923
_cell_formula_units_Z   2
loop_
 _symmetry_equiv_pos_site_id
 _symmetry_equiv_pos_as_xyz
  1  'x, y, z'
loop_
 _atom_site_type_symbol
 _atom_site_label
 _atom_site_symmetry_multiplicity
 _atom_site_fract_x
 _atom_site_fract_y
 _atom_site_fract_z
 _atom_site_occupancy
 _atom_site_hle17_bader_spin_density
 _atom_site_hle17_ddec_charge
 _atom_site_hle17_ddec_spin_density
 _atom_site_hle17_ddec_sum_bond_order
 _atom_site_hle17_magmom
 _atom_site_hse06_10hf_bader_spin_density
 _atom_site_hse06_10hf_ddec_charge
 _atom_site_hse06_10hf_ddec_spin_density
 _atom_site_hse06_10hf_ddec_sum_bond_order
 _atom_site_hse06_10hf_magmom
 _atom_site_hse06_bader_spin_density
 _atom_site_hse06_ddec_charge
 _atom_site_hse06_ddec_spin_density
 _atom_site_hse06_ddec_sum_bond_order
 _atom_site_hse06_magmom
 _atom_site_pbe_bader_spin_density
 _atom_site_pbe_cm5_charge
 _atom_site_pbe_ddec_charge
 _atom_site_pbe_ddec_spin_density
 _atom_site_pbe_ddec_sum_bond_order
 _atom_site_pbe_magmom
K  K0  1  0.83463231  0.33009428  0.53889483  1  0  0.922963  0  0.456672  0  0  0.877019  0  0.623614  0  0  0.892924  0  0.599241  0  0  0.829819  0.865127  0  0.641035  0
K  K1  1  0.16536117  0.66990186  0.46110547  1  0  0.922971  0  0.456662  0  0  0.877033  0  0.623591  0  0  0.892932  0  0.599229  0  0  0.829821  0.865124  0  0.641036  0
K  K2  1  0.36894013  0.28916050  0.52448143  1  0  0.928893  0  0.435222  0  0  0.886027  0  0.592437  0  0  0.901437  0  0.569792  0  0  0.839146  0.874417  0  0.608759  0
K  K3  1  0.63105935  0.71084152  0.47551640  1  0  0.928901  0  0.435233  0  0  0.886027  0  0.592453  0  0  0.901426  0  0.569827  0  0  0.839155  0.874416  0  0.608775  0
K  K4  1  0.70187964  0.62003749  0.09847257  1  0  0.910308  0  0.446247  0  0  0.864618  0  0.61805  0  0  0.882113  0  0.593285  0  0  0.770612  0.851319  0  0.636105  0
K  K5  1  0.29811526  0.37995954  0.90151742  1  0  0.910339  0  0.446227  0  0  0.864609  0  0.618091  0  0  0.882103  0  0.593326  0  0  0.770619  0.851308  0  0.63615  0
Cd  Cd6  1  0.77554328  0.95159113  0.74189132  1  0  1.073554  0  1.673015  0  0  0.889791  0  2.070943  0  0  0.945834  0  2.026513  0  0  0.775562  0.849798  0  2.101312  0
Cd  Cd7  1  0.22445806  0.04840416  0.25810813  1  0  1.073472  0  1.673088  0  0  0.889763  0  2.070944  0  0  0.9458  0  2.026516  0  0  0.77557  0.849763  0  2.101305  0
H  H8  1  0.46892269  0.06610271  0.91867446  1  0  0.08798  0  0.943552  0  0  0.10259  0  1.00649  0  0  0.103918  0  1.006599  0  0  0.107777  0.101547  0  1.006563  0
H  H9  1  0.53107714  0.93389591  0.08132380  1  0  0.088031  0  0.943517  0  0  0.10265  0  1.006436  0  0  0.103978  0  1.006549  0  0  0.107801  0.101609  0  1.006512  0
H  H10  1  0.63498910  0.99365191  0.94733204  1  0  0.086389  0  0.944994  0  0  0.101227  0  1.009124  0  0  0.10266  0  1.008286  0  0  0.110851  0.100044  0  1.009967  0
H  H11  1  0.36501332  0.00634802  0.05266845  1  0  0.086425  0  0.944972  0  0  0.10126  0  1.0091  0  0  0.102691  0  1.008268  0  0  0.110863  0.100084  0  1.00994  0
H  H12  1  0.38566097  0.78833367  0.87953122  1  0  0.076132  0  0.927122  0  0  0.092601  0  0.990391  0  0  0.093352  0  0.990758  0  0  0.107344  0.091925  0  0.990307  0
H  H13  1  0.61434234  0.21166513  0.12046794  1  0  0.076139  0  0.927165  0  0  0.09261  0  0.990422  0  0  0.093359  0  0.990795  0  0  0.107346  0.091934  0  0.990337  0
H  H14  1  0.38197069  0.87047808  0.78072789  1  0  0.06145  0  0.948671  0  0  0.078951  0  1.011165  0  0  0.079376  0  1.011161  0  0  0.10502  0.078505  0  1.011395  0
H  H15  1  0.61803235  0.12951953  0.21927051  1  0  0.061458  0  0.948704  0  0  0.078954  0  1.011195  0  0  0.079379  0  1.011192  0  0  0.105018  0.078507  0  1.011426  0
H  H16  1  0.57150148  0.59664484  0.88531536  1  0  0.053662  0  0.967173  0  0  0.066196  0  1.043926  0  0  0.067692  0  1.042556  0  0  0.098172  0.064988  0  1.04508  0
H  H17  1  0.42849541  0.40335607  0.11468746  1  0  0.053593  0  0.967121  0  0  0.066127  0  1.043883  0  0  0.067605  0  1.042526  0  0  0.098142  0.064909  0  1.045045  0
H  H18  1  0.69397396  0.78505145  0.92356296  1  0  0.087199  0  0.974938  0  0  0.1049  0  1.035181  0  0  0.106231  0  1.034653  0  0  0.115007  0.103837  0  1.035694  0
H  H19  1  0.30602436  0.21495059  0.07643741  1  0  0.087172  0  0.974908  0  0  0.104881  0  1.035149  0  0  0.10621  0  1.034616  0  0  0.115008  0.103818  0  1.035663  0
H  H20  1  0.84216904  0.58922506  0.87717184  1  0  0.079304  0  0.91404  0  0  0.098428  0  0.971888  0  0  0.098996  0  0.972068  0  0  0.112813  0.097852  0  0.971992  0
H  H21  1  0.15783249  0.41077612  0.12283326  1  0  0.079384  0  0.914067  0  0  0.098467  0  0.971961  0  0  0.099063  0  0.972107  0  0  0.112851  0.09789  0  0.972067  0
H  H22  1  0.74357603  0.56074694  0.76632659  1  0  0.076066  0  0.944268  0  0  0.094096  0  1.003457  0  0  0.094682  0  1.004119  0  0  0.111049  0.093581  0  1.003147  0
H  H23  1  0.25642702  0.43925090  0.23367903  1  0  0.076049  0  0.944278  0  0  0.094113  0  1.003426  0  0  0.094699  0  1.004091  0  0  0.111015  0.093579  0  1.003142  0
H  H24  1  0.52850267  0.27137977  0.80582683  1  0  0.086251  0  0.968998  0  0  0.095114  0  1.040786  0  0  0.098702  0  1.037255  0  0  0.105161  0.092488  0  1.043449  0
H  H25  1  0.47150002  0.72862127  0.19417179  1  0  0.086225  0  0.969032  0  0  0.095087  0  1.040808  0  0  0.098674  0  1.03728  0  0  0.105152  0.092457  0  1.043475  0
H  H26  1  0.45582914  0.08144673  0.74235210  1  0  0.102902  0  0.926105  0  0  0.119825  0  0.982053  0  0  0.122369  0  0.98003  0  0  0.12081  0.117983  0  0.983638  0
H  H27  1  0.54417007  0.91855425  0.25764956  1  0  0.102899  0  0.926126  0  0  0.119803  0  0.982082  0  0  0.122346  0  0.980063  0  0  0.120805  0.11796  0  0.983665  0
H  H28  1  0.85316285  0.30584343  0.85849975  1  0  0.100672  0  0.916731  0  0  0.116203  0  0.975571  0  0  0.118472  0  0.973988  0  0  0.117578  0.114593  0  0.976765  0
H  H29  1  0.14683369  0.69416080  0.14150000  1  0  0.100691  0  0.916702  0  0  0.116248  0  0.975533  0  0  0.118516  0  0.973959  0  0  0.117595  0.114638  0  0.976729  0
H  H30  1  0.86146489  0.17607063  0.93382890  1  0  0.092941  0  0.945167  0  0  0.105769  0  1.011125  0  0  0.107238  0  1.010469  0  0  0.111268  0.104608  0  1.011813  0
H  H31  1  0.13853691  0.82393153  0.06617039  1  0  0.092968  0  0.94515  0  0  0.105834  0  1.011079  0  0  0.107307  0  1.010415  0  0  0.111316  0.104671  0  1.01177  0
H  H32  1  0.34586702  0.59119272  0.73933916  1  0  0.074328  0  0.922117  0  0  0.088185  0  0.989308  0  0  0.091051  0  0.986132  0  0  0.111854  0.086057  0  0.991781  0
H  H33  1  0.65413459  0.40880374  0.26066038  1  0  0.074335  0  0.922203  0  0  0.088194  0  0.989377  0  0  0.091065  0  0.986197  0  0  0.11185  0.086058  0  0.991856  0
H  H34  1  0.52265902  0.54470563  0.71511068  1  0  0.103138  0  0.961346  0  0  0.116831  0  1.026302  0  0  0.119782  0  1.023855  0  0  0.120602  0.114678  0  1.028191  0
H  H35  1  0.47734135  0.45529536  0.28488974  1  0  0.103202  0  0.961288  0  0  0.116889  0  1.026244  0  0  0.119841  0  1.0238  0  0  0.120638  0.114735  0  1.028132  0
H  H36  1  0.02632165  0.61749279  0.75120592  1  0  0.092348  0  0.912875  0  0  0.105893  0  0.974479  0  0  0.109023  0  0.971341  0  0  0.114958  0.103579  0  0.976937  0
H  H37  1  0.97367989  0.38250847  0.24880180  1  0  0.092353  0  0.912822  0  0  0.105875  0  0.974439  0  0  0.109001  0  0.971299  0  0  0.114979  0.103562  0  0.976902  0
H  H38  1  0.11945641  0.81499600  0.75246062  1  0  0.101657  0  0.92746  0  0  0.12012  0  0.982917  0  0  0.121227  0  0.982776  0  0  0.119694  0.119309  0  0.983106  0
H  H39  1  0.88054772  0.18500650  0.24754670  1  0  0.101666  0  0.927372  0  0  0.120088  0  0.982879  0  0  0.121193  0  0.982733  0  0  0.119684  0.119276  0  0.983072  0
H  H40  1  0.09303574  0.80831831  0.91544945  1  0  0.11123  0  0.96094  0  0  0.121856  0  1.027116  0  0  0.124993  0  1.025016  0  0  0.107342  0.119493  0  1.02881  0
H  H41  1  0.90696100  0.19169188  0.08455858  1  0  0.111198  0  0.960901  0  0  0.121836  0  1.02711  0  0  0.124981  0  1.024988  0  0  0.107325  0.119472  0  1.028807  0
H  H42  1  0.93222995  0.88404474  0.94081236  1  0  0.105821  0  0.954226  0  0  0.119502  0  1.016907  0  0  0.121543  0  1.016318  0  0  0.114991  0.11798  0  1.017511  0
H  H43  1  0.06776267  0.11596735  0.05918833  1  0  0.105797  0  0.954153  0  0  0.119485  0  1.016877  0  0  0.121528  0  1.016282  0  0  0.114985  0.117961  0  1.017485  0
C  C44  1  0.55489411  0.00952528  0.89083872  1  0  -0.051725  0  3.625195  0  0  -0.109336  0  3.882272  0  0  -0.107443  0  3.895036  0  0  -0.075895  -0.110502  0  3.873521  0
C  C45  1  0.44511001  0.99047700  0.10916139  1  0  -0.05186  0  3.625337  0  0  -0.109499  0  3.882466  0  0  -0.107613  0  3.895237  0  0  -0.07594  -0.110648  0  3.873664  0
C  C46  1  0.46206788  0.85343242  0.83672345  1  0  -0.024757  0  3.649323  0  0  -0.083933  0  3.911967  0  0  -0.081189  0  3.925367  0  0  -0.068915  -0.085637  0  3.902702  0
C  C47  1  0.53793482  0.14656867  0.16327713  1  0  -0.024813  0  3.649375  0  0  -0.083939  0  3.911947  0  0  -0.081197  0  3.925352  0  0  -0.068893  -0.085639  0  3.902687  0
C  C48  1  0.64919504  0.69674140  0.86359176  1  0  -0.051141  0  3.670875  0  0  -0.113377  0  3.932052  0  0  -0.11121  0  3.945044  0  0  -0.075461  -0.114582  0  3.922961  0
C  C49  1  0.35080185  0.30325948  0.13640975  1  0  -0.051009  0  3.67059  0  0  -0.113261  0  3.931823  0  0  -0.111078  0  3.944818  0  0  -0.075421  -0.11446  0  3.922738  0
C  C50  1  0.78714018  0.64627966  0.82777049  1  0  -0.028853  0  3.629233  0  0  -0.086994  0  3.889578  0  0  -0.084459  0  3.902863  0  0  -0.065361  -0.088594  0  3.880401  0
C  C51  1  0.21285992  0.35372029  0.17223377  1  0  -0.02903  0  3.62929  0  0  -0.087199  0  3.889678  0  0  -0.084681  0  3.902959  0  0  -0.065393  -0.088792  0  3.880507  0
C  C52  1  0.56420135  0.17238375  0.77321568  1  0  -0.182171  0  3.665875  0  0  -0.23797  0  3.915923  0  0  -0.239421  0  3.922725  0  0  -0.075832  -0.236899  0  3.911113  0
C  C53  1  0.43579902  0.82761718  0.22678278  1  0  -0.18214  0  3.665905  0  0  -0.237903  0  3.91594  0  0  -0.239357  0  3.922736  0  0  -0.075827  -0.236825  0  3.911118  0
C  C54  1  0.65159271  0.22201925  0.69594795  1  0  0.685569  0  3.895533  0  0  0.641377  0  4.200519  0  0  0.674123  0  4.193559  0  0  0.186348  0.619093  0  4.204528  0
C  C55  1  0.34839817  0.77797550  0.30404751  1  0  0.685412  0  3.895445  0  0  0.641227  0  4.200405  0  0  0.673973  0  4.193455  0  0  0.186334  0.618942  0  4.204411  0
C  C56  1  0.78141315  0.23215719  0.89915999  1  0  -0.168826  0  3.622124  0  0  -0.225155  0  3.87378  0  0  -0.225572  0  3.881362  0  0  -0.073317  -0.224917  0  3.868682  0
C  C57  1  0.21858721  0.76784376  0.10083912  1  0  -0.168885  0  3.622032  0  0  -0.22529  0  3.873768  0  0  -0.225714  0  3.881352  0  0  -0.073399  -0.225054  0  3.868677  0
C  C58  1  0.72717826  0.33754401  0.97060215  1  0  0.665797  0  3.924435  0  0  0.626303  0  4.228389  0  0  0.658203  0  4.221061  0  0  0.16717  0.604699  0  4.232547  0
C  C59  1  0.27281781  0.66245328  0.02939513  1  0  0.665804  0  3.924089  0  0  0.626345  0  4.228021  0  0  0.658241  0  4.220701  0  0  0.167192  0.604742  0  4.232185  0
C  C60  1  0.46751134  0.64104617  0.72436525  1  0  -0.175399  0  3.686872  0  0  -0.234187  0  3.942936  0  0  -0.235386  0  3.950485  0  0  -0.07027  -0.233365  0  3.937837  0
C  C61  1  0.53248902  0.35895472  0.27563190  1  0  -0.175527  0  3.686877  0  0  -0.234309  0  3.942955  0  0  -0.235519  0  3.950513  0  0  -0.070306  -0.233478  0  3.937851  0
C  C62  1  0.44965314  0.69367977  0.63354105  1  0  0.667992  0  3.950599  0  0  0.627184  0  4.2555  0  0  0.659209  0  4.248645  0  0  0.16217  0.605473  0  4.259306  0
C  C63  1  0.55036422  0.30632986  0.36645779  1  0  0.66796  0  3.950458  0  0  0.627142  0  4.255376  0  0  0.659167  0  4.248529  0  0  0.162252  0.605432  0  4.25918  0
C  C64  1  0.00281196  0.72886734  0.74197676  1  0  -0.166968  0  3.651395  0  0  -0.223952  0  3.904832  0  0  -0.22493  0  3.91289  0  0  -0.066141  -0.223309  0  3.899345  0
C  C65  1  0.99719074  0.27113389  0.25802841  1  0  -0.166902  0  3.651332  0  0  -0.22386  0  3.904704  0  0  -0.224821  0  3.912738  0  0  -0.066123  -0.223226  0  3.899221  0
C  C66  1  0.93591814  0.72046580  0.64373701  1  0  0.695542  0  3.900643  0  0  0.650682  0  4.206718  0  0  0.683687  0  4.198833  0  0  0.199858  0.628228  0  4.211368  0
C  C67  1  0.06408526  0.27952851  0.35626446  1  0  0.695446  0  3.900697  0  0  0.650683  0  4.20661  0  0  0.683689  0  4.198717  0  0  0.19984  0.628231  0  4.211265  0
C  C68  1  0.00863477  0.86969210  0.88932175  1  0  -0.202248  0  3.66489  0  0  -0.255524  0  3.912195  0  0  -0.257805  0  3.920098  0  0  -0.086243  -0.253861  0  3.906774  0
C  C69  1  0.99136231  0.13031458  0.11068278  1  0  -0.202146  0  3.664667  0  0  -0.255515  0  3.9121  0  0  -0.257793  0  3.919998  0  0  -0.086201  -0.253851  0  3.906673  0
C  C70  1  0.09772167  0.03204415  0.87839217  1  0  0.657016  0  3.946795  0  0  0.610963  0  4.25715  0  0  0.643209  0  4.25063  0  0  0.16944  0.589059  0  4.260746  0
C  C71  1  0.90227888  0.96796248  0.12160604  1  0  0.657223  0  3.946335  0  0  0.611165  0  4.256734  0  0  0.643411  0  4.250208  0  0  0.169572  0.589258  0  4.260338  0
N  N72  1  0.65574144  0.11016407  0.83851935  1  0  -0.179576  0  3.282148  0  0  -0.083201  0  3.515987  0  0  -0.101018  0  3.539658  0  0  -0.340676  -0.070666  0  3.499147  0
N  N73  1  0.34426125  0.88983696  0.16147927  1  0  -0.179489  0  3.282124  0  0  -0.083186  0  3.516123  0  0  -0.100963  0  3.539687  0  0  -0.340658  -0.070651  0  3.49929  0
N  N74  1  0.56218511  0.76129754  0.79728386  1  0  -0.210385  0  3.298532  0  0  -0.114817  0  3.536506  0  0  -0.132525  0  3.560177  0  0  -0.345253  -0.102437  0  3.519713  0
N  N75  1  0.43781240  0.23870100  0.20271490  1  0  -0.210262  0  3.298282  0  0  -0.11473  0  3.536282  0  0  -0.13243  0  3.559938  0  0  -0.345311  -0.102354  0  3.51949  0
N  N76  1  0.90731884  0.77821227  0.80739079  1  0  -0.180404  0  3.316645  0  0  -0.085509  0  3.549923  0  0  -0.10281  0  3.573471  0  0  -0.346954  -0.073345  0  3.533176  0
N  N77  1  0.09268242  0.22178773  0.19261355  1  0  -0.180373  0  3.316564  0  0  -0.08538  0  3.549674  0  0  -0.102716  0  3.573338  0  0  -0.346919  -0.073185  0  3.532821  0
O  O78  1  0.76532744  0.16517715  0.67558079  1  0  -0.681859  0  1.971154  0  0  -0.616181  0  2.206231  0  0  -0.643859  0  2.193197  0  0  -0.391288  -0.596818  0  2.214724  0
O  O79  1  0.23466987  0.83481564  0.32441692  1  0  -0.681815  0  1.971131  0  0  -0.616156  0  2.206214  0  0  -0.643831  0  2.193185  0  0  -0.391342  -0.596794  0  2.214707  0
O  O80  1  0.60248720  0.31744279  0.65454974  1  0  -0.73857  0  1.93571  0  0  -0.696683  0  2.175511  0  0  -0.720568  0  2.163777  0  0  -0.477296  -0.679869  0  2.183122  0
O  O81  1  0.39750583  0.68254647  0.34545006  1  0  -0.738483  0  1.93563  0  0  -0.696589  0  2.175418  0  0  -0.720475  0  2.16369  0  0  -0.477238  -0.67977  0  2.183023  0
O  O82  1  0.82018234  0.38410413  0.04421461  1  0  -0.701154  0  1.886592  0  0  -0.659862  0  2.114829  0  0  -0.683117  0  2.10445  0  0  -0.431317  -0.64341  0  2.121418  0
O  O83  1  0.17980328  0.61589277  0.95578394  1  0  -0.701166  0  1.886283  0  0  -0.659853  0  2.114475  0  0  -0.683107  0  2.104096  0  0  -0.43126  -0.643403  0  2.121063  0
O  O84  1  0.59768559  0.37421448  0.95163498  1  0  -0.743203  0  1.95262  0  0  -0.697494  0  2.200034  0  0  -0.722503  0  2.190408  0  0  -0.478272  -0.679737  0  2.206073  0
O  O85  1  0.40230413  0.62578015  0.04835844  1  0  -0.743187  0  1.952614  0  0  -0.697478  0  2.199996  0  0  -0.722486  0  2.190373  0  0  -0.478298  -0.679702  0  2.205991  0
O  O86  1  0.50763345  0.83416030  0.62699040  1  0  -0.68798  0  1.922593  0  0  -0.638544  0  2.150538  0  0  -0.66335  0  2.139981  0  0  -0.377781  -0.621146  0  2.157281  0
O  O87  1  0.49237443  0.16584325  0.37300872  1  0  -0.687983  0  1.92218  0  0  -0.638543  0  2.150126  0  0  -0.663353  0  2.139572  0  0  -0.377816  -0.621147  0  2.15687  0
O  O88  1  0.37899112  0.58638990  0.56838277  1  0  -0.78842  0  1.961334  0  0  -0.745525  0  2.208258  0  0  -0.769764  0  2.195593  0  0  -0.551937  -0.728324  0  2.216404  0
O  O89  1  0.62101416  0.41361235  0.43161478  1  0  -0.78839  0  1.961581  0  0  -0.745496  0  2.208526  0  0  -0.769731  0  2.195859  0  0  -0.55198  -0.728301  0  2.216673  0
O  O90  1  0.84716827  0.80729848  0.62402091  1  0  -0.698353  0  2.012412  0  0  -0.632354  0  2.256139  0  0  -0.660487  0  2.242894  0  0  -0.407716  -0.61265  0  2.264727  0
O  O91  1  0.15282912  0.19268973  0.37597583  1  0  -0.698304  0  2.012329  0  0  -0.632348  0  2.256016  0  0  -0.660481  0  2.242765  0  0  -0.407695  -0.612647  0  2.26461  0
O  O92  1  0.97956711  0.63147799  0.58678698  1  0  -0.7497  0  1.94614  0  0  -0.707153  0  2.187336  0  0  -0.730376  0  2.173702  0  0  -0.499961  -0.690768  0  2.196248  0
O  O93  1  0.02043916  0.36851877  0.41321615  1  0  -0.749693  0  1.946161  0  0  -0.707186  0  2.187315  0  0  -0.730408  0  2.173677  0  0  -0.499978  -0.690802  0  2.196226  0
O  O94  1  0.04954619  0.09151047  0.81287965  1  0  -0.694215  0  1.927303  0  0  -0.638818  0  2.162578  0  0  -0.664559  0  2.15059  0  0  -0.374798  -0.620656  0  2.170237  0
O  O95  1  0.95045139  0.90848330  0.18711225  1  0  -0.694274  0  1.927054  0  0  -0.638885  0  2.162337  0  0  -0.66463  0  2.150357  0  0  -0.374875  -0.620728  0  2.170005  0
O  O96  1  0.21431561  0.10001918  0.93886073  1  0  -0.681225  0  1.952916  0  0  -0.635685  0  2.19148  0  0  -0.659693  0  2.182375  0  0  -0.431767  -0.618773  0  2.197279  0
O  O97  1  0.78568281  0.89999302  0.06113576  1  0  -0.681352  0  1.952745  0  0  -0.635786  0  2.191283  0  0  -0.659794  0  2.182181  0  0  -0.431817  -0.618875  0  2.197084  0
