# generated using pymatgen
data_ZnH18C18N4O5
_symmetry_space_group_name_H-M   'P 1'
_cell_length_a   8.70929771
_cell_length_b   8.70932288
_cell_length_c   13.17242988
_cell_angle_alpha   84.24134173
_cell_angle_beta   84.24120847
_cell_angle_gamma   67.53671773
_symmetry_Int_Tables_number   1
_chemical_formula_structural   ZnH18C18N4O5
_chemical_formula_sum   'Zn2 H36 C36 N8 O10'
_cell_volume   916.59397383
_cell_formula_units_Z   2
loop_
 _symmetry_equiv_pos_site_id
 _symmetry_equiv_pos_as_xyz
  1  'x, y, z'
loop_
 _atom_site_type_symbol
 _atom_site_label
 _atom_site_symmetry_multiplicity
 _atom_site_fract_x
 _atom_site_fract_y
 _atom_site_fract_z
 _atom_site_occupancy
 _atom_site_hle17_bader_spin_density
 _atom_site_hle17_ddec_charge
 _atom_site_hle17_ddec_spin_density
 _atom_site_hle17_ddec_sum_bond_order
 _atom_site_hle17_magmom
 _atom_site_hse06_10hf_bader_spin_density
 _atom_site_hse06_10hf_ddec_charge
 _atom_site_hse06_10hf_ddec_spin_density
 _atom_site_hse06_10hf_ddec_sum_bond_order
 _atom_site_hse06_10hf_magmom
 _atom_site_hse06_bader_spin_density
 _atom_site_hse06_ddec_charge
 _atom_site_hse06_ddec_spin_density
 _atom_site_hse06_ddec_sum_bond_order
 _atom_site_hse06_magmom
 _atom_site_pbe_bader_spin_density
 _atom_site_pbe_cm5_charge
 _atom_site_pbe_ddec_charge
 _atom_site_pbe_ddec_spin_density
 _atom_site_pbe_ddec_sum_bond_order
 _atom_site_pbe_magmom
Zn  Zn0  1  0.48441971  0.60691074  0.69793366  1  0  0.99554  0  1.90256  0  0  0.807058  0  2.387474  0  0  0.852805  0  2.332522  0  0  0.694817  0.775167  0  2.425257  0
Zn  Zn1  1  0.60691165  0.48441863  0.19793394  1  0  0.995573  0  1.902533  0  0  0.807092  0  2.387438  0  0  0.852844  0  2.332486  0  0  0.694845  0.775207  0  2.425222  0
H  H2  1  0.51340178  0.36468595  0.51625019  1  0  0.119148  0  0.967613  0  0  0.125023  0  1.035682  0  0  0.128551  0  1.031098  0  0  0.13782  0.1224  0  1.038991  0
H  H3  1  0.36468635  0.51339779  0.01625089  1  0  0.119115  0  0.967492  0  0  0.124975  0  1.035591  0  0  0.128501  0  1.031011  0  0  0.137778  0.122352  0  1.0389  0
H  H4  1  0.12769160  0.57949891  0.74150071  1  0  0.098338  0  0.973054  0  0  0.107801  0  1.033895  0  0  0.110128  0  1.033159  0  0  0.11411  0.106029  0  1.034644  0
H  H5  1  0.57950087  0.12768980  0.24150075  1  0  0.098311  0  0.973031  0  0  0.107778  0  1.033878  0  0  0.110105  0  1.033144  0  0  0.114106  0.106028  0  1.034602  0
H  H6  1  0.01820463  0.41309191  0.61074720  1  0  0.135455  0  0.962945  0  0  0.142621  0  1.025689  0  0  0.145873  0  1.023531  0  0  0.12517  0.140258  0  1.027306  0
H  H7  1  0.41309239  0.01820432  0.11074652  1  0  0.13546  0  0.962945  0  0  0.142622  0  1.025692  0  0  0.145874  0  1.023532  0  0  0.125165  0.140259  0  1.027308  0
H  H8  1  0.18508845  0.20465003  0.47160897  1  0  0.087226  0  0.951457  0  0  0.103103  0  1.011565  0  0  0.102728  0  1.0138  0  0  0.112374  0.103261  0  1.010115  0
H  H9  1  0.20464964  0.18508727  0.97160871  1  0  0.087193  0  0.951543  0  0  0.103089  0  1.011629  0  0  0.102708  0  1.013885  0  0  0.112373  0.103247  0  1.01018  0
H  H10  1  0.39015533  0.19226291  0.43117363  1  0  0.085317  0  0.943497  0  0  0.099789  0  1.009618  0  0  0.099779  0  1.010489  0  0  0.115129  0.099696  0  1.00911  0
H  H11  1  0.19226154  0.39015579  0.93117347  1  0  0.085338  0  0.94345  0  0  0.0998  0  1.009581  0  0  0.0998  0  1.010454  0  0  0.115127  0.099708  0  1.009073  0
H  H12  1  0.27239890  0.48089173  0.34718955  1  0  0.062351  0  0.939652  0  0  0.074582  0  1.008372  0  0  0.074769  0  1.008533  0  0  0.103299  0.074293  0  1.008446  0
H  H13  1  0.48089422  0.27239603  0.84719060  1  0  0.062354  0  0.939659  0  0  0.074578  0  1.008372  0  0  0.074765  0  1.008531  0  0  0.103285  0.07429  0  1.008443  0
H  H14  1  0.21591846  0.33181216  0.29207916  1  0  0.052681  0  0.932931  0  0  0.065408  0  0.998989  0  0  0.065441  0  0.999669  0  0  0.095772  0.0653  0  0.99861  0
H  H15  1  0.33181489  0.21591707  0.79207940  1  0  0.052688  0  0.932944  0  0  0.0654  0  0.999003  0  0  0.065433  0  0.999682  0  0  0.095777  0.065293  0  0.998623  0
H  H16  1  0.03083133  0.66033579  0.25377290  1  0  0.052595  0  0.921882  0  0  0.068928  0  0.984054  0  0  0.068915  0  0.983992  0  0  0.101451  0.068825  0  0.984202  0
H  H17  1  0.66033741  0.03083037  0.75377284  1  0  0.052606  0  0.921861  0  0  0.068935  0  0.984033  0  0  0.068923  0  0.983972  0  0  0.101456  0.068832  0  0.984181  0
H  H18  1  0.02557755  0.73809945  0.37489146  1  0  0.048005  0  0.976184  0  0  0.060421  0  1.045175  0  0  0.059465  0  1.048266  0  0  0.094062  0.060968  0  1.043188  0
H  H19  1  0.73810346  0.02557366  0.87489214  1  0  0.047969  0  0.976204  0  0  0.06039  0  1.045176  0  0  0.059434  0  1.048269  0  0  0.094052  0.060938  0  1.043189  0
H  H20  1  0.74370852  0.66091387  0.29656426  1  0  0.088836  0  0.948174  0  0  0.100911  0  1.018608  0  0  0.102143  0  1.017381  0  0  0.11455  0.099842  0  1.019727  0
H  H21  1  0.66091473  0.74370781  0.79656395  1  0  0.088831  0  0.948172  0  0  0.100908  0  1.018596  0  0  0.10214  0  1.017369  0  0  0.11455  0.09984  0  1.019714  0
H  H22  1  0.75428521  0.86094041  0.29023729  1  0  0.082962  0  0.912696  0  0  0.104778  0  0.965288  0  0  0.104614  0  0.966009  0  0  0.118804  0.104811  0  0.964856  0
H  H23  1  0.86094300  0.75428245  0.79023764  1  0  0.082937  0  0.912701  0  0  0.104778  0  0.965263  0  0  0.104617  0  0.965983  0  0  0.118808  0.10481  0  0.964831  0
H  H24  1  0.66275895  0.02511578  0.44968120  1  0  0.12096  0  1.006142  0  0  0.125015  0  1.076052  0  0  0.128694  0  1.073546  0  0  0.116397  0.122321  0  1.077941  0
H  H25  1  0.02511740  0.66275774  0.94968124  1  0  0.120957  0  1.006137  0  0  0.125017  0  1.076038  0  0  0.128697  0  1.073531  0  0  0.11638  0.122322  0  1.077927  0
H  H26  1  0.50353759  0.96272497  0.63531341  1  0  0.110598  0  0.950187  0  0  0.12199  0  1.005695  0  0  0.124792  0  1.004412  0  0  0.120721  0.119963  0  1.00672  0
H  H27  1  0.96272503  0.50353653  0.13531276  1  0  0.110615  0  0.950154  0  0  0.122004  0  1.005665  0  0  0.124807  0  1.004382  0  0  0.120719  0.119977  0  1.006689  0
H  H28  1  0.70815482  0.52011985  0.48016609  1  0  0.113222  0  0.923128  0  0  0.12224  0  0.985774  0  0  0.124733  0  0.982471  0  0  0.1442  0.120358  0  0.98821  0
H  H29  1  0.52011838  0.70815506  0.98016443  1  0  0.113176  0  0.92319  0  0  0.122259  0  0.985746  0  0  0.124752  0  0.982443  0  0  0.144214  0.120378  0  0.988182  0
H  H30  1  0.73601669  0.35457254  0.96387924  1  0  0.09176  0  0.98646  0  0  0.097251  0  1.059216  0  0  0.099868  0  1.058048  0  0  0.098116  0.095317  0  1.060102  0
H  H31  1  0.35456905  0.73601760  0.46387851  1  0  0.091746  0  0.986425  0  0  0.097248  0  1.059167  0  0  0.099865  0  1.057999  0  0  0.098121  0.095315  0  1.060052  0
H  H32  1  0.89758576  0.13772791  0.09181417  1  0  0.094715  0  0.965428  0  0  0.103982  0  1.027375  0  0  0.107066  0  1.02623  0  0  0.097893  0.101714  0  1.028405  0
H  H33  1  0.13772665  0.89758679  0.59181435  1  0  0.094723  0  0.965488  0  0  0.103985  0  1.027436  0  0  0.107069  0  1.026292  0  0  0.097905  0.101729  0  1.028453  0
H  H34  1  0.12782909  0.88004873  0.03194061  1  0  0.109907  0  0.957956  0  0  0.117249  0  1.023281  0  0  0.121178  0  1.019901  0  0  0.103252  0.11436  0  1.025807  0
H  H35  1  0.88004847  0.12783098  0.53194117  1  0  0.109891  0  0.957992  0  0  0.11723  0  1.023325  0  0  0.121159  0  1.019946  0  0  0.103265  0.114341  0  1.025851  0
H  H36  1  0.05083131  0.07875634  0.71964184  1  0  0.103149  0  0.960219  0  0  0.110448  0  1.027802  0  0  0.114322  0  1.024566  0  0  0.103469  0.107629  0  1.030157  0
H  H37  1  0.07875288  0.05083162  0.21964314  1  0  0.10316  0  0.960226  0  0  0.110451  0  1.027822  0  0  0.114325  0  1.024582  0  0  0.103463  0.107632  0  1.030176  0
C  C38  1  0.39526552  0.40251298  0.56174271  1  0  0.159606  0  3.619887  0  0  0.099484  0  3.879642  0  0  0.113209  0  3.891531  0  0  0.145716  0.090628  0  3.871423  0
C  C39  1  0.40251353  0.39526347  0.06174316  1  0  0.159612  0  3.619722  0  0  0.09949  0  3.879491  0  0  0.113217  0  3.891377  0  0  0.145743  0.090636  0  3.871271  0
C  C40  1  0.18977599  0.51219602  0.67484408  1  0  -0.016083  0  3.770157  0  0  -0.048372  0  4.03691  0  0  -0.047651  0  4.057686  0  0  -0.007873  -0.048874  0  4.023049  0
C  C41  1  0.51219675  0.18977382  0.17484356  1  0  -0.016007  0  3.770156  0  0  -0.048298  0  4.036905  0  0  -0.047577  0  4.057683  0  0  -0.007854  -0.04882  0  4.023033  0
C  C42  1  0.13497983  0.43076028  0.61138882  1  0  -0.05099  0  3.644431  0  0  -0.092735  0  3.899165  0  0  -0.090183  0  3.916418  0  0  0.006005  -0.09444  0  3.887741  0
C  C43  1  0.43076126  0.13497816  0.11138826  1  0  -0.051018  0  3.644503  0  0  -0.092763  0  3.899239  0  0  -0.09021  0  3.91649  0  0  0.006018  -0.094468  0  3.887819  0
C  C44  1  0.26310320  0.27779416  0.45112191  1  0  -0.033625  0  3.634067  0  0  -0.099015  0  3.888365  0  0  -0.095545  0  3.899688  0  0  -0.053483  -0.101189  0  3.880622  0
C  C45  1  0.27779347  0.26310139  0.95112248  1  0  -0.033587  0  3.634058  0  0  -0.098994  0  3.888347  0  0  -0.095556  0  3.89973  0  0  -0.053451  -0.101169  0  3.880606  0
C  C46  1  0.19898474  0.40105635  0.36077158  1  0  0.071092  0  3.643206  0  0  0.014223  0  3.915545  0  0  0.020616  0  3.921221  0  0  -0.070756  0.009972  0  3.911599  0
C  C47  1  0.40105702  0.19898380  0.86077263  1  0  0.071089  0  3.643264  0  0  0.014255  0  3.915549  0  0  0.020661  0  3.921228  0  0  -0.070741  0.010006  0  3.911604  0
C  C48  1  0.97894159  0.66233271  0.33390056  1  0  0.062791  0  3.68177  0  0  0.002249  0  3.95821  0  0  0.008641  0  3.964657  0  0  -0.073427  -0.00199  0  3.953683  0
C  C49  1  0.66233405  0.97894113  0.83390112  1  0  0.062829  0  3.681668  0  0  0.002286  0  3.958112  0  0  0.008677  0  3.96456  0  0  -0.073404  -0.001951  0  3.953586  0
C  C50  1  0.79103796  0.73955873  0.33357079  1  0  -0.021019  0  3.634304  0  0  -0.088223  0  3.894175  0  0  -0.084218  0  3.904077  0  0  -0.048964  -0.090747  0  3.887358  0
C  C51  1  0.73956033  0.79103579  0.83357052  1  0  -0.020989  0  3.634236  0  0  -0.08821  0  3.894101  0  0  -0.084209  0  3.904007  0  0  -0.048977  -0.090734  0  3.887283  0
C  C52  1  0.64657668  0.91276692  0.48403756  1  0  -0.077518  0  3.675899  0  0  -0.115822  0  3.932555  0  0  -0.115339  0  3.95236  0  0  -0.00223  -0.116046  0  3.919308  0
C  C53  1  0.91276755  0.64657684  0.98403470  1  0  -0.077595  0  3.675879  0  0  -0.115912  0  3.932539  0  0  -0.11543  0  3.952344  0  0  -0.002275  -0.116134  0  3.919288  0
C  C54  1  0.57204922  0.88015684  0.57604125  1  0  -0.005262  0  3.750993  0  0  -0.038069  0  4.013588  0  0  -0.037048  0  4.034632  0  0  -0.007099  -0.038768  0  3.999416  0
C  C55  1  0.88015743  0.57204613  0.07604080  1  0  -0.005281  0  3.750959  0  0  -0.038084  0  4.013543  0  0  -0.037065  0  4.034587  0  0  -0.007055  -0.038783  0  3.999372  0
C  C56  1  0.67308628  0.64802442  0.49865595  1  0  0.191192  0  3.613906  0  0  0.124996  0  3.885144  0  0  0.140425  0  3.894905  0  0  0.153954  0.114928  0  3.87839  0
C  C57  1  0.64802260  0.67308806  0.99865638  1  0  0.191183  0  3.614027  0  0  0.124944  0  3.885249  0  0  0.140373  0  3.895009  0  0  0.153943  0.114876  0  3.878495  0
C  C58  1  0.77130301  0.35032776  0.75749292  1  0  0.626468  0  3.936356  0  0  0.580463  0  4.224001  0  0  0.614596  0  4.21691  0  0  0.196871  0.557392  0  4.228006  0
C  C59  1  0.35032565  0.77130255  0.25749297  1  0  0.626404  0  3.936306  0  0  0.580413  0  4.223939  0  0  0.614546  0  4.216848  0  0  0.196865  0.557344  0  4.227943  0
C  C60  1  0.88237001  0.22965598  0.83412168  1  0  -0.084519  0  3.778361  0  0  -0.05599  0  4.007485  0  0  -0.065603  0  4.030609  0  0  -0.025701  -0.049946  0  3.992026  0
C  C61  1  0.22965384  0.88236819  0.33412274  1  0  -0.084421  0  3.778236  0  0  -0.055904  0  4.007359  0  0  -0.065517  0  4.030481  0  0  -0.025637  -0.049864  0  3.991902  0
C  C62  1  0.84113344  0.24571923  0.93923156  1  0  -0.057059  0  3.720583  0  0  -0.08728  0  3.973384  0  0  -0.08411  0  3.991712  0  0  -0.086548  -0.089019  0  3.960853  0
C  C63  1  0.24571577  0.84113464  0.43923322  1  0  -0.057021  0  3.720458  0  0  -0.087258  0  3.97328  0  0  -0.084086  0  3.991606  0  0  -0.086551  -0.088998  0  3.960754  0
C  C64  1  0.93027111  0.12192260  0.01036026  1  0  -0.0841  0  3.760952  0  0  -0.093344  0  4.014223  0  0  -0.097298  0  4.033418  0  0  -0.094081  -0.09084  0  4.00122  0
C  C65  1  0.12192033  0.93027215  0.51036129  1  0  -0.084126  0  3.760967  0  0  -0.093366  0  4.014237  0  0  -0.097322  0  4.033433  0  0  -0.094098  -0.090873  0  4.001228  0
C  C66  1  0.05892940  0.97851778  0.97697970  1  0  -0.071012  0  3.720897  0  0  -0.097716  0  3.97032  0  0  -0.095216  0  3.987071  0  0  -0.082048  -0.099032  0  3.958914  0
C  C67  1  0.97851433  0.05893107  0.47697880  1  0  -0.071003  0  3.720877  0  0  -0.097692  0  3.97028  0  0  -0.09519  0  3.987031  0  0  -0.08204  -0.099009  0  3.958876  0
C  C68  1  0.10399404  0.96296012  0.87194313  1  0  -0.074478  0  3.767179  0  0  -0.048061  0  3.999789  0  0  -0.056898  0  4.022534  0  0  -0.021826  -0.0425  0  3.984546  0
C  C69  1  0.96295718  0.10399575  0.37194147  1  0  -0.074399  0  3.767193  0  0  -0.047997  0  3.99979  0  0  -0.056838  0  4.022536  0  0  -0.021843  -0.042437  0  3.984544  0
C  C70  1  0.01774879  0.09036704  0.80122440  1  0  -0.08132  0  3.713462  0  0  -0.114141  0  3.955706  0  0  -0.111385  0  3.974132  0  0  -0.080521  -0.115609  0  3.943239  0
C  C71  1  0.09036586  0.01774906  0.30122477  1  0  -0.081434  0  3.713517  0  0  -0.114245  0  3.955773  0  0  -0.111484  0  3.974195  0  0  -0.080571  -0.115711  0  3.943305  0
C  C72  1  0.23715172  0.80563315  0.83581842  1  0  0.638986  0  3.928464  0  0  0.589024  0  4.222703  0  0  0.623231  0  4.21479  0  0  0.201534  0.56582  0  4.22737  0
C  C73  1  0.80563130  0.23715461  0.33581832  1  0  0.63888  0  3.928644  0  0  0.588949  0  4.222837  0  0  0.623157  0  4.214923  0  0  0.201502  0.565746  0  4.227504  0
N  N74  1  0.35195981  0.49372831  0.64310744  1  0  -0.393284  0  3.346241  0  0  -0.312424  0  3.652094  0  0  -0.332926  0  3.664931  0  0  -0.36369  -0.298547  0  3.643158  0
N  N75  1  0.49372882  0.35195807  0.14310779  1  0  -0.393325  0  3.346206  0  0  -0.312467  0  3.652073  0  0  -0.332969  0  3.664909  0  0  -0.36373  -0.298592  0  3.643147  0
N  N76  1  0.26670909  0.36203074  0.54081165  1  0  -0.047833  0  3.558065  0  0  0.047797  0  3.773955  0  0  0.033581  0  3.799131  0  0  -0.23787  0.05714  0  3.756828  0
N  N77  1  0.36203008  0.26670756  0.04081285  1  0  -0.047823  0  3.557979  0  0  0.047801  0  3.773892  0  0  0.033598  0  3.799071  0  0  -0.237886  0.057143  0  3.756768  0
N  N78  1  0.70782835  0.76507545  0.43584284  1  0  -0.045159  0  3.547994  0  0  0.049403  0  3.765584  0  0  0.035021  0  3.791287  0  0  -0.237315  0.058867  0  3.748074  0
N  N79  1  0.76507668  0.70782718  0.93584245  1  0  -0.045052  0  3.547916  0  0  0.049511  0  3.765491  0  0  0.03513  0  3.791195  0  0  -0.23726  0.058977  0  3.747979  0
N  N80  1  0.59031866  0.71449390  0.58436662  1  0  -0.396524  0  3.326709  0  0  -0.314289  0  3.625957  0  0  -0.334746  0  3.638399  0  0  -0.363188  -0.300436  0  3.617294  0
N  N81  1  0.71449220  0.59031858  0.08436625  1  0  -0.396508  0  3.326927  0  0  -0.31427  0  3.626174  0  0  -0.334728  0  3.638616  0  0  -0.363224  -0.300419  0  3.617512  0
O  O82  1  0.64415348  0.46981137  0.79741560  1  0  -0.656667  0  2.075583  0  0  -0.586433  0  2.360835  0  0  -0.614197  0  2.343803  0  0  -0.337739  -0.566991  0  2.371844  0
O  O83  1  0.46980867  0.64415138  0.29741487  1  0  -0.65663  0  2.075537  0  0  -0.586403  0  2.360785  0  0  -0.614171  0  2.343758  0  0  -0.337744  -0.56696  0  2.371793  0
O  O84  1  0.79881166  0.32869506  0.66381819  1  0  -0.620772  0  1.909341  0  0  -0.576416  0  2.131542  0  0  -0.59907  0  2.122429  0  0  -0.327252  -0.56062  0  2.137233  0
O  O85  1  0.32869405  0.79881078  0.16381823  1  0  -0.62077  0  1.909334  0  0  -0.576407  0  2.131514  0  0  -0.599059  0  2.122396  0  0  -0.327251  -0.560611  0  2.137203  0
O  O86  1  0.25971869  0.67022389  0.88776986  1  0  -0.631499  0  1.933899  0  0  -0.581511  0  2.162659  0  0  -0.604435  0  2.152491  0  0  -0.325087  -0.565409  0  2.16914  0
O  O87  1  0.67022104  0.25972059  0.38777000  1  0  -0.631504  0  1.933994  0  0  -0.581532  0  2.162744  0  0  -0.604457  0  2.152574  0  0  -0.325089  -0.56543  0  2.169227  0
O  O88  1  0.31827636  0.81934644  0.74994937  1  0  -0.642458  0  2.039389  0  0  -0.570612  0  2.31186  0  0  -0.598274  0  2.296251  0  0  -0.332484  -0.551232  0  2.321882  0
O  O89  1  0.81934438  0.31828000  0.24995080  1  0  -0.642413  0  2.039454  0  0  -0.570568  0  2.311918  0  0  -0.598233  0  2.296309  0  0  -0.332468  -0.55119  0  2.32194  0
O  O90  1  0.02647663  0.49833927  0.38177780  1  0  -0.311715  0  2.232424  0  0  -0.245792  0  2.488202  0  0  -0.26105  0  2.489845  0  0  -0.236304  -0.235036  0  2.486679  0
O  O91  1  0.49833977  0.02647593  0.88177867  1  0  -0.311738  0  2.23239  0  0  -0.245814  0  2.488148  0  0  -0.261071  0  2.489786  0  0  -0.236316  -0.235062  0  2.486629  0
