# generated using pymatgen
data_Zn2H17C28N5O8
_symmetry_space_group_name_H-M   'P 1'
_cell_length_a   13.67994850
_cell_length_b   16.79842115
_cell_length_c   19.08444781
_cell_angle_alpha   116.13282959
_cell_angle_beta   102.88801087
_cell_angle_gamma   89.99858519
_symmetry_Int_Tables_number   1
_chemical_formula_structural   Zn2H17C28N5O8
_chemical_formula_sum   'Zn8 H68 C112 N20 O32'
_cell_volume   3813.87890332
_cell_formula_units_Z   4
loop_
 _symmetry_equiv_pos_site_id
 _symmetry_equiv_pos_as_xyz
  1  'x, y, z'
loop_
 _atom_site_type_symbol
 _atom_site_label
 _atom_site_symmetry_multiplicity
 _atom_site_fract_x
 _atom_site_fract_y
 _atom_site_fract_z
 _atom_site_occupancy
 _atom_site_pbe_bader_charge
 _atom_site_pbe_bader_spin_density
 _atom_site_pbe_cm5_charge
 _atom_site_pbe_ddec_charge
 _atom_site_pbe_ddec_spin_density
 _atom_site_pbe_ddec_sum_bond_order
 _atom_site_pbe_magmom
Zn  Zn0  1  0.75100180  0.08032128  0.64935957  1  1.295765  0  0.671557  0.829124  0  2.410149  0
Zn  Zn1  1  0.81075754  0.15562712  0.82208201  1  1.295674  0  0.671938  0.832467  0  2.406393  0
Zn  Zn2  1  0.25104477  0.56914878  0.64924951  1  1.299036  0  0.671566  0.829062  0  2.411092  0
Zn  Zn3  1  0.31085764  0.66672680  0.82205534  1  1.298276  0  0.671796  0.833229  0  2.406314  0
Zn  Zn4  1  0.74895365  0.43085131  0.35075150  1  1.299229  0  0.671554  0.829074  0  2.41115  0
Zn  Zn5  1  0.68914003  0.33327316  0.17794555  1  1.298286  0  0.671844  0.833322  0  2.406216  0
Zn  Zn6  1  0.24899721  0.91967817  0.35063946  1  1.29576  0  0.671541  0.829059  0  2.410206  0
Zn  Zn7  1  0.18924313  0.84437282  0.17791885  1  1.29563  0  0.671959  0.832446  0  2.406411  0
H  H8  1  0.07315222  0.02490240  0.84400912  1  0.088094  0  0.104476  0.111444  0  0.997935  0
H  H9  1  0.17778421  0.90137727  0.84308722  1  0.082908  0  0.100946  0.105242  0  1.008749  0
H  H10  1  0.05389703  0.75061834  0.58817179  1  0.089431  0  0.10284  0.109198  0  1.002469  0
H  H11  1  0.95019954  0.87507795  0.58917179  1  0.086323  0  0.106762  0.115349  0  0.992442  0
H  H12  1  0.51358540  0.48774908  0.88198248  1  0.108431  0  0.104342  0.109017  0  1.000985  0
H  H13  1  0.38041060  0.33471571  0.62875039  1  0.083052  0  0.101445  0.102641  0  1.014747  0
H  H14  1  0.48812922  0.21285387  0.62547960  1  0.090658  0  0.101286  0.103928  0  1.013924  0
H  H15  1  0.62078902  0.36508524  0.87885799  1  0.082172  0  0.102755  0.105424  0  1.00529  0
H  H16  1  0.86995693  0.04271134  0.90127067  1  0.14815  0  0.123  0.098109  0  1.005136  0
H  H17  1  0.97078350  0.06172196  0.03672902  1  0.1106  0  0.115987  0.128384  0  1.020956  0
H  H18  1  0.96758342  0.34619204  0.12476270  1  0.151887  0  0.119528  0.135124  0  1.023796  0
H  H19  1  0.86725751  0.31596631  0.98647584  1  0.098166  0  0.130249  0.101824  0  0.96361  0
H  H20  1  0.18778385  0.15643828  0.27644070  1  0.158488  0  0.129283  0.129203  0  0.994844  0
H  H21  1  0.02438180  0.42900714  0.36255459  1  0.160135  0  0.112574  0.133216  0  1.034521  0
H  H22  1  0.08666028  0.54375946  0.50660067  1  0.116668  0  0.123092  0.095308  0  0.993201  0
H  H23  1  0.33272960  0.41177887  0.54401654  1  0.123666  0  0.125981  0.101297  0  0.991227  0
H  H24  1  0.28558584  0.29297458  0.40068228  1  0.09718  0  0.110404  0.11956  0  1.010282  0
H  H25  1  0.57344253  0.81913573  0.84393912  1  0.086748  0  0.104308  0.111025  0  0.997995  0
H  H26  1  0.67782165  0.94193329  0.84307460  1  0.046318  0  0.100813  0.105121  0  1.009241  0
H  H27  1  0.55394096  0.83761369  0.58816231  1  0.073241  0  0.102634  0.10894  0  1.00257  0
H  H28  1  0.45035482  0.71405707  0.58912920  1  0.08931  0  0.106865  0.115731  0  0.993124  0
H  H29  1  0.01383769  0.39464843  0.88211103  1  0.08813  0  0.104364  0.109126  0  1.000512  0
H  H30  1  0.88038852  0.29420706  0.62890458  1  0.082886  0  0.101693  0.102924  0  1.014603  0
H  H31  1  0.98827085  0.41254147  0.62545485  1  0.064602  0  0.101195  0.103357  0  1.014117  0
H  H32  1  0.12111068  0.51403119  0.87882116  1  0.089627  0  0.10241  0.105251  0  1.005261  0
H  H33  1  0.37026250  0.85878706  0.90141629  1  0.13856  0  0.123142  0.098016  0  1.005332  0
H  H34  1  0.47111373  0.97521673  0.03693799  1  0.127848  0  0.115897  0.128003  0  1.021762  0
H  H35  1  0.46758148  0.77870833  0.12477013  1  0.151171  0  0.119552  0.135174  0  1.023935  0
H  H36  1  0.36726751  0.67067410  0.98644653  1  0.090768  0  0.130465  0.102783  0  0.962995  0
H  H37  1  0.68782388  0.12030800  0.27675200  1  0.155726  0  0.129421  0.128833  0  0.99526  0
H  H38  1  0.52426790  0.93380462  0.36265369  1  0.127984  0  0.112692  0.133575  0  1.034476  0
H  H39  1  0.58668137  0.96283069  0.50658280  1  0.108256  0  0.122698  0.094644  0  0.993899  0
H  H40  1  0.83281147  0.13228747  0.54419641  1  0.124768  0  0.125873  0.10076  0  0.991292  0
H  H41  1  0.78565761  0.10788492  0.40092906  1  0.1005  0  0.110606  0.120054  0  1.009991  0
H  H42  1  0.42656568  0.18086974  0.15606797  1  0.086813  0  0.104319  0.1111  0  0.9979  0
H  H43  1  0.32218385  0.05806901  0.15692526  1  0.046083  0  0.100828  0.105116  0  1.009243  0
H  H44  1  0.44605724  0.16238232  0.41183861  1  0.073171  0  0.102592  0.10891  0  1.002691  0
H  H45  1  0.54964451  0.28594227  0.41087844  1  0.089317  0  0.106867  0.115707  0  0.993132  0
H  H46  1  0.98616527  0.60534773  0.11788599  1  0.087932  0  0.104406  0.109179  0  1.000511  0
H  H47  1  0.11960808  0.70579178  0.37109249  1  0.082993  0  0.101695  0.102924  0  1.014654  0
H  H48  1  0.01172657  0.58745813  0.37454367  1  0.06457  0  0.101187  0.10332  0  1.01408  0
H  H49  1  0.87889069  0.48596564  0.12117588  1  0.089588  0  0.102461  0.105246  0  1.005263  0
H  H50  1  0.62973536  0.14120951  0.09858251  1  0.138559  0  0.123128  0.098024  0  1.005359  0
H  H51  1  0.52888596  0.02478169  0.96305931  1  0.12784  0  0.115888  0.127996  0  1.021861  0
H  H52  1  0.53241902  0.22129346  0.87523125  1  0.151157  0  0.119543  0.135155  0  1.023928  0
H  H53  1  0.63272882  0.32932690  0.01355675  1  0.090797  0  0.13047  0.102775  0  0.962985  0
H  H54  1  0.31217789  0.87969108  0.72324462  1  0.155737  0  0.129423  0.128853  0  0.995221  0
H  H55  1  0.47572891  0.06619934  0.63734452  1  0.128048  0  0.112698  0.133609  0  1.034489  0
H  H56  1  0.41331619  0.03717340  0.49341554  1  0.108262  0  0.122667  0.094542  0  0.993922  0
H  H57  1  0.16718812  0.86771239  0.45580168  1  0.124705  0  0.125876  0.10076  0  0.99127  0
H  H58  1  0.21434198  0.89211545  0.59906955  1  0.100529  0  0.110631  0.120112  0  1.009969  0
H  H59  1  0.92684776  0.97510073  0.15598960  1  0.088161  0  0.104462  0.111458  0  0.997904  0
H  H60  1  0.82221660  0.09862767  0.15691399  1  0.082889  0  0.10092  0.10518  0  1.008819  0
H  H61  1  0.94610505  0.24938277  0.41182958  1  0.089397  0  0.102857  0.10923  0  1.002455  0
H  H62  1  0.04980255  0.12492160  0.41082800  1  0.086288  0  0.106768  0.115403  0  0.99239  0
H  H63  1  0.48641061  0.51224988  0.11801606  1  0.108281  0  0.104344  0.109018  0  1.000941  0
H  H64  1  0.61958851  0.66528178  0.37124733  1  0.083076  0  0.101472  0.102656  0  1.01478  0
H  H65  1  0.51187178  0.78714663  0.37451847  1  0.090726  0  0.101279  0.103926  0  1.013758  0
H  H66  1  0.37920876  0.63491173  0.12114054  1  0.082136  0  0.102746  0.105381  0  1.005309  0
H  H67  1  0.13004115  0.95729035  0.09872927  1  0.148137  0  0.122994  0.098091  0  1.005163  0
H  H68  1  0.02921476  0.93827685  0.96326936  1  0.110566  0  0.115981  0.128392  0  1.020903  0
H  H69  1  0.03242152  0.65380613  0.87524038  1  0.1511  0  0.11952  0.135114  0  1.023805  0
H  H70  1  0.13274689  0.68403686  0.01352827  1  0.097991  0  0.130225  0.101838  0  0.963692  0
H  H71  1  0.81221908  0.84356152  0.72356000  1  0.158525  0  0.129292  0.129243  0  0.994847  0
H  H72  1  0.97561722  0.57099127  0.63744339  1  0.16014  0  0.11255  0.133198  0  1.034534  0
H  H73  1  0.91333923  0.45624080  0.49339715  1  0.116663  0  0.123074  0.095246  0  0.993239  0
H  H74  1  0.66726940  0.58822163  0.45598354  1  0.123666  0  0.12596  0.10128  0  0.99122  0
H  H75  1  0.71441417  0.70702484  0.59931872  1  0.097203  0  0.110394  0.11955  0  1.01028  0
C  C76  1  0.17797608  0.74265450  0.71703607  1  1.575227  0  0.207835  0.577784  0  4.197407  0
C  C77  1  0.93326923  0.02448953  0.71990800  1  1.552103  0  0.211816  0.586524  0  4.184278  0
C  C78  1  0.00562408  0.95654608  0.71673938  1  -0.042096  0  -0.016064  -0.025766  0  3.961027  0
C  C79  1  0.07083703  0.96503062  0.78825673  1  -0.013157  0  -0.086208  -0.095364  0  3.98293  0
C  C80  1  0.12803443  0.89654693  0.78779353  1  -0.014455  0  -0.090607  -0.103778  0  3.998682  0
C  C81  1  0.12069294  0.81844563  0.71583727  1  -0.050303  0  -0.022829  -0.044454  0  3.987215  0
C  C82  1  0.05837333  0.81144280  0.64370754  1  -0.063304  0  -0.091096  -0.110908  0  4.004401  0
C  C83  1  0.00118683  0.88021197  0.64414157  1  -0.047122  0  -0.086175  -0.102208  0  3.983611  0
C  C84  1  0.38300671  0.49436763  0.75577710  1  1.568818  0  0.21424  0.591596  0  4.168615  0
C  C85  1  0.44156123  0.41870954  0.75541037  1  -0.007962  0  -0.012679  -0.019828  0  3.950705  0
C  C86  1  0.50778975  0.42674477  0.82638386  1  -0.041677  0  -0.083768  -0.095208  0  3.978494  0
C  C87  1  0.43303601  0.34061175  0.68328796  1  -0.022704  0  -0.085832  -0.095918  0  3.983738  0
C  C88  1  0.62951716  0.21186380  0.74871427  1  1.559258  0  0.214509  0.583495  0  4.18367  0
C  C89  1  0.55990725  0.28151532  0.75216880  1  -0.009676  0  -0.016524  -0.028523  0  3.966454  0
C  C90  1  0.49198596  0.27271816  0.68156974  1  -0.043189  0  -0.086574  -0.096614  0  3.984785  0
C  C91  1  0.56658449  0.35861994  0.82473473  1  -0.095519  0  -0.087119  -0.09958  0  3.983631  0
C  C92  1  0.89276246  0.10848866  0.95262785  1  0.408493  0  0.055101  0.114107  0  3.921367  0
C  C93  1  0.94898634  0.11881991  0.02675961  1  0.117559  0  -0.080857  -0.209314  0  3.947997  0
C  C94  1  0.97800456  0.20545688  0.08915272  1  0.256283  0  0.131996  0.184236  0  3.985308  0
C  C95  1  0.94746632  0.27849067  0.07666604  1  0.077652  0  -0.070964  -0.182505  0  3.916511  0
C  C96  1  0.89109714  0.26154915  0.00044474  1  0.517299  0  0.062831  0.116487  0  3.918414  0
C  C97  1  0.11700859  0.28233924  0.28650072  1  0.47823  0  0.11316  0.106783  0  4.036767  0
C  C98  1  0.13986444  0.19280067  0.25030521  1  0.492819  0  0.04624  -0.04825  0  3.935542  0
C  C99  1  0.15018974  0.35107207  0.36968963  1  -0.015997  0  0.020687  0.105081  0  4.002294  0
C  C100  1  0.09405558  0.42318606  0.40011419  1  -0.02359  0  -0.073682  -0.160858  0  3.903154  0
C  C101  1  0.12746021  0.48647162  0.47999079  1  0.444614  0  0.054997  0.096007  0  3.923941  0
C  C102  1  0.26580607  0.41248652  0.50088082  1  0.507122  0  0.056693  0.101746  0  3.924431  0
C  C103  1  0.23816824  0.34653512  0.42159807  1  -0.023649  0  -0.075984  -0.16638  0  3.927696  0
C  C104  1  0.67794696  0.97455611  0.71704711  1  1.566989  0  0.207736  0.5777  0  4.198543  0
C  C105  1  0.43342032  0.69552336  0.71986792  1  1.558249  0  0.211733  0.58709  0  4.183071  0
C  C106  1  0.50589083  0.76018470  0.71668430  1  -0.034983  0  -0.015539  -0.025988  0  3.960734  0
C  C107  1  0.57109532  0.82326866  0.78819913  1  -0.036431  0  -0.085561  -0.094184  0  3.983137  0
C  C108  1  0.62815232  0.89136551  0.78776222  1  -0.022795  0  -0.090981  -0.104503  0  3.999703  0
C  C109  1  0.62073241  0.89751087  0.71583359  1  -0.04254  0  -0.023045  -0.044503  0  3.987022  0
C  C110  1  0.55847537  0.83231063  0.64368618  1  -0.022038  0  -0.090799  -0.11057  0  4.003322  0
C  C111  1  0.50137703  0.76391516  0.64409811  1  -0.024854  0  -0.086631  -0.102766  0  3.982982  0
C  C112  1  0.88297169  0.26176282  0.75594315  1  1.560426  0  0.21451  0.59163  0  4.169343  0
C  C113  1  0.94164359  0.33699682  0.75554880  1  -0.036341  0  -0.012352  -0.021249  0  3.951948  0
C  C114  1  0.00798375  0.39997248  0.82647812  1  -0.020325  0  -0.0842  -0.094989  0  3.978168  0
C  C115  1  0.93311589  0.34285693  0.68339760  1  -0.023558  0  -0.08579  -0.095373  0  3.98326  0
C  C116  1  0.12967697  0.53694032  0.74861895  1  1.5587  0  0.213684  0.582487  0  4.183033  0
C  C117  1  0.06010671  0.47075423  0.75213828  1  -0.060235  0  -0.016809  -0.028838  0  3.965827  0
C  C118  1  0.99214827  0.40890475  0.68158750  1  -0.04418  0  -0.086529  -0.095625  0  3.984099  0
C  C119  1  0.06683120  0.46634356  0.82473685  1  -0.017549  0  -0.086488  -0.099312  0  3.983705  0
C  C120  1  0.39299821  0.84436504  0.95276317  1  0.43832  0  0.05556  0.114846  0  3.921739  0
C  C121  1  0.44923433  0.90814396  0.02692234  1  0.089977  0  -0.080627  -0.209052  0  3.948324  0
C  C122  1  0.47813774  0.88389080  0.08928449  1  0.228247  0  0.131235  0.185013  0  3.982705  0
C  C123  1  0.44749768  0.79834784  0.07671658  1  0.076315  0  -0.071138  -0.183599  0  3.917586  0
C  C124  1  0.39113810  0.73907569  0.00047083  1  0.522099  0  0.063308  0.116565  0  3.918147  0
C  C125  1  0.61699667  0.00441841  0.28669411  1  0.488773  0  0.112517  0.104172  0  4.037307  0
C  C126  1  0.63990500  0.05777620  0.25056178  1  0.478576  0  0.046658  -0.046819  0  3.934809  0
C  C127  1  0.65014404  0.01886359  0.36986836  1  -0.048205  0  0.021484  0.106998  0  4.000681  0
C  C128  1  0.59398721  0.97713573  0.40023490  1  0.001284  0  -0.074424  -0.161512  0  3.903931  0
C  C129  1  0.62744324  0.99360996  0.48005924  1  0.473605  0  0.055138  0.096252  0  3.924329  0
C  C130  1  0.76584770  0.08849596  0.50103809  1  0.463425  0  0.056566  0.103087  0  3.924196  0
C  C131  1  0.73819184  0.07524446  0.42180009  1  0.02371  0  -0.075708  -0.167472  0  3.927078  0
C  C132  1  0.32205140  0.02544126  0.28295049  1  1.567087  0  0.207617  0.577456  0  4.19879  0
C  C133  1  0.56658259  0.30447792  0.28014032  1  1.559466  0  0.211754  0.587287  0  4.183181  0
C  C134  1  0.49411180  0.23981934  0.28332472  1  -0.035274  0  -0.015613  -0.026074  0  3.960743  0
C  C135  1  0.42891157  0.17673576  0.21180825  1  -0.03638  0  -0.085508  -0.094243  0  3.982993  0
C  C136  1  0.37185202  0.10863546  0.21223899  1  -0.02264  0  -0.090965  -0.104466  0  3.999405  0
C  C137  1  0.37927225  0.10249058  0.28417079  1  -0.042645  0  -0.023168  -0.0445  0  3.98713  0
C  C138  1  0.44152366  0.16768563  0.35631565  1  -0.02148  0  -0.090749  -0.110603  0  4.003765  0
C  C139  1  0.49862430  0.23608419  0.35590752  1  -0.02532  0  -0.08658  -0.102662  0  3.983036  0
C  C140  1  0.11702817  0.73823428  0.24405417  1  1.560249  0  0.214462  0.591415  0  4.169443  0
C  C141  1  0.05835627  0.66300132  0.24444957  1  -0.036392  0  -0.012396  -0.02132  0  3.952063  0
C  C142  1  0.99201919  0.60002576  0.17352101  1  -0.020092  0  -0.084288  -0.095118  0  3.978357  0
C  C143  1  0.06688247  0.65714096  0.31660052  1  -0.023759  0  -0.085727  -0.09524  0  3.983279  0
C  C144  1  0.87031953  0.46305996  0.25137890  1  1.558712  0  0.213717  0.582526  0  4.182814  0
C  C145  1  0.93989223  0.52924458  0.24785943  1  -0.06013  0  -0.0168  -0.028988  0  3.965965  0
C  C146  1  0.00785058  0.59109446  0.31840994  1  -0.043988  0  -0.086486  -0.095523  0  3.984092  0
C  C147  1  0.93317008  0.53365367  0.17525992  1  -0.017656  0  -0.086516  -0.099185  0  3.983732  0
C  C148  1  0.60700023  0.15563349  0.04723626  1  0.438657  0  0.055499  0.114738  0  3.921642  0
C  C149  1  0.55076478  0.09185405  0.97307590  1  0.089954  0  -0.080544  -0.208955  0  3.948271  0
C  C150  1  0.52186269  0.11610878  0.91071398  1  0.228109  0  0.131196  0.18497  0  3.982832  0
C  C151  1  0.55250225  0.20165146  0.92328363  1  0.07632  0  -0.071105  -0.183562  0  3.917644  0
C  C152  1  0.60886040  0.26092400  0.99953045  1  0.522139  0  0.063315  0.116623  0  3.918076  0
C  C153  1  0.38300400  0.99558318  0.71330236  1  0.488837  0  0.112566  0.104207  0  4.037308  0
C  C154  1  0.36009668  0.94222379  0.74943509  1  0.478658  0  0.046656  -0.046834  0  3.934803  0
C  C155  1  0.34985453  0.98113890  0.63013038  1  -0.048153  0  0.021531  0.106987  0  4.000795  0
C  C156  1  0.40600960  0.02286823  0.59976331  1  0.001406  0  -0.074373  -0.161478  0  3.903913  0
C  C157  1  0.37255449  0.00639332  0.51993964  1  0.471917  0  0.055108  0.096341  0  3.924228  0
C  C158  1  0.23415180  0.91150533  0.49896078  1  0.463603  0  0.056641  0.103115  0  3.924076  0
C  C159  1  0.26180915  0.92475813  0.57820008  1  0.02365  0  -0.075844  -0.16763  0  3.927132  0
C  C160  1  0.82202423  0.25734860  0.28296529  1  1.575337  0  0.207779  0.577701  0  4.197511  0
C  C161  1  0.06673037  0.97550981  0.28008956  1  1.552115  0  0.211858  0.586601  0  4.184244  0
C  C162  1  0.99437765  0.04345715  0.28326144  1  -0.042307  0  -0.016028  -0.025745  0  3.961084  0
C  C163  1  0.92916546  0.03497170  0.21174316  1  -0.013008  0  -0.086244  -0.095454  0  3.982955  0
C  C164  1  0.87196823  0.10345511  0.21220742  1  -0.014407  0  -0.090607  -0.10372  0  3.99865  0
C  C165  1  0.87930954  0.18155773  0.28416367  1  -0.050362  0  -0.02276  -0.04436  0  3.987065  0
C  C166  1  0.94162849  0.18855951  0.35629302  1  -0.063156  0  -0.09111  -0.110892  0  4.004271  0
C  C167  1  0.99881500  0.11978982  0.35585846  1  -0.047251  0  -0.086228  -0.102383  0  3.983673  0
C  C168  1  0.61698508  0.50562782  0.24421992  1  1.569049  0  0.214363  0.591777  0  4.168406  0
C  C169  1  0.55843712  0.58128887  0.24458828  1  -0.00817  0  -0.012746  -0.019983  0  3.950662  0
C  C170  1  0.49220535  0.57325382  0.17361296  1  -0.041362  0  -0.083705  -0.095102  0  3.978407  0
C  C171  1  0.56696467  0.65938715  0.31671185  1  -0.02276  0  -0.08579  -0.095793  0  3.983661  0
C  C172  1  0.37048053  0.78813357  0.25128399  1  1.559388  0  0.214553  0.583527  0  4.184037  0
C  C173  1  0.44009119  0.71848269  0.24783012  1  -0.009672  0  -0.016554  -0.028552  0  3.966456  0
C  C174  1  0.50801467  0.72727802  0.31842664  1  -0.043124  0  -0.086606  -0.096692  0  3.984745  0
C  C175  1  0.43341303  0.64137822  0.17526300  1  -0.095611  0  -0.087117  -0.099544  0  3.983594  0
C  C176  1  0.10723663  0.89151143  0.04737249  1  0.408461  0  0.055124  0.114159  0  3.921368  0
C  C177  1  0.05101451  0.88117871  0.97324126  1  0.117663  0  -0.080867  -0.209378  0  3.947976  0
C  C178  1  0.02199547  0.79454046  0.91084618  1  0.256346  0  0.132074  0.184231  0  3.985273  0
C  C179  1  0.05253610  0.72150937  0.92333691  1  0.078317  0  -0.070956  -0.182412  0  3.91646  0
C  C180  1  0.10890502  0.73845261  0.99955795  1  0.517571  0  0.062802  0.116328  0  3.918579  0
C  C181  1  0.88299151  0.71765927  0.71350003  1  0.478245  0  0.113146  0.10669  0  4.036607  0
C  C182  1  0.86013623  0.80719979  0.74969617  1  0.49282  0  0.046242  -0.048297  0  3.935392  0
C  C183  1  0.84980928  0.64892687  0.63030887  1  -0.016077  0  0.020695  0.105129  0  4.002073  0
C  C184  1  0.90594503  0.57681220  0.59988430  1  -0.023741  0  -0.073681  -0.160858  0  3.90315  0
C  C185  1  0.87254012  0.51352940  0.52000847  1  0.444804  0  0.055084  0.096142  0  3.924023  0
C  C186  1  0.73419368  0.58751410  0.49911938  1  0.507123  0  0.056702  0.101784  0  3.924342  0
C  C187  1  0.76183085  0.65346445  0.57840175  1  -0.023589  0  -0.075992  -0.166412  0  3.927687  0
N  N188  1  0.86483278  0.17865386  0.93933237  1  -1.248648  0  -0.326322  -0.218807  0  3.522808  0
N  N189  1  0.21131061  0.48109013  0.52978611  1  -1.243275  0  -0.32498  -0.205919  0  3.53301  0
N  N190  1  0.03913472  0.21864957  0.16392046  1  -0.413161  0  -0.003228  0.241597  0  3.83061  0
N  N191  1  0.05286503  0.29679267  0.22993169  1  -0.59522  0  -0.183381  -0.230467  0  3.06853  0
N  N192  1  0.08988342  0.15348933  0.17307450  1  -0.648504  0  -0.201863  -0.219292  0  3.125543  0
N  N193  1  0.36494171  0.76087945  0.93939277  1  -1.249335  0  -0.326917  -0.220286  0  3.522949  0
N  N194  1  0.71133648  0.04874899  0.52987640  1  -1.231702  0  -0.324788  -0.206378  0  3.532165  0
N  N195  1  0.53923953  0.94547770  0.16408745  1  -0.39021  0  -0.002966  0.241176  0  3.827497  0
N  N196  1  0.55290210  0.93335782  0.23007947  1  -0.588858  0  -0.183663  -0.229414  0  3.066819  0
N  N197  1  0.58999834  0.01983276  0.17331914  1  -0.648216  0  -0.201734  -0.219371  0  3.125261  0
N  N198  1  0.63505529  0.23912000  0.06060826  1  -1.249661  0  -0.326932  -0.220333  0  3.522875  0
N  N199  1  0.28866218  0.95125310  0.47012261  1  -1.230353  0  -0.324777  -0.20629  0  3.532057  0
N  N200  1  0.46076165  0.05452200  0.83591115  1  -0.390412  0  -0.002907  0.241284  0  3.827335  0
N  N201  1  0.44709816  0.06664308  0.76991899  1  -0.588953  0  -0.183663  -0.229432  0  3.066765  0
N  N202  1  0.41000435  0.98016615  0.82667866  1  -0.647926  0  -0.201826  -0.21949  0  3.125267  0
N  N203  1  0.13516764  0.82134728  0.06066769  1  -1.24873  0  -0.326338  -0.218731  0  3.522787  0
N  N204  1  0.78868972  0.51891089  0.47021315  1  -1.243282  0  -0.324994  -0.205933  0  3.532983  0
N  N205  1  0.96086531  0.78134777  0.83607844  1  -0.413125  0  -0.00325  0.241606  0  3.830688  0
N  N206  1  0.94713574  0.70320583  0.77006839  1  -0.595321  0  -0.183345  -0.230426  0  3.068688  0
N  N207  1  0.91011809  0.84650982  0.82692622  1  -0.648537  0  -0.201919  -0.2193  0  3.125532  0
O  O208  1  0.17524463  0.67607764  0.64950708  1  -1.170299  0  -0.317423  -0.54282  0  2.314225  0
O  O209  1  0.22529152  0.75133353  0.78601690  1  -1.175355  0  -0.317126  -0.560054  0  2.349999  0
O  O210  1  0.92821189  0.08146363  0.78984258  1  -1.164288  0  -0.317661  -0.553555  0  2.355434  0
O  O211  1  0.87948060  0.01745084  0.65332751  1  -1.159496  0  -0.320904  -0.54408  0  2.304485  0
O  O212  1  0.38866311  0.56158559  0.82340155  1  -1.161254  0  -0.317261  -0.539893  0  2.299527  0
O  O213  1  0.33239950  0.48558864  0.68743390  1  -1.183271  0  -0.317349  -0.563738  0  2.353133  0
O  O214  1  0.68619350  0.22108548  0.81533155  1  -1.159846  0  -0.316837  -0.550311  0  2.358573  0
O  O215  1  0.62863013  0.14957711  0.67924371  1  -1.187904  0  -0.317159  -0.556923  0  2.356348  0
O  O216  1  0.67522650  0.97356266  0.64953185  1  -1.161972  0  -0.316892  -0.542224  0  2.313767  0
O  O217  1  0.72520443  0.03492548  0.78604212  1  -1.182947  0  -0.317425  -0.560178  0  2.35095  0
O  O218  1  0.42830329  0.70863803  0.78982147  1  -1.159133  0  -0.317141  -0.553179  0  2.353288  0
O  O219  1  0.37956800  0.63596994  0.65329852  1  -1.16021  0  -0.321232  -0.544627  0  2.305233  0
O  O220  1  0.88863868  0.26221042  0.82356501  1  -1.15464  0  -0.318041  -0.53999  0  2.298206  0
O  O221  1  0.83229877  0.20218169  0.68760254  1  -1.174283  0  -0.317214  -0.563634  0  2.353453  0
O  O222  1  0.18630831  0.59445363  0.81521242  1  -1.167807  0  -0.316558  -0.55029  0  2.358954  0
O  O223  1  0.12874163  0.52965721  0.67912601  1  -1.167096  0  -0.31702  -0.55668  0  2.355839  0
O  O224  1  0.32476945  0.02643462  0.35046431  1  -1.161904  0  -0.316864  -0.542209  0  2.313894  0
O  O225  1  0.27479511  0.96507218  0.21395308  1  -1.183038  0  -0.317294  -0.559951  0  2.35103  0
O  O226  1  0.57170256  0.29136999  0.21019358  1  -1.1601  0  -0.317228  -0.553325  0  2.353712  0
O  O227  1  0.62043585  0.36403650  0.34671696  1  -1.160219  0  -0.321177  -0.544676  0  2.304992  0
O  O228  1  0.11136358  0.73778989  0.17643689  1  -1.154481  0  -0.318  -0.539883  0  2.29844  0
O  O229  1  0.16770058  0.79781721  0.31239860  1  -1.174257  0  -0.317214  -0.563525  0  2.353267  0
O  O230  1  0.81368910  0.40554702  0.18478715  1  -1.167877  0  -0.316588  -0.550296  0  2.358894  0
O  O231  1  0.87125168  0.47034597  0.32087344  1  -1.167197  0  -0.317063  -0.55674  0  2.35562  0
O  O232  1  0.82475796  0.32392375  0.35049255  1  -1.170367  0  -0.317345  -0.542722  0  2.31433  0
O  O233  1  0.77470816  0.24866593  0.21398146  1  -1.175385  0  -0.317142  -0.560055  0  2.349894  0
O  O234  1  0.07178778  0.91853739  0.21015735  1  -1.164332  0  -0.317719  -0.553624  0  2.355487  0
O  O235  1  0.12051850  0.98254822  0.34667178  1  -1.159434  0  -0.320893  -0.544075  0  2.304517  0
O  O236  1  0.61133143  0.43841052  0.17659411  1  -1.161408  0  -0.317365  -0.53997  0  2.2995  0
O  O237  1  0.66758897  0.51440419  0.31256384  1  -1.183357  0  -0.317373  -0.563875  0  2.353117  0
O  O238  1  0.31380801  0.77891419  0.18466970  1  -1.159949  0  -0.316903  -0.55037  0  2.358928  0
O  O239  1  0.37136706  0.85041997  0.32075629  1  -1.187842  0  -0.317135  -0.556868  0  2.356331  0
