# generated using pymatgen
data_Ni2H18C24N4O9
_symmetry_space_group_name_H-M   'P 1'
_cell_length_a   10.64621460
_cell_length_b   13.84117947
_cell_length_c   19.10516869
_cell_angle_alpha   90.00006290
_cell_angle_beta   89.99995278
_cell_angle_gamma   103.57121116
_symmetry_Int_Tables_number   1
_chemical_formula_structural   Ni2H18C24N4O9
_chemical_formula_sum   'Ni8 H72 C96 N16 O36'
_cell_volume   2736.65950729
_cell_formula_units_Z   4
loop_
 _symmetry_equiv_pos_site_id
 _symmetry_equiv_pos_as_xyz
  1  'x, y, z'
loop_
 _atom_site_type_symbol
 _atom_site_label
 _atom_site_symmetry_multiplicity
 _atom_site_fract_x
 _atom_site_fract_y
 _atom_site_fract_z
 _atom_site_occupancy
 _atom_site_pbe_bader_charge
 _atom_site_pbe_bader_spin_density
 _atom_site_pbe_cm5_charge
 _atom_site_pbe_ddec_charge
 _atom_site_pbe_ddec_spin_density
 _atom_site_pbe_ddec_sum_bond_order
 _atom_site_pbe_magmom
Ni  Ni0  1  0.57771369  0.61028228  0.59420894  1  1.188307  1.560892  0.653199  0.81011  1.76947  2.460891  1.548
Ni  Ni1  1  0.42228667  0.38971822  0.09420860  1  1.188314  1.560891  0.653194  0.81007  1.769467  2.460973  1.548
Ni  Ni2  1  0.22501142  0.04792914  0.45350290  1  1.191424  1.56957  0.649718  0.81582  1.778575  2.431813  1.557
Ni  Ni3  1  0.77498787  0.95206960  0.95350186  1  1.191425  1.569569  0.649697  0.815808  1.778575  2.431819  1.557
Ni  Ni4  1  0.73853012  0.45640794  0.49611550  1  1.192077  1.571301  0.651254  0.816863  1.783368  2.453839  1.558
Ni  Ni5  1  0.26146935  0.54359160  0.99611489  1  1.192051  1.5713  0.651304  0.816935  1.783368  2.453786  1.558
Ni  Ni6  1  0.38543727  0.89397509  0.35575635  1  1.185811  1.5611  0.656819  0.813622  1.769244  2.479619  1.548
Ni  Ni7  1  0.61456025  0.10602353  0.85575680  1  1.185776  1.561106  0.656803  0.813604  1.76925  2.47973  1.548
H  H8  1  0.14936672  0.88881737  0.36857859  1  0.655715  0.000137  0.290464  0.38104  0.000439  0.963269  0.0
H  H9  1  0.85063406  0.11118274  0.86857841  1  0.655711  0.000137  0.290476  0.381039  0.000439  0.963258  0.0
H  H10  1  0.21105290  0.00079137  0.32783584  1  0.651843  -0.000132  0.29009  0.38034  0.00017  0.965476  0.0
H  H11  1  0.78894792  0.99920869  0.82783693  1  0.651854  -0.000132  0.290089  0.380357  0.000169  0.965465  0.0
H  H12  1  0.81397167  0.61528936  0.58226029  1  0.653653  0.000166  0.291745  0.381916  0.000451  0.96043  0.0
H  H13  1  0.18602848  0.38471038  0.08226057  1  0.653656  0.000165  0.291767  0.381935  0.000451  0.960396  0.0
H  H14  1  0.75125830  0.50250787  0.62185374  1  0.660267  -0.000103  0.289758  0.381642  0.000164  0.963327  0.0
H  H15  1  0.24874158  0.49749118  0.12185408  1  0.660265  -0.000103  0.289757  0.381602  0.000164  0.963387  0.0
H  H16  1  0.91263875  0.64080188  0.43810400  1  0.155427  0.002234  0.11946  0.094825  0.000813  1.047769  0.002
H  H17  1  0.08736053  0.35919982  0.93810438  1  0.155451  0.002234  0.119459  0.094811  0.000813  1.047767  0.002
H  H18  1  0.29886355  0.59525876  0.43369485  1  0.081132  0.000213  0.111411  0.115645  6.9e-05  1.014365  0.0
H  H19  1  0.70113573  0.40474293  0.93369445  1  0.081125  0.000213  0.111419  0.11565  6.9e-05  1.014326  0.0
H  H20  1  0.21335109  0.43299268  0.49572461  1  0.081998  0.001139  0.105671  0.111511  0.000503  1.018001  0.001
H  H21  1  0.78665024  0.56700983  0.99572326  1  0.081978  0.001139  0.105663  0.111487  0.000503  1.018021  0.001
H  H22  1  0.97566036  0.38111227  0.52255590  1  0.129128  0.002013  0.117582  0.09622  0.000694  1.013044  0.001
H  H23  1  0.02433960  0.61888962  0.02255539  1  0.129086  0.002012  0.117588  0.096206  0.000694  1.013016  0.001
H  H24  1  0.05311627  0.87244523  0.52007583  1  0.148671  0.002144  0.118681  0.091978  0.000791  1.06158  0.002
H  H25  1  0.94688371  0.12755368  0.02007503  1  0.14868  0.002143  0.118689  0.091985  0.000792  1.061554  0.002
H  H26  1  0.65912334  0.89619828  0.49373361  1  0.147399  0.00019  0.111317  0.116104  2.3e-05  1.022055  0.0
H  H27  1  0.34087567  0.10379977  0.99373314  1  0.147406  0.00019  0.111318  0.116089  2.3e-05  1.022094  0.0
H  H28  1  0.74461025  0.05024951  0.42396470  1  0.086163  0.001141  0.105388  0.111681  0.000486  1.022532  0.001
H  H29  1  0.25538884  0.94974845  0.92396442  1  0.086149  0.001141  0.105376  0.111654  0.000486  1.022558  0.001
H  H30  1  0.98572869  0.11102670  0.40898077  1  0.139574  0.002109  0.11827  0.0973  0.000752  1.008291  0.001
H  H31  1  0.01427111  0.88897347  0.90898002  1  0.139555  0.002109  0.11825  0.097299  0.000751  1.008299  0.001
H  H32  1  0.69623618  0.77625765  0.68965802  1  0.159139  0.00224  0.119438  0.100383  0.000794  1.019857  0.002
H  H33  1  0.30376433  0.22374074  0.18965812  1  0.159118  0.00224  0.119426  0.100357  0.000794  1.019845  0.002
H  H34  1  0.68754846  0.65830821  0.89834444  1  0.125855  0.000167  0.109627  0.110438  -1.1e-05  1.010793  0.0
H  H35  1  0.31245018  0.34169120  0.39834410  1  0.125869  0.000167  0.109636  0.110456  -1.1e-05  1.010775  0.0
H  H36  1  0.57515558  0.49080038  0.84895410  1  0.105124  0.001185  0.108194  0.116304  0.000559  1.00863  0.001
H  H37  1  0.42484476  0.50919822  0.34895279  1  0.105149  0.001185  0.1082  0.116317  0.000559  1.008671  0.001
H  H38  1  0.53479091  0.47644632  0.71940957  1  0.148401  0.002104  0.11971  0.096964  0.000746  1.010363  0.002
H  H39  1  0.46520886  0.52355286  0.21940931  1  0.148394  0.002104  0.119727  0.096975  0.000746  1.010382  0.002
H  H40  1  0.57561795  0.26378312  0.46914056  1  0.161185  0.00215  0.121668  0.095011  0.000766  1.063094  0.002
H  H41  1  0.42438107  0.73621787  0.96914055  1  0.161179  0.002149  0.121683  0.094975  0.000766  1.063153  0.002
H  H42  1  0.69115362  0.14173238  0.27912489  1  0.081445  0.00026  0.112603  0.114337  5.8e-05  0.985026  0.0
H  H43  1  0.30884655  0.85826836  0.77912503  1  0.081435  0.00026  0.112605  0.114351  5.8e-05  0.98503  0.0
H  H44  1  0.86649405  0.29929849  0.26761650  1  0.080696  0.001432  0.107994  0.111563  0.000691  1.010176  0.001
H  H45  1  0.13350706  0.70070223  0.76761608  1  0.08071  0.001432  0.107975  0.11155  0.000691  1.010123  0.001
H  H46  1  0.87756249  0.43451222  0.35598165  1  0.101069  0.0021  0.119898  0.088878  0.000728  0.99322  0.001
H  H47  1  0.12243947  0.56548862  0.85598060  1  0.101084  0.0021  0.1199  0.088886  0.000728  0.993224  0.001
H  H48  1  0.51320898  0.78421078  0.53651050  1  0.163309  0.002147  0.119385  0.090493  0.000783  1.072124  0.002
H  H49  1  0.48679216  0.21578890  0.03651104  1  0.163342  0.002147  0.11936  0.090447  0.000783  1.072164  0.002
H  H50  1  0.12040815  0.78540553  0.59159307  1  0.137794  0.000241  0.110058  0.117413  5.8e-05  1.024627  0.0
H  H51  1  0.87959432  0.21459570  0.09159237  1  0.137776  0.000241  0.110065  0.117402  5.8e-05  1.024619  0.0
H  H52  1  0.11121608  0.62763088  0.65665813  1  0.082405  0.001543  0.110944  0.11684  0.00073  0.982575  0.001
H  H53  1  0.88878422  0.37236970  0.15665807  1  0.082394  0.001543  0.110943  0.116807  0.00073  0.982605  0.001
H  H54  1  0.31013462  0.55899192  0.66211731  1  0.074018  0.001984  0.117463  0.085508  0.000686  1.010757  0.001
H  H55  1  0.68986544  0.44100792  0.16211793  1  0.073996  0.001984  0.117467  0.085524  0.000686  1.010746  0.001
H  H56  1  0.69598842  0.27548412  0.75957607  1  0.154547  0.002227  0.120129  0.101517  0.000772  1.014788  0.002
H  H57  1  0.30401083  0.72451659  0.25957552  1  0.154555  0.002227  0.120133  0.101533  0.000772  1.014786  0.002
H  H58  1  0.69996904  0.16092256  0.55045356  1  0.075581  0.000159  0.109777  0.112461  -8e-06  1.006312  0.0
H  H59  1  0.30003020  0.83907714  0.05045363  1  0.075581  0.000159  0.109781  0.112466  -8e-06  1.006304  0.0
H  H60  1  0.62845565  0.98774725  0.60136945  1  0.08865  0.001178  0.109002  0.118907  0.000522  1.003102  0.001
H  H61  1  0.37154424  0.01225177  0.10136987  1  0.088656  0.001178  0.108989  0.11887  0.000522  1.00316  0.001
H  H62  1  0.59918075  0.97006982  0.73133375  1  0.14857  0.002165  0.119708  0.097298  0.000748  1.013197  0.002
H  H63  1  0.40082111  0.02993011  0.23133365  1  0.148563  0.002165  0.119706  0.097277  0.000748  1.013254  0.002
H  H64  1  0.39801574  0.23292419  0.48701795  1  0.150893  0.002004  0.121122  0.09411  0.000685  1.074554  0.002
H  H65  1  0.60198397  0.76707609  0.98701631  1  0.150889  0.002003  0.121123  0.094129  0.000685  1.074554  0.002
H  H66  1  0.25421919  0.37301313  0.66083697  1  0.083967  0.000246  0.111858  0.112267  5.5e-05  0.992933  0.0
H  H67  1  0.74577713  0.62698375  0.16083613  1  0.083941  0.000246  0.111847  0.112213  5.4e-05  0.992885  0.0
H  H68  1  0.06880792  0.22075560  0.66785494  1  0.083879  0.001477  0.112657  0.118977  0.000698  0.984521  0.001
H  H69  1  0.93119028  0.77924128  0.16785467  1  0.084026  0.001477  0.112649  0.11897  0.000698  0.984525  0.001
H  H70  1  0.06556955  0.07999710  0.58548922  1  0.109758  0.00199  0.120333  0.088437  0.000686  0.997439  0.001
H  H71  1  0.93443107  0.92000115  0.08548906  1  0.109384  0.00199  0.120321  0.088415  0.000686  0.997424  0.001
H  H72  1  0.45622578  0.72795083  0.42264497  1  0.159914  0.002241  0.120706  0.091911  0.000771  1.062356  0.002
H  H73  1  0.54377283  0.27204862  0.92264612  1  0.159902  0.002241  0.120683  0.091801  0.000771  1.062422  0.002
H  H74  1  0.82089878  0.69577541  0.34068538  1  0.093257  0.000279  0.111139  0.115293  8.7e-05  1.000658  0.0
H  H75  1  0.17910109  0.30422467  0.84068567  1  0.093244  0.000279  0.111135  0.115279  8.7e-05  1.000668  0.0
H  H76  1  0.82468701  0.84675059  0.26648144  1  0.09069  0.001423  0.107517  0.11135  0.000686  1.003368  0.001
H  H77  1  0.17531293  0.15324939  0.76648213  1  0.090689  0.001423  0.107509  0.111357  0.000686  1.003407  0.001
H  H78  1  0.63764038  0.92808111  0.27329014  1  0.096291  0.002103  0.120716  0.091432  0.00074  0.991611  0.001
H  H79  1  0.36235956  0.07191888  0.77329121  1  0.096299  0.002103  0.120729  0.091443  0.00074  0.991614  0.001
C  C80  1  0.98156447  0.59611871  0.44906749  1  0.494272  -0.003426  0.054287  0.081305  -0.004416  3.900702  -0.002
C  C81  1  0.01843691  0.40388374  0.94906636  1  0.494278  -0.003426  0.054282  0.081367  -0.004417  3.900783  -0.002
C  C82  1  0.11079990  0.62956975  0.42975513  1  -0.024184  0.01218  -0.013599  -0.080345  0.007131  3.956838  0.01
C  C83  1  0.88920033  0.37043193  0.92975515  1  -0.024122  0.01218  -0.013619  -0.080432  0.007131  3.956932  0.01
C  C84  1  0.19669382  0.57049810  0.44648826  1  -0.004496  -0.007528  -0.058865  -0.034851  -0.008425  3.911983  -0.005
C  C85  1  0.80330639  0.42950361  0.94648626  1  -0.004569  -0.007528  -0.058861  -0.034829  -0.008425  3.911985  -0.005
C  C86  1  0.14950018  0.48060123  0.48098675  1  -0.030934  0.005938  -0.086028  -0.130311  0.003234  3.98865  0.005
C  C87  1  0.85049883  0.51939978  0.98098638  1  -0.030926  0.005938  -0.086011  -0.13028  0.003235  3.988656  0.005
C  C88  1  0.01838623  0.45138419  0.49673172  1  0.468543  -0.004728  0.046783  0.08195  -0.005554  3.936925  -0.003
C  C89  1  0.98161532  0.54861906  0.99673079  1  0.468464  -0.004729  0.046785  0.082004  -0.005554  3.936825  -0.003
C  C90  1  0.15366080  0.72852321  0.39349325  1  1.583849  0.000305  0.210637  0.574191  -0.00025  4.20243  0.0
C  C91  1  0.84633899  0.27147991  0.89349320  1  1.583862  0.000305  0.210618  0.574199  -0.000249  4.202396  0.0
C  C92  1  0.98160768  0.91016403  0.50064057  1  0.491838  -0.003339  0.054591  0.081979  -0.00428  3.900555  -0.002
C  C93  1  0.01839372  0.08983634  0.00063965  1  0.491863  -0.003339  0.054602  0.082053  -0.00428  3.900508  -0.002
C  C94  1  0.85039812  0.87210809  0.51348528  1  0.020518  0.011768  -0.012393  -0.077322  0.006897  3.951057  0.009
C  C95  1  0.14960258  0.12789007  0.01348485  1  0.02054  0.011767  -0.012346  -0.077371  0.006897  3.951094  0.009
C  C96  1  0.76280199  0.92347843  0.48610844  1  -0.076294  -0.007498  -0.060653  -0.044449  -0.008341  3.921995  -0.005
C  C97  1  0.23719891  0.07651961  0.98610799  1  -0.076582  -0.007498  -0.060627  -0.044386  -0.008341  3.921973  -0.005
C  C98  1  0.81015558  0.00966848  0.44733635  1  -0.012977  0.005869  -0.085827  -0.128749  0.003277  3.982386  0.005
C  C99  1  0.18984255  0.99032951  0.94733561  1  -0.012704  0.005868  -0.085844  -0.12875  0.003277  3.982305  0.005
C  C100  1  0.94297246  0.04357773  0.43811632  1  0.392904  -0.00429  0.048347  0.08531  -0.005086  3.926425  -0.003
C  C101  1  0.05702684  0.95642099  0.93811614  1  0.392861  -0.004289  0.04834  0.085299  -0.005085  3.926418  -0.003
C  C102  1  0.80835850  0.77632856  0.55393242  1  1.581129  0.000454  0.211369  0.574141  -0.000122  4.196443  0.0
C  C103  1  0.19164261  0.22367113  0.05392838  1  1.581058  0.000454  0.211315  0.57414  -0.000122  4.196421  0.0
C  C104  1  0.67234334  0.71458285  0.72645537  1  0.471591  -0.002925  0.053246  0.074125  -0.003786  3.89888  -0.002
C  C105  1  0.32765852  0.28541707  0.22645551  1  0.471608  -0.002925  0.053257  0.074183  -0.003786  3.898839  -0.002
C  C106  1  0.70200902  0.72910324  0.79740528  1  -0.028263  0.010868  -0.015872  -0.079637  0.006353  3.962764  0.009
C  C107  1  0.29799183  0.27089678  0.29740490  1  -0.028261  0.010868  -0.015878  -0.07963  0.006353  3.962779  0.009
C  C108  1  0.66688757  0.64771482  0.84269719  1  -0.067236  -0.006896  -0.059734  -0.035486  -0.007708  3.920095  -0.004
C  C109  1  0.33311324  0.35228526  0.34269685  1  -0.067278  -0.006896  -0.059752  -0.03548  -0.007709  3.9201  -0.004
C  C110  1  0.60493743  0.55567102  0.81538257  1  -0.035473  0.006222  -0.081268  -0.119862  0.003446  3.963446  0.005
C  C111  1  0.39506152  0.44432902  0.31538228  1  -0.035459  0.006222  -0.081269  -0.119917  0.003446  3.963512  0.005
C  C112  1  0.58091557  0.54699242  0.74374803  1  0.462523  -0.003853  0.051784  0.101598  -0.004506  3.909586  -0.003
C  C113  1  0.41908440  0.45300753  0.24374826  1  0.462518  -0.003853  0.051767  0.101614  -0.004506  3.909606  -0.003
C  C114  1  0.76429273  0.83127801  0.82432316  1  1.588919  0.00322  0.206564  0.575222  0.00223  4.210246  0.002
C  C115  1  0.23570527  0.16872205  0.32432272  1  1.588928  0.00322  0.20653  0.575064  0.00223  4.21044  0.002
C  C116  1  0.63573312  0.26895537  0.42283894  1  0.487928  -0.005411  0.056335  0.082426  -0.006482  3.889868  -0.004
C  C117  1  0.36426806  0.73104630  0.92283948  1  0.487863  -0.005411  0.056357  0.08251  -0.006483  3.889862  -0.004
C  C118  1  0.61733740  0.19164548  0.37427404  1  -0.054046  0.018528  -0.013695  -0.082915  0.010881  3.965038  0.015
C  C119  1  0.38266266  0.80835539  0.87427464  1  -0.054072  0.018527  -0.013752  -0.082968  0.01088  3.965136  0.015
C  C120  1  0.70205155  0.20158159  0.31737110  1  0.038908  -0.007723  -0.062837  -0.046038  -0.008722  3.943426  -0.005
C  C121  1  0.29794951  0.79841920  0.81737121  1  0.038891  -0.007723  -0.062806  -0.046026  -0.008722  3.943534  -0.005
C  C122  1  0.79820177  0.28890566  0.31088125  1  -0.05459  0.006436  -0.087622  -0.137926  0.003573  4.009448  0.005
C  C123  1  0.20179952  0.71109587  0.81088185  1  -0.054584  0.006436  -0.087645  -0.137949  0.003573  4.009484  0.005
C  C124  1  0.80585083  0.36415383  0.36027315  1  0.466995  -0.005744  0.052026  0.091476  -0.006694  3.93494  -0.004
C  C125  1  0.19415090  0.63584627  0.86027212  1  0.467551  -0.005747  0.05201  0.091428  -0.006694  3.935035  -0.004
C  C126  1  0.50623371  0.10230956  0.38419386  1  1.604419  0.000453  0.214802  0.582009  9e-06  4.185959  0.0
C  C127  1  0.49376446  0.89769132  0.88419448  1  1.604409  0.000454  0.214907  0.582082  9e-06  4.185922  0.0
C  C128  1  0.32008638  0.79925685  0.55959541  1  0.06483  0.016857  -0.012765  -0.075962  0.009903  3.949502  0.013
C  C129  1  0.67991331  0.20074435  0.05959531  1  0.064804  0.016857  -0.012764  -0.075999  0.009903  3.949535  0.013
C  C130  1  0.42343066  0.75356764  0.56382406  1  0.48379  -0.003563  0.052423  0.078221  -0.004488  3.899413  -0.003
C  C131  1  0.57657019  0.24643430  0.06382458  1  0.483572  -0.003563  0.052467  0.078343  -0.004489  3.899372  -0.003
C  C132  1  0.20561597  0.75479377  0.59460008  1  -0.132636  -0.006779  -0.062487  -0.044153  -0.007718  3.914963  -0.004
C  C133  1  0.79438533  0.24520673  0.09459945  1  -0.132669  -0.006779  -0.062464  -0.044105  -0.007719  3.914925  -0.004
C  C134  1  0.20031516  0.66668991  0.63123202  1  -0.100683  0.006569  -0.08645  -0.13623  0.003627  4.006955  0.005
C  C135  1  0.79968539  0.33331137  0.13123197  1  -0.100649  0.00657  -0.086473  -0.136216  0.003627  4.00697  0.005
C  C136  1  0.30920506  0.62734323  0.63403541  1  0.560738  -0.004381  0.047887  0.085151  -0.005057  3.949663  -0.003
C  C137  1  0.69079503  0.37265658  0.13403545  1  0.56075  -0.00438  0.047867  0.085089  -0.005057  3.94971  -0.003
C  C138  1  0.33425605  0.88819483  0.51215435  1  1.58733  0.005865  0.214224  0.587292  0.004695  4.183231  0.004
C  C139  1  0.66574369  0.11180631  0.01215472  1  1.587778  0.005864  0.214248  0.587324  0.004695  4.18325  0.004
C  C140  1  0.68305383  0.21362750  0.72292943  1  0.460454  -0.003669  0.051899  0.071286  -0.004727  3.903251  -0.003
C  C141  1  0.31694593  0.78637168  0.22292892  1  0.460429  -0.003669  0.051899  0.071272  -0.004727  3.903288  -0.003
C  C142  1  0.70396072  0.23074866  0.65148279  1  0.029565  0.011587  -0.015751  -0.078288  0.006793  3.96575  0.009
C  C143  1  0.29603819  0.76925043  0.15148280  1  0.029542  0.011586  -0.015785  -0.078388  0.006792  3.965896  0.009
C  C144  1  0.68475277  0.14866210  0.60644626  1  0.007729  -0.007553  -0.061855  -0.041843  -0.008466  3.928401  -0.005
C  C145  1  0.31524664  0.85133841  0.10644633  1  0.007471  -0.007554  -0.061837  -0.041808  -0.008466  3.928391  -0.005
C  C146  1  0.64544997  0.05354534  0.63451769  1  -0.043844  0.006426  -0.083404  -0.126004  0.003614  3.970636  0.005
C  C147  1  0.35454941  0.94645522  0.13451782  1  -0.043578  0.006427  -0.083392  -0.125976  0.003614  3.970656  0.005
C  C148  1  0.62780537  0.04276710  0.70659191  1  0.423404  -0.004412  0.05198  0.10411  -0.005131  3.908709  -0.003
C  C149  1  0.37219675  0.95723354  0.20659203  1  0.423381  -0.004412  0.051965  0.104135  -0.005131  3.908752  -0.003
C  C150  1  0.74157569  0.33544219  0.62400649  1  1.603749  0.001854  0.206185  0.572389  0.0011  4.211231  0.001
C  C151  1  0.25842557  0.66455835  0.12400748  1  1.60372  0.001854  0.206169  0.572417  0.001099  4.211284  0.001
C  C152  1  0.32895141  0.23325893  0.52871453  1  0.548376  -0.004955  0.055866  0.082031  -0.005933  3.887184  -0.003
C  C153  1  0.67104904  0.76673851  0.02871385  1  0.548311  -0.004955  0.055839  0.081966  -0.005932  3.887201  -0.003
C  C154  1  0.34204743  0.31411874  0.57397038  1  -0.074745  0.018327  -0.013328  -0.081914  0.010728  3.959381  0.014
C  C155  1  0.65795085  0.68588099  0.07396911  1  -0.074906  0.018327  -0.0133  -0.08183  0.010727  3.959609  0.014
C  C156  1  0.24711684  0.31053868  0.62515864  1  -0.009413  -0.00724  -0.063251  -0.050488  -0.008187  3.953225  -0.004
C  C157  1  0.75288163  0.68945889  0.12515628  1  -0.00947  -0.00724  -0.063283  -0.050431  -0.008187  3.953383  -0.004
C  C158  1  0.14555359  0.22621144  0.62928788  1  -0.043765  0.006188  -0.085299  -0.140308  0.003439  4.011139  0.005
C  C159  1  0.85444371  0.77378539  0.12928659  1  -0.043903  0.006188  -0.085257  -0.140333  0.003438  4.011152  0.005
C  C160  1  0.14236228  0.14766801  0.58308988  1  0.47734  -0.005212  0.052433  0.092089  -0.006065  3.935056  -0.003
C  C161  1  0.85763694  0.85232875  0.08308918  1  0.478068  -0.005211  0.052435  0.092096  -0.006064  3.934989  -0.003
C  C162  1  0.45702899  0.40119366  0.56573701  1  1.608518  0.000388  0.216059  0.584996  -7e-06  4.186702  0.0
C  C163  1  0.54297000  0.59880531  0.06573625  1  1.608161  0.000387  0.216041  0.58489  -7e-06  4.186843  0.0
C  C164  1  0.53824561  0.75056495  0.38779471  1  0.485567  -0.004604  0.054082  0.07932  -0.005546  3.903151  -0.003
C  C165  1  0.46175281  0.24943371  0.88779639  1  0.485622  -0.004605  0.054161  0.079517  -0.005546  3.903093  -0.003
C  C166  1  0.63582007  0.69877467  0.38647827  1  -0.042241  0.016851  -0.013923  -0.081447  0.009894  3.958508  0.013
C  C167  1  0.36417904  0.30122622  0.88647899  1  -0.04217  0.016851  -0.013981  -0.081561  0.009894  3.958521  0.013
C  C168  1  0.74103515  0.73260964  0.34174063  1  0.002681  -0.007289  -0.060622  -0.038029  -0.008252  3.914323  -0.005
C  C169  1  0.25896401  0.26739119  0.84174137  1  0.002615  -0.007289  -0.06063  -0.038004  -0.008253  3.914347  -0.005
C  C170  1  0.74337336  0.81646871  0.30078577  1  -0.056742  0.006571  -0.085003  -0.131865  0.003614  3.99716  0.005
C  C171  1  0.25662538  0.18353058  0.80078698  1  -0.056686  0.006571  -0.084981  -0.131864  0.003614  3.997187  0.005
C  C172  1  0.64053681  0.86262240  0.30440473  1  0.499622  -0.004918  0.049807  0.087011  -0.005733  3.939817  -0.003
C  C173  1  0.35946358  0.13737614  0.80440637  1  0.499311  -0.004919  0.049838  0.087073  -0.005734  3.939773  -0.003
C  C174  1  0.62655306  0.61387876  0.43701221  1  1.591567  0.004947  0.212149  0.578907  0.003949  4.200633  0.003
C  C175  1  0.37344693  0.38612219  0.93701247  1  1.59158  0.004947  0.212147  0.578943  0.003948  4.200655  0.003
N  N176  1  0.93533883  0.50825757  0.48077407  1  -1.230604  0.083482  -0.326733  -0.234346  0.048026  3.587379  0.074
N  N177  1  0.06466322  0.49174418  0.98077456  1  -1.230527  0.083481  -0.326761  -0.23442  0.048026  3.58746  0.074
N  N178  1  0.02772657  0.99472673  0.46491332  1  -1.207937  0.082408  -0.325074  -0.230836  0.047471  3.588307  0.074
N  N179  1  0.97227317  0.00527352  0.96491301  1  -1.207916  0.082408  -0.325092  -0.23089  0.047472  3.588338  0.074
N  N180  1  0.61385240  0.62532435  0.69995519  1  -1.213758  0.084257  -0.325421  -0.231488  0.048447  3.591867  0.075
N  N181  1  0.38614855  0.37467554  0.19995537  1  -1.213765  0.084256  -0.325434  -0.231525  0.048447  3.591854  0.075
N  N182  1  0.72634320  0.35393441  0.41593611  1  -1.209628  0.076106  -0.318089  -0.207016  0.043939  3.562202  0.068
N  N183  1  0.27365565  0.64606577  0.91593558  1  -1.2101  0.076109  -0.318055  -0.206973  0.043939  3.562161  0.068
N  N184  1  0.41957516  0.67060278  0.60078157  1  -1.221468  0.078675  -0.324687  -0.212329  0.045453  3.582837  0.07
N  N185  1  0.58042636  0.32939846  0.10078215  1  -1.221241  0.078675  -0.324678  -0.21231  0.045453  3.582819  0.07
N  N186  1  0.64661281  0.12161264  0.75003201  1  -1.226116  0.085491  -0.327008  -0.232907  0.049169  3.600961  0.076
N  N187  1  0.35338809  0.87838732  0.25003104  1  -1.226004  0.085493  -0.326996  -0.232892  0.049169  3.600992  0.076
N  N188  1  0.23245172  0.15136996  0.53305471  1  -1.231201  0.073817  -0.315651  -0.205775  0.042618  3.554584  0.066
N  N189  1  0.76754870  0.84863045  0.03305457  1  -1.231386  0.073815  -0.315625  -0.205716  0.042617  3.554531  0.066
N  N190  1  0.53921713  0.82980174  0.34732035  1  -1.208363  0.079088  -0.32616  -0.215353  0.045597  3.591706  0.07
N  N191  1  0.46078484  0.17019909  0.84732093  1  -1.208139  0.07909  -0.326205  -0.215457  0.045597  3.591743  0.07
O  O192  1  0.27335418  0.75343913  0.37752006  1  -1.152806  0.064454  -0.309068  -0.555949  0.036118  2.413743  0.059
O  O193  1  0.72664565  0.24656100  0.87752058  1  -1.152801  0.064452  -0.309062  -0.555926  0.036117  2.41369  0.059
O  O194  1  0.07106630  0.77964640  0.38239315  1  -1.176872  0.00147  -0.318597  -0.539429  7.8e-05  2.150737  0.001
O  O195  1  0.92893492  0.22035522  0.88239302  1  -1.176847  0.00147  -0.318578  -0.539422  7.8e-05  2.150694  0.001
O  O196  1  0.68882636  0.75182879  0.57040442  1  -1.154911  0.062154  -0.308718  -0.555174  0.034796  2.402957  0.057
O  O197  1  0.31117428  0.24816945  0.07040296  1  -1.154873  0.062154  -0.30871  -0.555149  0.034797  2.402877  0.057
O  O198  1  0.89156011  0.72675325  0.56766374  1  -1.183835  0.001959  -0.313732  -0.539301  0.000452  2.15966  0.002
O  O199  1  0.10844170  0.27324572  0.06766450  1  -1.183773  0.00196  -0.313704  -0.539305  0.000452  2.159628  0.002
O  O200  1  0.79792987  0.83624353  0.88867537  1  -1.159886  0.061651  -0.320203  -0.569278  0.034209  2.367114  0.055
O  O201  1  0.20206901  0.16375661  0.38867494  1  -1.159871  0.061651  -0.320181  -0.56921  0.034209  2.367167  0.055
O  O202  1  0.77588111  0.90440630  0.78274281  1  -1.177225  0.006239  -0.323965  -0.54897  0.002978  2.158782  0.005
O  O203  1  0.22411765  0.09559296  0.28274232  1  -1.177247  0.006239  -0.323936  -0.548884  0.002978  2.158823  0.005
O  O204  1  0.50456171  0.02996106  0.34251244  1  -1.149723  0.071865  -0.309452  -0.552595  0.039979  2.397925  0.066
O  O205  1  0.49544049  0.97004051  0.84251364  1  -1.14964  0.071862  -0.309477  -0.552589  0.03998  2.398021  0.066
O  O206  1  0.42603491  0.10816191  0.43187731  1  -1.156107  0.048354  -0.298306  -0.531665  0.026968  2.366345  0.044
O  O207  1  0.57396321  0.89183904  0.93187841  1  -1.156115  0.048354  -0.298397  -0.53177  0.026968  2.366339  0.044
O  O208  1  0.42207888  0.89941764  0.46596160  1  -1.147272  0.040716  -0.312266  -0.553942  0.021959  2.338719  0.034
O  O209  1  0.57792273  0.10058260  0.96596154  1  -1.147318  0.040716  -0.312329  -0.554015  0.021959  2.338788  0.034
O  O210  1  0.25422892  0.94253434  0.52156179  1  -1.144769  0.084935  -0.309006  -0.541287  0.047032  2.377851  0.078
O  O211  1  0.74577175  0.05746680  0.02156156  1  -1.14514  0.084937  -0.308972  -0.541251  0.047033  2.37782  0.078
O  O212  1  0.76845116  0.34299382  0.55876027  1  -1.163667  0.065728  -0.317501  -0.565797  0.036518  2.403395  0.06
O  O213  1  0.23154853  0.65700737  0.05876022  1  -1.163637  0.065733  -0.317532  -0.56584  0.03652  2.403293  0.06
O  O214  1  0.74185980  0.40682979  0.66569838  1  -1.175226  0.003886  -0.323303  -0.543527  0.001604  2.144498  0.003
O  O215  1  0.25813909  0.59316932  0.16569775  1  -1.175213  0.003886  -0.323236  -0.543455  0.001603  2.144527  0.003
O  O216  1  0.46012300  0.47345658  0.60765502  1  -1.156148  0.071325  -0.307006  -0.549366  0.039534  2.413705  0.066
O  O217  1  0.53987430  0.52654320  0.10765472  1  -1.155587  0.071322  -0.306979  -0.549321  0.039534  2.4138  0.066
O  O218  1  0.53797936  0.39415719  0.51875389  1  -1.149448  0.049464  -0.29785  -0.533409  0.027601  2.364533  0.045
O  O219  1  0.46201921  0.60584321  0.01875213  1  -1.149479  0.049467  -0.297873  -0.533397  0.027602  2.364555  0.045
O  O220  1  0.54052974  0.60377587  0.48410471  1  -1.167314  0.040555  -0.313278  -0.553849  0.021948  2.342906  0.035
O  O221  1  0.45946997  0.39622440  0.98410495  1  -1.167334  0.040555  -0.313278  -0.55385  0.021949  2.342887  0.035
O  O222  1  0.70837150  0.56085181  0.42834907  1  -1.139259  0.082288  -0.30882  -0.543861  0.045658  2.39837  0.076
O  O223  1  0.29162944  0.43914913  0.92834889  1  -1.139292  0.082288  -0.308817  -0.54388  0.045657  2.398433  0.076
O  O224  1  0.22159811  0.95278536  0.36752443  1  -1.245867  0.117729  -0.55288  -0.7652  0.067552  2.431311  0.106
O  O225  1  0.77840219  0.04721624  0.86752476  1  -1.245867  0.117729  -0.552881  -0.765199  0.067552  2.431278  0.106
O  O226  1  0.74214918  0.55159642  0.58249896  1  -1.252703  0.116012  -0.552922  -0.76617  0.066546  2.427301  0.104
O  O227  1  0.25785049  0.44840481  0.08249821  1  -1.252717  0.116013  -0.552956  -0.766166  0.066547  2.427356  0.104
