# generated using pymatgen
data_TlBH12(C3N2)4
_symmetry_space_group_name_H-M   'P 1'
_cell_length_a   8.42998768
_cell_length_b   8.95200859
_cell_length_c   10.18053765
_cell_angle_alpha   92.84110405
_cell_angle_beta   99.46666174
_cell_angle_gamma   104.85190142
_symmetry_Int_Tables_number   1
_chemical_formula_structural   TlBH12(C3N2)4
_chemical_formula_sum   'Tl2 B2 H24 C24 N16'
_cell_volume   729.09971032
_cell_formula_units_Z   2
loop_
 _symmetry_equiv_pos_site_id
 _symmetry_equiv_pos_as_xyz
  1  'x, y, z'
loop_
 _atom_site_type_symbol
 _atom_site_label
 _atom_site_symmetry_multiplicity
 _atom_site_fract_x
 _atom_site_fract_y
 _atom_site_fract_z
 _atom_site_occupancy
 _atom_site_pbe_bader_spin_density
 _atom_site_pbe_cm5_charge
 _atom_site_pbe_ddec_charge
 _atom_site_pbe_ddec_spin_density
 _atom_site_pbe_ddec_sum_bond_order
 _atom_site_pbe_magmom
Tl  Tl0  1  0.54460294  0.81674818  0.61688937  1  0  0.35589  0.501155  0  1.21037  0
Tl  Tl1  1  0.45539218  0.18324752  0.38310838  1  0  0.355877  0.501116  0  1.21041  0
B  B2  1  0.09720668  0.21635557  0.77890299  1  0  0.107918  0.531052  0  3.321293  0
B  B3  1  0.90279128  0.78364595  0.22109735  1  0  0.107904  0.531117  0  3.321209  0
H  H4  1  0.35121563  0.51471478  0.80829795  1  0  0.128266  0.086981  0  1.043439  0
H  H5  1  0.64878214  0.48529022  0.19170152  1  0  0.128224  0.086943  0  1.04356  0
H  H6  1  0.23662570  0.44627206  0.38850883  1  0  0.110466  0.098949  0  1.044403  0
H  H7  1  0.76336812  0.55371900  0.61148658  1  0  0.110466  0.098955  0  1.044447  0
H  H8  1  0.04657411  0.19316357  0.49050214  1  0  0.116852  0.110139  0  1.042769  0
H  H9  1  0.95342918  0.80682289  0.50949837  1  0  0.116861  0.110184  0  1.042736  0
H  H10  1  0.31125969  0.09702750  0.97651185  1  0  0.129591  0.089183  0  1.020317  0
H  H11  1  0.68874035  0.90297287  0.02348874  1  0  0.129615  0.089202  0  1.020366  0
H  H12  1  0.32850946  0.51151555  0.19921300  1  0  0.108453  0.104436  0  1.053273  0
H  H13  1  0.67149882  0.48848831  0.80078595  1  0  0.108478  0.104437  0  1.053338  0
H  H14  1  0.12271775  0.49108097  0.95389133  1  0  0.116419  0.10413  0  1.036204  0
H  H15  1  0.87729324  0.50892407  0.04611198  1  0  0.116442  0.104197  0  1.036018  0
H  H16  1  0.34695071  0.11609835  0.66811239  1  0  0.125229  0.079342  0  1.069824  0
H  H17  1  0.65304353  0.88389851  0.33188626  1  0  0.125239  0.079398  0  1.06972  0
H  H18  1  0.08479603  0.68144546  0.76545940  1  0  0.109442  0.099873  0  1.017431  0
H  H19  1  0.91520092  0.31855259  0.23454362  1  0  0.109423  0.099894  0  1.017479  0
H  H20  1  0.91626028  0.89895103  0.82084903  1  0  0.113118  0.102238  0  1.070055  0
H  H21  1  0.08373582  0.10104816  0.17915096  1  0  0.113133  0.102258  0  1.070067  0
H  H22  1  0.83627484  0.27330952  0.57121175  1  0  0.125016  0.084923  0  1.044161  0
H  H23  1  0.16372556  0.72669200  0.42878501  1  0  0.125024  0.084909  0  1.044165  0
H  H24  1  0.55697405  0.16611463  0.87683060  1  0  0.105862  0.095024  0  1.036864  0
H  H25  1  0.44302920  0.83389270  0.12316876  1  0  0.105856  0.09505  0  1.0369  0
H  H26  1  0.87934686  0.15236166  0.96944003  1  0  0.10905  0.092835  0  1.078162  0
H  H27  1  0.12065539  0.84764219  0.03056004  1  0  0.10904  0.092795  0  1.078217  0
C  C28  1  0.29383334  0.46333386  0.70749679  1  0  0.142127  0.140907  0  3.923813  0
C  C29  1  0.70615970  0.53666300  0.29250070  1  0  0.142174  0.140968  0  3.923936  0
C  C30  1  0.23269157  0.42304796  0.49156053  1  0  -0.010892  -0.051903  0  4.049575  0
C  C31  1  0.76730563  0.57694659  0.50843746  1  0  -0.010881  -0.051866  0  4.049661  0
C  C32  1  0.13658995  0.29735136  0.54104259  1  0  -0.003579  -0.087918  0  3.982367  0
C  C33  1  0.86340693  0.70264203  0.45895433  1  0  -0.003578  -0.087982  0  3.982527  0
C  C34  1  0.29030540  0.20758393  0.00554882  1  0  0.132249  0.119687  0  3.98023  0
C  C35  1  0.70969532  0.79241875  0.99445098  1  0  0.132346  0.119806  0  3.98009  0
C  C36  1  0.29331834  0.41999813  0.11751308  1  0  -0.0151  -0.047906  0  4.024124  0
C  C37  1  0.70669542  0.58000808  0.88248773  1  0  -0.015104  -0.047845  0  4.024299  0
C  C38  1  0.19142308  0.41212076  0.99547414  1  0  -0.003446  -0.072196  0  3.960663  0
C  C39  1  0.80857774  0.58788658  0.00452782  1  0  -0.003574  -0.07241  0  3.960887  0
C  C40  1  0.25231110  0.02517753  0.69984305  1  0  0.132032  0.110407  0  3.984146  0
C  C41  1  0.74768349  0.97482049  0.30015471  1  0  0.131941  0.110265  0  3.984353  0
C  C42  1  0.11604470  0.80485828  0.75380681  1  0  -0.010756  -0.033523  0  4.029871  0
C  C43  1  0.88395060  0.19514674  0.24619919  1  0  -0.010857  -0.033836  0  4.029969  0
C  C44  1  0.03025784  0.91147607  0.78117989  1  0  -0.006577  -0.084432  0  3.951122  0
C  C45  1  0.96974096  0.08852431  0.21882544  1  0  -0.006559  -0.084333  0  3.950932  0
C  C46  1  0.80139086  0.24044679  0.66585030  1  0  0.129007  0.11699  0  3.976994  0
C  C47  1  0.19861140  0.75955705  0.33414780  1  0  0.129033  0.117124  0  3.976896  0
C  C48  1  0.66163953  0.18356474  0.82462414  1  0  -0.01893  -0.051768  0  4.067955  0
C  C49  1  0.33836338  0.81644143  0.17537611  1  0  -0.018851  -0.051759  0  4.06798  0
C  C50  1  0.82165711  0.17635324  0.87248226  1  0  -0.006895  -0.076996  0  3.970851  0
C  C51  1  0.17834295  0.82364713  0.12751637  1  0  -0.0069  -0.076954  0  3.970854  0
N  N52  1  0.33101854  0.52586832  0.59691345  1  0  -0.335475  -0.287087  0  3.371683  0
N  N53  1  0.66897745  0.47412624  0.40308535  1  0  -0.335478  -0.287115  0  3.371638  0
N  N54  1  0.17570334  0.32383258  0.67929665  1  0  -0.232813  -0.213185  0  3.713409  0
N  N55  1  0.82429628  0.67616197  0.32070071  1  0  -0.23284  -0.213222  0  3.713529  0
N  N56  1  0.35440844  0.29065532  0.12314666  1  0  -0.346151  -0.327873  0  3.383693  0
N  N57  1  0.64559469  0.70934738  0.87685250  1  0  -0.346175  -0.327927  0  3.38373  0
N  N58  1  0.18997531  0.27599951  0.92360977  1  0  -0.234896  -0.214358  0  3.715691  0
N  N59  1  0.81002539  0.72400318  0.07639199  1  0  -0.234878  -0.214361  0  3.715741  0
N  N60  1  0.25497207  0.87733318  0.70262488  1  0  -0.344691  -0.324636  0  3.377385  0
N  N61  1  0.74501691  0.12265787  0.29737280  1  0  -0.344547  -0.324385  0  3.377556  0
N  N62  1  0.11793973  0.05253246  0.74593733  1  0  -0.238161  -0.219924  0  3.720592  0
N  N63  1  0.88205907  0.94746793  0.25406800  1  0  -0.238117  -0.219891  0  3.72059  0
N  N64  1  0.64957702  0.22415234  0.69461582  1  0  -0.35404  -0.362514  0  3.372197  0
N  N65  1  0.35042523  0.77585151  0.30538326  1  0  -0.354091  -0.362595  0  3.372204  0
N  N66  1  0.91140265  0.21291664  0.77060346  1  0  -0.234589  -0.21202  0  3.696494  0
N  N67  1  0.08859806  0.78708605  0.22939732  1  0  -0.234642  -0.212151  0  3.696518  0
