# generated using pymatgen
data_BaCuH14C10O9
_symmetry_space_group_name_H-M   'P 1'
_cell_length_a   12.99371710
_cell_length_b   15.08653381
_cell_length_c   15.08764453
_cell_angle_alpha   112.10161121
_cell_angle_beta   106.68536942
_cell_angle_gamma   106.68666688
_symmetry_Int_Tables_number   1
_chemical_formula_structural   BaCuH14C10O9
_chemical_formula_sum   'Ba6 Cu6 H84 C60 O54'
_cell_volume   2350.36888882
_cell_formula_units_Z   6
loop_
 _symmetry_equiv_pos_site_id
 _symmetry_equiv_pos_as_xyz
  1  'x, y, z'
loop_
 _atom_site_type_symbol
 _atom_site_label
 _atom_site_symmetry_multiplicity
 _atom_site_fract_x
 _atom_site_fract_y
 _atom_site_fract_z
 _atom_site_occupancy
 _atom_site_pbe_bader_charge
 _atom_site_pbe_bader_spin_density
 _atom_site_pbe_cm5_charge
 _atom_site_pbe_ddec_charge
 _atom_site_pbe_ddec_spin_density
 _atom_site_pbe_ddec_sum_bond_order
 _atom_site_pbe_magmom
Ba  Ba0  1  0.29672254  0.67005055  0.29829609  1  1.695987  0.002284  0.952845  1.481611  0.001655  1.571201  0.002
Ba  Ba1  1  0.99839637  0.70164262  0.37164864  1  1.699225  0.002288  0.953099  1.481659  0.001653  1.571531  0.002
Ba  Ba2  1  0.62670612  0.62832842  0.32999197  1  1.697616  0.002286  0.952128  1.480957  0.001658  1.571944  0.002
Ba  Ba3  1  0.70327915  0.32994872  0.70169888  1  1.696088  0.002281  0.952849  1.481617  0.001653  1.571161  0.002
Ba  Ba4  1  0.00160091  0.29835425  0.62834766  1  1.699204  0.002286  0.953064  1.481604  0.001651  1.571565  0.002
Ba  Ba5  1  0.37329116  0.37166844  0.67000498  1  1.697566  0.002284  0.952133  1.480954  0.001655  1.571974  0.002
Cu  Cu6  1  0.29190529  0.50079680  0.48789884  1  1.107818  0.570919  0.740659  0.921782  0.729386  2.174565  0.571
Cu  Cu7  1  0.80374480  0.51204608  0.01289618  1  1.106327  0.570892  0.740356  0.922141  0.730873  2.173958  0.571
Cu  Cu8  1  0.79110633  0.98708954  0.49922059  1  1.100473  0.571065  0.74081  0.923059  0.730188  2.176399  0.571
Cu  Cu9  1  0.70809519  0.49920486  0.51210138  1  1.107862  0.570906  0.740648  0.921741  0.729367  2.174532  0.571
Cu  Cu10  1  0.19625048  0.48794998  0.98710529  1  1.106473  0.570898  0.740336  0.922129  0.730874  2.173949  0.571
Cu  Cu11  1  0.20889056  0.01290493  0.50077869  1  1.100509  0.571055  0.740829  0.9231  0.730183  2.176418  0.571
H  H12  1  0.38350361  0.71194615  0.66486027  1  0.078343  -0.000138  0.092934  0.123304  -0.000216  1.052544  0.0
H  H13  1  0.71849939  0.33502831  0.04698908  1  0.051785  -0.000138  0.092934  0.12296  -0.000217  1.052403  0.0
H  H14  1  0.67170835  0.95299701  0.28813795  1  0.059135  -0.000138  0.093089  0.123472  -0.000216  1.052828  0.0
H  H15  1  0.61650128  0.28805630  0.33514133  1  0.078183  -0.000138  0.09292  0.123258  -0.000216  1.052623  0.0
H  H16  1  0.28150591  0.66497334  0.95300901  1  0.051823  -0.000138  0.092959  0.123043  -0.000217  1.052399  0.0
H  H17  1  0.32829054  0.04700304  0.71186657  1  0.059054  -0.000138  0.093088  0.123449  -0.000217  1.052891  0.0
H  H18  1  0.37956066  0.75599889  0.79081035  1  0.007791  -3.7e-05  0.090422  0.126879  -1.5e-05  1.00503  0.0
H  H19  1  0.58856493  0.20906405  0.96507271  1  0.042745  -3.6e-05  0.090316  0.126837  -1.4e-05  1.004883  0.0
H  H20  1  0.62367552  0.03495899  0.24414969  1  0.037525  -3.6e-05  0.090583  0.1273  -1.4e-05  1.004203  0.0
H  H21  1  0.62044825  0.24400676  0.20919478  1  0.007839  -3.7e-05  0.090462  0.126921  -1.5e-05  1.004989  0.0
H  H22  1  0.41144116  0.79093921  0.03492751  1  0.042729  -3.6e-05  0.090316  0.126869  -1.4e-05  1.004909  0.0
H  H23  1  0.37632938  0.96504027  0.75585271  1  0.037455  -3.6e-05  0.090573  0.127244  -1.4e-05  1.004189  0.0
H  H24  1  0.31132761  0.79433527  0.70069510  1  0.039449  -6.1e-05  0.09284  0.12785  -3.9e-05  1.016114  0.0
H  H25  1  0.61045429  0.29912316  0.09351931  1  0.031785  -6.1e-05  0.092841  0.127731  -3.9e-05  1.015203  0.0
H  H26  1  0.51712739  0.90645382  0.20571605  1  0.028608  -6.1e-05  0.092645  0.127931  -3.9e-05  1.015913  0.0
H  H27  1  0.68867768  0.20566959  0.29930684  1  0.03979  -6.2e-05  0.092825  0.127875  -4e-05  1.01614  0.0
H  H28  1  0.38955341  0.70088009  0.90647997  1  0.031352  -6.2e-05  0.09286  0.127769  -3.9e-05  1.015082  0.0
H  H29  1  0.48287069  0.09354464  0.79428635  1  0.028663  -6.1e-05  0.092588  0.127822  -3.9e-05  1.015819  0.0
H  H30  1  0.17806206  0.67654751  0.79959201  1  0.050451  0.000444  0.090509  0.130398  0.000241  1.019776  0.0
H  H31  1  0.37830727  0.20019758  0.87679093  1  0.063653  0.000441  0.090662  0.130792  0.000241  1.019463  0.0
H  H32  1  0.50167884  0.12316408  0.32352630  1  0.044288  0.000445  0.09049  0.130481  0.00024  1.019563  0.0
H  H33  1  0.82194605  0.32345814  0.20041557  1  0.050538  0.000445  0.090468  0.13033  0.000241  1.019693  0.0
H  H34  1  0.62169402  0.79980248  0.12321353  1  0.063639  0.000441  0.090682  0.130796  0.000241  1.019448  0.0
H  H35  1  0.49832445  0.87683678  0.67647298  1  0.044304  0.000445  0.090485  0.130451  0.00024  1.019616  0.0
H  H36  1  0.04356602  0.59606881  0.67823396  1  0.051316  2.4e-05  0.093087  0.125729  4.8e-05  1.040966  0.0
H  H37  1  0.36509545  0.32150167  0.91767397  1  0.035633  2.7e-05  0.093217  0.126012  4.8e-05  1.039866  0.0
H  H38  1  0.44759731  0.08223472  0.40393455  1  0.038999  2.8e-05  0.092722  0.12542  4.9e-05  1.040651  0.0
H  H39  1  0.95644409  0.40393924  0.32177368  1  0.051228  2.4e-05  0.093116  0.125749  4.8e-05  1.040977  0.0
H  H40  1  0.63490624  0.67849759  0.08232830  1  0.035624  2.7e-05  0.093217  0.125986  4.9e-05  1.039876  0.0
H  H41  1  0.55240036  0.91776774  0.59606461  1  0.039072  2.9e-05  0.092752  0.125435  4.9e-05  1.040694  0.0
H  H42  1  0.12680367  0.73181364  0.71969700  1  0.018794  0.00046  0.088512  0.123726  0.000249  1.018613  0.0
H  H43  1  0.40685209  0.28003049  0.01193666  1  0.042265  0.000451  0.089004  0.124476  0.00025  1.018488  0.0
H  H44  1  0.39510845  0.98797138  0.26821966  1  0.061787  0.000442  0.08904  0.124505  0.000248  1.017868  0.0
H  H45  1  0.87320443  0.26819201  0.28030660  1  0.018524  0.00046  0.088516  0.123637  0.000249  1.018655  0.0
H  H46  1  0.59316083  0.71997516  0.98806812  1  0.042396  0.000451  0.089006  0.124456  0.00025  1.018567  0.0
H  H47  1  0.60488922  0.01202788  0.73177764  1  0.061827  0.000442  0.089049  0.124517  0.000248  1.017812  0.0
H  H48  1  0.13744239  0.28506744  0.18437361  1  0.016752  -2.4e-05  0.093374  0.131852  1.3e-05  1.015165  0.0
H  H49  1  0.95311483  0.81568358  0.10070303  1  0.017781  -2.5e-05  0.09323  0.130912  1.2e-05  1.01466  0.0
H  H50  1  0.85236145  0.89914907  0.71487782  1  0.016509  -2.5e-05  0.09299  0.131151  1.2e-05  1.014532  0.0
H  H51  1  0.86256049  0.71493741  0.81562575  1  0.016855  -2.4e-05  0.093388  0.131885  1.3e-05  1.015145  0.0
H  H52  1  0.04688365  0.18431408  0.89929652  1  0.017943  -2.6e-05  0.093216  0.13088  1.2e-05  1.014679  0.0
H  H53  1  0.14763822  0.10085259  0.28512353  1  0.016491  -2.5e-05  0.092987  0.131122  1.2e-05  1.014507  0.0
H  H54  1  0.16168125  0.31301496  0.31592401  1  0.021472  -0.000662  0.091687  0.10958  -0.000888  1.045891  0.0
H  H55  1  0.84564108  0.68413814  0.99707058  1  0.039955  -0.000651  0.091786  0.109486  -0.000888  1.046557  0.0
H  H56  1  0.84865629  0.00279448  0.68693490  1  0.043009  -0.000652  0.091672  0.109104  -0.00089  1.045684  0.0
H  H57  1  0.83831962  0.68698909  0.68407654  1  0.021446  -0.000661  0.091685  0.109594  -0.000888  1.04591  0.0
H  H58  1  0.15436062  0.31585792  0.00292849  1  0.039964  -0.000651  0.091817  0.109488  -0.000888  1.046535  0.0
H  H59  1  0.15134339  0.99720717  0.31306578  1  0.043036  -0.000652  0.09166  0.109066  -0.00089  1.04574  0.0
H  H60  1  0.17571372  0.20176388  0.23122917  1  0.038388  -5.2e-05  0.091752  0.127944  -1e-05  1.015494  0.0
H  H61  1  0.94455415  0.76875648  0.97057454  1  0.030328  -5.3e-05  0.091631  0.126954  -1e-05  1.016378  0.0
H  H62  1  0.97392024  0.02934314  0.79815636  1  0.054149  -5.1e-05  0.091905  0.12776  -1e-05  1.015681  0.0
H  H63  1  0.82428757  0.79823618  0.76876998  1  0.038384  -5.2e-05  0.091766  0.127954  -1e-05  1.015571  0.0
H  H64  1  0.05544875  0.23124038  0.02942380  1  0.030169  -5.3e-05  0.091633  0.126979  -1e-05  1.01633  0.0
H  H65  1  0.02607623  0.97065532  0.20184233  1  0.0545  -5.1e-05  0.091906  0.127736  -1e-05  1.015675  0.0
H  H66  1  0.46383128  0.34723414  0.23805650  1  0.056478  4.3e-05  0.098423  0.128365  5.8e-05  1.020995  0.0
H  H67  1  0.22569357  0.76186464  0.10921064  1  0.053698  4.1e-05  0.098183  0.128178  5.8e-05  1.021438  0.0
H  H68  1  0.11667391  0.89080818  0.65268722  1  0.051144  4.1e-05  0.098397  0.128642  5.8e-05  1.021806  0.0
H  H69  1  0.53616641  0.65276032  0.76194364  1  0.056403  4.2e-05  0.098396  0.128359  5.8e-05  1.021029  0.0
H  H70  1  0.77431212  0.23813941  0.89078779  1  0.05364  4.1e-05  0.098164  0.128181  5.8e-05  1.021391  0.0
H  H71  1  0.88332738  0.10919188  0.34731590  1  0.051073  4.1e-05  0.098392  0.128683  5.7e-05  1.021785  0.0
H  H72  1  0.31757795  0.29291663  0.13531170  1  0.030538  0.000563  0.091219  0.126611  0.000298  1.013417  0.0
H  H73  1  0.18219654  0.86459546  0.15760983  1  0.031725  0.000567  0.09098  0.126529  0.0003  1.013207  0.0
H  H74  1  0.02478479  0.84234954  0.70704539  1  0.016678  0.000568  0.091103  0.126833  0.000298  1.013357  0.0
H  H75  1  0.68242295  0.70708103  0.86468976  1  0.030501  0.000563  0.091211  0.126588  0.000299  1.0133  0.0
H  H76  1  0.81780474  0.13540460  0.84238733  1  0.031681  0.000566  0.090963  0.126483  0.0003  1.013248  0.0
H  H77  1  0.97521369  0.15764972  0.29295674  1  0.016891  0.000568  0.091141  0.1269  0.000299  1.013299  0.0
H  H78  1  0.35444799  0.22097299  0.20058365  1  0.046465  0.000618  0.088772  0.125363  0.000323  1.002431  0.0
H  H79  1  0.15380378  0.79936818  0.02042768  1  0.012947  0.000633  0.08939  0.126308  0.000323  1.0013  0.0
H  H80  1  0.13352416  0.97956225  0.77894521  1  0.037954  0.000619  0.089145  0.12621  0.000322  1.001851  0.0
H  H81  1  0.64555130  0.77902627  0.79942465  1  0.046578  0.000618  0.088799  0.125379  0.000323  1.002443  0.0
H  H82  1  0.84619871  0.20063428  0.97957334  1  0.01297  0.000633  0.089395  0.126327  0.000323  1.001274  0.0
H  H83  1  0.86647271  0.02044021  0.22105707  1  0.037952  0.00062  0.089159  0.126234  0.000323  1.001874  0.0
H  H84  1  0.02562655  0.49651067  0.21794071  1  0.667796  -1e-06  0.301107  0.396658  4.3e-05  0.942644  0.0
H  H85  1  0.80749083  0.78196286  0.27852698  1  0.640819  -1e-06  0.301046  0.396452  4.4e-05  0.942777  0.0
H  H86  1  0.52894938  0.72137363  0.50340218  1  0.671653  0.0  0.301226  0.397422  4.4e-05  0.941365  0.0
H  H87  1  0.97437312  0.50348939  0.78205871  1  0.6679  -1e-06  0.301081  0.396577  4.3e-05  0.942744  0.0
H  H88  1  0.19250724  0.21803720  0.72146806  1  0.641044  -1e-06  0.301065  0.396509  4.3e-05  0.942689  0.0
H  H89  1  0.47104708  0.27862802  0.49659904  1  0.671671  -0.0  0.30124  0.39746  4.4e-05  0.941313  0.0
H  H90  1  0.10374891  0.53718320  0.34540779  1  0.634519  0.00019  0.302352  0.389194  0.000266  0.95355  0.0
H  H91  1  0.75816568  0.65447382  0.19178415  1  0.637838  0.000186  0.302754  0.389668  0.000267  0.953145  0.0
H  H92  1  0.56647589  0.80814220  0.46268895  1  0.633204  0.000191  0.302636  0.390099  0.000268  0.952552  0.0
H  H93  1  0.89625317  0.46282006  0.65459209  1  0.634653  0.000189  0.302337  0.389168  0.000266  0.953567  0.0
H  H94  1  0.24183921  0.34552544  0.80821161  1  0.637901  0.000186  0.302741  0.389709  0.000266  0.953072  0.0
H  H95  1  0.43352218  0.19185627  0.53730947  1  0.633182  0.000191  0.302617  0.390095  0.000268  0.95256  0.0
C  C96  1  0.23049649  0.53864359  0.66254066  1  1.54568  0.000691  0.239285  0.609668  0.000819  4.073566  0.0
C  C97  1  0.56778855  0.33736176  0.87609643  1  1.555919  0.000696  0.23795  0.607816  0.000821  4.076261  0.0
C  C98  1  0.69189191  0.12384912  0.46136483  1  1.540274  0.000702  0.237778  0.607518  0.000835  4.074461  0.0
C  C99  1  0.76950679  0.46136047  0.33746049  1  1.545683  0.000691  0.239357  0.6098  0.000819  4.073281  0.0
C  C100  1  0.43221192  0.66263990  0.12389914  1  1.555876  0.000696  0.237865  0.607676  0.000822  4.076496  0.0
C  C101  1  0.30810416  0.87615174  0.53863599  1  1.540117  0.000702  0.237815  0.607626  0.000834  4.074386  0.0
C  C102  1  0.34187953  0.46325065  0.30729069  1  1.550268  -0.001827  0.227867  0.591987  -0.001705  4.099754  -0.002
C  C103  1  0.03437604  0.69256504  0.15594372  1  1.554233  -0.00181  0.228824  0.595211  -0.00171  4.099  -0.002
C  C104  1  0.87860169  0.84399004  0.53667478  1  1.544305  -0.001819  0.228146  0.594408  -0.001716  4.098118  -0.002
C  C105  1  0.65811614  0.53674781  0.69270582  1  1.550873  -0.001829  0.227916  0.592092  -0.001707  4.099433  -0.002
C  C106  1  0.96561201  0.30742464  0.84404693  1  1.554993  -0.00181  0.228918  0.595435  -0.00171  4.098788  -0.002
C  C107  1  0.12139561  0.15600203  0.46332568  1  1.544833  -0.00182  0.228085  0.59444  -0.001717  4.098417  -0.002
C  C108  1  0.32855088  0.72902025  0.70604594  1  -0.073893  -0.000245  -0.236226  -0.393026  -0.000364  3.882833  0.0
C  C109  1  0.62234552  0.29381365  0.02287913  1  -0.068737  -0.000243  -0.236051  -0.391687  -0.000364  3.881498  0.0
C  C110  1  0.59965634  0.97708877  0.27104527  1  -0.062503  -0.000242  -0.23607  -0.393335  -0.000362  3.88157  0.0
C  C111  1  0.67145762  0.27098620  0.29395872  1  -0.074293  -0.000245  -0.236183  -0.392994  -0.000364  3.882905  0.0
C  C112  1  0.37765937  0.70619040  0.97712108  1  -0.068447  -0.000243  -0.236076  -0.391893  -0.000364  3.881573  0.0
C  C113  1  0.40033853  0.02290650  0.72895248  1  -0.062242  -0.000243  -0.23601  -0.393119  -0.000363  3.881515  0.0
C  C114  1  0.20659223  0.63105359  0.65724524  1  0.037272  -0.000734  -0.01476  -0.033962  -0.001165  3.844309  0.0
C  C115  1  0.54917983  0.34263860  0.97375809  1  0.016247  -0.00073  -0.014194  -0.034945  -0.00116  3.845795  0.0
C  C116  1  0.57561276  0.02617491  0.36897617  1  0.02356  -0.000729  -0.014497  -0.03449  -0.001161  3.845066  0.0
C  C117  1  0.79341586  0.36895366  0.34276028  1  0.037703  -0.000734  -0.014814  -0.034071  -0.001165  3.844392  0.0
C  C118  1  0.45082626  0.65736625  0.02624272  1  0.016169  -0.000731  -0.014219  -0.03485  -0.001161  3.845908  0.0
C  C119  1  0.42438291  0.97382355  0.63102364  1  0.023929  -0.000729  -0.014521  -0.03462  -0.001161  3.845234  0.0
C  C120  1  0.13974472  0.60204032  0.54013239  1  1.572596  -0.002252  0.238762  0.612226  -0.002137  4.06574  -0.002
C  C121  1  0.59940926  0.45969756  0.06192079  1  1.562175  -0.002254  0.238747  0.613063  -0.002139  4.067757  -0.002
C  C122  1  0.53774198  0.93806464  0.39797537  1  1.57164  -0.002245  0.239465  0.613408  -0.002127  4.066453  -0.002
C  C123  1  0.86026417  0.39797013  0.45987652  1  1.572279  -0.002254  0.23875  0.612206  -0.002138  4.065918  -0.002
C  C124  1  0.40059241  0.54030490  0.93807538  1  1.562251  -0.002252  0.238819  0.613138  -0.002138  4.067858  -0.002
C  C125  1  0.46225088  0.06193143  0.60202219  1  1.571544  -0.002246  0.239465  0.613462  -0.002129  4.066472  -0.002
C  C126  1  0.13440740  0.66068864  0.71779776  1  -0.054197  0.000413  -0.246704  -0.394638  0.00035  3.931122  0.0
C  C127  1  0.41642632  0.28198264  0.94276363  1  -0.059114  0.000426  -0.247729  -0.396362  0.000351  3.930739  0.0
C  C128  1  0.47386075  0.05717037  0.33934147  1  -0.068989  0.000425  -0.24737  -0.395619  0.000349  3.930397  0.0
C  C129  1  0.86560272  0.33931781  0.28221061  1  -0.053956  0.000413  -0.246692  -0.394448  0.00035  3.931046  0.0
C  C130  1  0.58357858  0.71801822  0.05723605  1  -0.059102  0.000426  -0.247736  -0.396298  0.000352  3.930795  0.0
C  C131  1  0.52613652  0.94282969  0.66065735  1  -0.069592  0.000425  -0.247379  -0.395561  0.000349  3.930437  0.0
C  C132  1  0.32709096  0.35357863  0.29376494  1  0.01133  0.000387  -0.016167  -0.029889  -0.000194  3.843226  0.0
C  C133  1  0.03321702  0.70615034  0.05988370  1  0.016571  0.000391  -0.015998  -0.030906  -0.000196  3.847036  0.0
C  C134  1  0.97348259  0.94008280  0.64633247  1  0.030535  0.000382  -0.015147  -0.030166  -0.000199  3.845534  0.0
C  C135  1  0.67290631  0.64642143  0.70623521  1  0.010766  0.000387  -0.016119  -0.029934  -0.000194  3.843297  0.0
C  C136  1  0.96678147  0.29384413  0.94011530  1  0.017246  0.00039  -0.016081  -0.031115  -0.000197  3.847163  0.0
C  C137  1  0.02651309  0.05991407  0.35366807  1  0.030048  0.000383  -0.015201  -0.030211  -0.000198  3.845699  0.0
C  C138  1  0.39518215  0.36218140  0.40174773  1  1.544818  -0.001517  0.228438  0.587134  -0.001403  4.090786  -0.002
C  C139  1  0.99335090  0.59822340  0.96056753  1  1.55799  -0.001565  0.226736  0.58502  -0.001415  4.091977  -0.002
C  C140  1  0.03293112  0.03945436  0.63776572  1  1.571224  -0.001503  0.227123  0.58649  -0.001409  4.093249  -0.002
C  C141  1  0.60481191  0.63781706  0.59825102  1  1.544719  -0.001517  0.228383  0.587172  -0.001403  4.090754  -0.002
C  C142  1  0.00664117  0.40176947  0.03942797  1  1.557899  -0.001567  0.2268  0.585131  -0.001415  4.091956  -0.002
C  C143  1  0.96706457  0.96053931  0.36223229  1  1.571366  -0.001503  0.22708  0.58642  -0.001407  4.09349  -0.002
C  C144  1  0.19205035  0.28455622  0.25452716  1  -0.038692  -0.000762  -0.234365  -0.386149  -0.000973  3.890697  -0.001
C  C145  1  0.93746308  0.74546310  0.03004570  1  -0.044838  -0.000768  -0.234221  -0.383699  -0.000974  3.890093  -0.001
C  C146  1  0.90746574  0.96982984  0.71538198  1  -0.066523  -0.00077  -0.234531  -0.384746  -0.000976  3.888386  -0.001
C  C147  1  0.80794853  0.71544384  0.74547206  1  -0.038715  -0.000762  -0.234411  -0.386212  -0.000973  3.890796  -0.001
C  C148  1  0.06253821  0.25453536  0.96995351  1  -0.044918  -0.000768  -0.234224  -0.383645  -0.000974  3.890011  -0.001
C  C149  1  0.09253354  0.03017102  0.28461830  1  -0.066913  -0.00077  -0.234487  -0.384598  -0.000976  3.888309  -0.001
C  C150  1  0.36828816  0.30038031  0.21184735  1  -0.053826  0.000305  -0.242577  -0.396946  0.000329  3.954613  0.0
C  C151  1  0.15633546  0.78803989  0.08854103  1  -0.040042  0.000292  -0.242712  -0.398038  0.00033  3.955356  0.0
C  C152  1  0.06795864  0.91141752  0.69952190  1  -0.041953  0.000295  -0.243144  -0.399109  0.000329  3.957171  0.0
C  C153  1  0.63170792  0.69961575  0.78815100  1  -0.053864  0.000305  -0.242556  -0.396896  0.000329  3.954572  0.0
C  C154  1  0.84366463  0.21195777  0.91145758  1  -0.03997  0.000291  -0.242671  -0.397976  0.000329  3.955421  0.0
C  C155  1  0.93204064  0.08858174  0.30048110  1  -0.042067  0.000295  -0.243178  -0.399245  0.000329  3.957353  0.0
O  O156  1  0.08366821  0.55944943  0.29111206  1  -1.328016  0.001257  -0.683914  -0.876526  0.000804  2.125626  0.001
O  O157  1  0.79247411  0.70881642  0.26832937  1  -1.306348  0.00126  -0.684418  -0.876355  0.000807  2.126115  0.001
O  O158  1  0.52399876  0.73160664  0.44044318  1  -1.330652  0.001263  -0.684508  -0.877856  0.000808  2.123816  0.001
O  O159  1  0.91633187  0.44055142  0.70888511  1  -1.328113  0.001256  -0.68389  -0.87643  0.000803  2.12583  0.001
O  O160  1  0.20752877  0.29118524  0.73166813  1  -1.306564  0.001258  -0.684412  -0.876412  0.000805  2.126001  0.001
O  O161  1  0.47599811  0.26839262  0.55955657  1  -1.330647  0.001262  -0.684497  -0.877909  0.000807  2.123805  0.001
O  O162  1  0.38009418  0.41426523  0.48388167  1  -1.158621  0.080841  -0.336174  -0.601493  0.05176  2.375661  0.074
O  O163  1  0.89616833  0.51604009  0.93053399  1  -1.151156  0.081097  -0.335924  -0.601354  0.05194  2.376262  0.074
O  O164  1  0.96577558  0.06952836  0.58567449  1  -1.140946  0.081057  -0.336688  -0.602238  0.051903  2.377661  0.074
O  O165  1  0.61990470  0.58573643  0.51611882  1  -1.158468  0.080837  -0.336108  -0.60146  0.051757  2.375559  0.074
O  O166  1  0.10382615  0.48395438  0.06946535  1  -1.151348  0.081088  -0.335958  -0.601346  0.051933  2.376162  0.074
O  O167  1  0.03421929  0.93046531  0.41432067  1  -1.140887  0.081048  -0.336624  -0.602148  0.051897  2.377775  0.074
O  O168  1  0.45820993  0.31326396  0.40486698  1  -1.138767  0.017545  -0.280591  -0.511051  0.01086  2.198535  0.016
O  O169  1  0.05323141  0.59515790  0.90851371  1  -1.145594  0.017611  -0.279156  -0.508625  0.010908  2.197656  0.016
O  O170  1  0.14486285  0.09155267  0.68676552  1  -1.176921  0.017575  -0.279117  -0.509323  0.010888  2.198528  0.016
O  O171  1  0.54178612  0.68673850  0.59513179  1  -1.138693  0.017545  -0.280578  -0.511076  0.01086  2.198621  0.016
O  O172  1  0.94675705  0.40483417  0.09148192  1  -1.145595  0.017608  -0.279131  -0.508679  0.010906  2.19766  0.016
O  O173  1  0.85513123  0.90844419  0.31323728  1  -1.177145  0.017576  -0.279146  -0.50935  0.010888  2.198453  0.016
O  O174  1  0.29787826  0.50888579  0.62004397  1  -1.154261  0.078279  -0.384166  -0.648991  0.049822  2.467383  0.07
O  O175  1  0.67765881  0.37986133  0.88883075  1  -1.156329  0.078225  -0.383664  -0.648342  0.049777  2.468266  0.07
O  O176  1  0.78905407  0.11115000  0.49120639  1  -1.153669  0.078225  -0.383631  -0.648295  0.049762  2.46736  0.07
O  O177  1  0.70211941  0.49111347  0.37995200  1  -1.154293  0.078274  -0.384173  -0.649001  0.04982  2.467297  0.07
O  O178  1  0.32234125  0.62014113  0.11116304  1  -1.156279  0.078221  -0.38366  -0.648302  0.049775  2.468227  0.07
O  O179  1  0.21094321  0.88884686  0.50879322  1  -1.153728  0.078218  -0.383641  -0.648303  0.049758  2.46749  0.07
O  O180  1  0.16741705  0.54768582  0.46877607  1  -1.137568  0.092545  -0.313616  -0.575115  0.059005  2.445596  0.085
O  O181  1  0.69838860  0.53115161  0.07892743  1  -1.134516  0.092443  -0.314329  -0.575733  0.058953  2.445777  0.085
O  O182  1  0.61977752  0.92100459  0.45227366  1  -1.131656  0.092403  -0.314386  -0.575963  0.058976  2.446341  0.085
O  O183  1  0.83259065  0.45232382  0.53123291  1  -1.13747  0.092551  -0.31361  -0.575085  0.059008  2.445623  0.085
O  O184  1  0.30161107  0.46885325  0.92107711  1  -1.134532  0.092455  -0.314357  -0.575817  0.05896  2.445582  0.085
O  O185  1  0.38021855  0.07899307  0.54772397  1  -1.131655  0.092412  -0.31442  -0.576065  0.058982  2.446502  0.085
O  O186  1  0.30663059  0.51759932  0.37069886  1  -1.141782  0.086648  -0.349208  -0.589287  0.055489  2.438144  0.079
O  O187  1  0.93570479  0.62914758  0.14686673  1  -1.14543  0.086601  -0.349999  -0.590575  0.055502  2.439466  0.079
O  O188  1  0.78908017  0.85314042  0.48228183  1  -1.140318  0.086695  -0.350111  -0.591336  0.055564  2.439424  0.079
O  O189  1  0.69336429  0.48239594  0.62929956  1  -1.141943  0.086658  -0.349213  -0.589261  0.055494  2.438075  0.079
O  O190  1  0.06429291  0.37084210  0.85312829  1  -1.146223  0.086615  -0.350117  -0.590783  0.05551  2.439307  0.079
O  O191  1  0.21091471  0.14685484  0.51771857  1  -1.140581  0.086694  -0.350059  -0.591335  0.055564  2.439557  0.079
O  O192  1  0.06335755  0.63441274  0.51659697  1  -1.17617  0.028137  -0.333969  -0.540932  0.017885  2.150657  0.024
O  O193  1  0.54655492  0.48310712  0.11787118  1  -1.166584  0.0281  -0.333974  -0.541245  0.017865  2.152365  0.024
O  O194  1  0.42897394  0.88221013  0.36568177  1  -1.182726  0.027958  -0.334708  -0.541413  0.017789  2.151379  0.024
O  O195  1  0.93664614  0.36559371  0.48341048  1  -1.176175  0.028138  -0.33392  -0.540924  0.017885  2.150898  0.024
O  O196  1  0.45343830  0.51689934  0.88212575  1  -1.166591  0.028093  -0.333992  -0.541221  0.017861  2.15269  0.024
O  O197  1  0.57102053  0.11778434  0.63431558  1  -1.182618  0.027964  -0.334666  -0.541408  0.017792  2.15138  0.024
O  O198  1  0.19160228  0.49571594  0.71002902  1  -1.180823  0.02644  -0.322175  -0.543135  0.016565  2.164528  0.023
O  O199  1  0.48141379  0.28984788  0.78566886  1  -1.193704  0.026425  -0.320941  -0.541415  0.016569  2.164966  0.023
O  O200  1  0.69591233  0.21426150  0.50424313  1  -1.182497  0.026392  -0.32128  -0.541832  0.016542  2.164688  0.023
O  O201  1  0.80839940  0.50428652  0.28996716  1  -1.180918  0.02644  -0.322279  -0.543275  0.016565  2.164364  0.023
O  O202  1  0.51858869  0.71015458  0.21432884  1  -1.193672  0.026429  -0.320907  -0.541412  0.016572  2.164991  0.023
O  O203  1  0.30408694  0.78573776  0.49575257  1  -1.182297  0.0264  -0.321313  -0.541928  0.016547  2.164529  0.023
O  O204  1  0.38104863  0.49712859  0.25350977  1  -1.188407  0.019274  -0.339169  -0.576527  0.012043  2.182221  0.017
O  O205  1  0.12732417  0.74630293  0.24361569  1  -1.188989  0.019252  -0.339981  -0.57836  0.012029  2.182314  0.017
O  O206  1  0.88378639  0.75629207  0.50275797  1  -1.194646  0.019217  -0.339379  -0.577149  0.012008  2.182024  0.017
O  O207  1  0.61895026  0.50287147  0.74649475  1  -1.188439  0.01928  -0.339227  -0.57665  0.012046  2.181963  0.017
O  O208  1  0.87266990  0.25369233  0.75638186  1  -1.189346  0.019243  -0.339946  -0.578336  0.012024  2.182364  0.017
O  O209  1  0.11621091  0.24370000  0.49723918  1  -1.194387  0.019221  -0.339338  -0.577159  0.012011  2.182176  0.017
