# generated using pymatgen
data_CuH8C6IN2
_symmetry_space_group_name_H-M   'P 1'
_cell_length_a   6.96574731
_cell_length_b   8.31457879
_cell_length_c   13.59236584
_cell_angle_alpha   90.00016341
_cell_angle_beta   90.00044070
_cell_angle_gamma   99.19976091
_symmetry_Int_Tables_number   1
_chemical_formula_structural   CuH8C6IN2
_chemical_formula_sum   'Cu4 H32 C24 I4 N8'
_cell_volume   777.10629174
_cell_formula_units_Z   4
loop_
 _symmetry_equiv_pos_site_id
 _symmetry_equiv_pos_as_xyz
  1  'x, y, z'
loop_
 _atom_site_type_symbol
 _atom_site_label
 _atom_site_symmetry_multiplicity
 _atom_site_fract_x
 _atom_site_fract_y
 _atom_site_fract_z
 _atom_site_occupancy
 _atom_site_hle17_bader_spin_density
 _atom_site_hle17_ddec_charge
 _atom_site_hle17_ddec_spin_density
 _atom_site_hle17_ddec_sum_bond_order
 _atom_site_hle17_magmom
 _atom_site_hse06_10hf_bader_spin_density
 _atom_site_hse06_10hf_ddec_charge
 _atom_site_hse06_10hf_ddec_spin_density
 _atom_site_hse06_10hf_ddec_sum_bond_order
 _atom_site_hse06_10hf_magmom
 _atom_site_hse06_bader_spin_density
 _atom_site_hse06_ddec_charge
 _atom_site_hse06_ddec_spin_density
 _atom_site_hse06_ddec_sum_bond_order
 _atom_site_hse06_magmom
 _atom_site_pbe_bader_spin_density
 _atom_site_pbe_cm5_charge
 _atom_site_pbe_ddec_charge
 _atom_site_pbe_ddec_spin_density
 _atom_site_pbe_ddec_sum_bond_order
 _atom_site_pbe_magmom
Cu  Cu0  1  0.18542764  0.04513817  0.53743884  1  0  0.304025  0  2.074293  0  0  0.215042  0  2.549264  0  0  0.224841  0  2.497811  0  0  0.320826  0.211237  0  2.582116  0
Cu  Cu1  1  0.31458270  0.95486341  0.03743349  1  0  0.30411  0  2.074225  0  0  0.215163  0  2.549195  0  0  0.224949  0  2.497743  0  0  0.320823  0.211356  0  2.582045  0
Cu  Cu2  1  0.81458099  0.95486978  0.46256278  1  0  0.304013  0  2.074346  0  0  0.215031  0  2.549338  0  0  0.224859  0  2.497887  0  0  0.320818  0.211218  0  2.582229  0
Cu  Cu3  1  0.68540891  0.04512982  0.96256371  1  0  0.304022  0  2.074289  0  0  0.215053  0  2.549295  0  0  0.224888  0  2.497854  0  0  0.320844  0.21124  0  2.582177  0
H  H4  1  0.13927019  0.38799458  0.50286597  1  0  0.067983  0  0.967935  0  0  0.07627  0  1.040962  0  0  0.078933  0  1.038195  0  0  0.106917  0.074152  0  1.043223  0
H  H5  1  0.36073714  0.61199336  0.00286975  1  0  0.06805  0  0.968156  0  0  0.07638  0  1.041087  0  0  0.079043  0  1.038319  0  0  0.106976  0.074266  0  1.043357  0
H  H6  1  0.86072074  0.61201081  0.49713564  1  0  0.068031  0  0.968016  0  0  0.076285  0  1.04106  0  0  0.07894  0  1.038308  0  0  0.106938  0.074163  0  1.043327  0
H  H7  1  0.63927372  0.38799514  0.99713775  1  0  0.06808  0  0.96802  0  0  0.076367  0  1.041015  0  0  0.07902  0  1.03827  0  0  0.106978  0.074244  0  1.043282  0
H  H8  1  0.37411353  0.88250580  0.65440486  1  0  0.26581  0  0.943763  0  0  0.259502  0  1.002502  0  0  0.264269  0  0.999912  0  0  0.259625  0.256057  0  1.00452  0
H  H9  1  0.12589051  0.11749042  0.15440687  1  0  0.265846  0  0.943664  0  0  0.259574  0  1.002399  0  0  0.264354  0  0.999775  0  0  0.259644  0.256125  0  1.00443  0
H  H10  1  0.62588869  0.11749845  0.34559381  1  0  0.265781  0  0.943785  0  0  0.259509  0  1.002461  0  0  0.26427  0  0.99989  0  0  0.259616  0.256059  0  1.004488  0
H  H11  1  0.87410044  0.88249915  0.84559254  1  0  0.265854  0  0.943697  0  0  0.25956  0  1.002418  0  0  0.264341  0  0.99979  0  0  0.259653  0.256113  0  1.00444  0
H  H12  1  0.55640467  0.68519288  0.68855582  1  0  0.090479  0  0.984036  0  0  0.096507  0  1.056633  0  0  0.100331  0  1.053428  0  0  0.08904  0.093496  0  1.059238  0
H  H13  1  0.94359175  0.31481102  0.18855570  1  0  0.090527  0  0.983964  0  0  0.09655  0  1.056586  0  0  0.100382  0  1.053356  0  0  0.08904  0.093536  0  1.059192  0
H  H14  1  0.44358893  0.31481131  0.31144359  1  0  0.090552  0  0.983956  0  0  0.096559  0  1.056589  0  0  0.10039  0  1.053366  0  0  0.089049  0.093545  0  1.059197  0
H  H15  1  0.05640594  0.68519198  0.81144518  1  0  0.090492  0  0.984  0  0  0.096506  0  1.056607  0  0  0.100329  0  1.053403  0  0  0.089032  0.093495  0  1.059215  0
H  H16  1  0.69436640  0.43140690  0.72756084  1  0  0.097307  0  0.980173  0  0  0.106851  0  1.041223  0  0  0.108686  0  1.043133  0  0  0.099284  0.105503  0  1.040146  0
H  H17  1  0.80564892  0.56861078  0.22754961  1  0  0.097342  0  0.980157  0  0  0.106839  0  1.041252  0  0  0.108669  0  1.043173  0  0  0.099342  0.105488  0  1.040181  0
H  H18  1  0.30564621  0.56860716  0.27244152  1  0  0.097244  0  0.980178  0  0  0.106805  0  1.041221  0  0  0.108636  0  1.043142  0  0  0.099272  0.105456  0  1.040146  0
H  H19  1  0.19433595  0.43138483  0.77244097  1  0  0.097334  0  0.980107  0  0  0.106823  0  1.041227  0  0  0.108654  0  1.043144  0  0  0.099337  0.105474  0  1.040155  0
H  H20  1  0.54139852  0.16758290  0.65626294  1  0  0.073866  0  0.981072  0  0  0.081019  0  1.050431  0  0  0.08419  0  1.047648  0  0  0.093072  0.078379  0  1.052889  0
H  H21  1  0.95861670  0.83242457  0.15624908  1  0  0.073868  0  0.980918  0  0  0.081024  0  1.050286  0  0  0.084199  0  1.047495  0  0  0.09308  0.078386  0  1.052739  0
H  H22  1  0.45860745  0.83242624  0.34374015  1  0  0.073854  0  0.981093  0  0  0.081004  0  1.050442  0  0  0.084177  0  1.047656  0  0  0.093082  0.078363  0  1.052904  0
H  H23  1  0.04136839  0.16757226  0.84374076  1  0  0.073842  0  0.981065  0  0  0.080995  0  1.050406  0  0  0.084219  0  1.047566  0  0  0.093066  0.078355  0  1.052864  0
H  H24  1  0.09760168  0.69456168  0.61276242  1  0  0.063159  0  0.939513  0  0  0.082541  0  1.003083  0  0  0.082755  0  1.002719  0  0  0.095665  0.082181  0  1.003479  0
H  H25  1  0.40239734  0.30543423  0.11276212  1  0  0.063199  0  0.939787  0  0  0.082659  0  1.003252  0  0  0.08287  0  1.002893  0  0  0.095733  0.082307  0  1.003642  0
H  H26  1  0.90239070  0.30544372  0.38723773  1  0  0.063186  0  0.93966  0  0  0.082613  0  1.003218  0  0  0.082827  0  1.002857  0  0  0.095718  0.082254  0  1.003614  0
H  H27  1  0.59760058  0.69455417  0.88724170  1  0  0.063269  0  0.939628  0  0  0.08263  0  1.003191  0  0  0.082845  0  1.002832  0  0  0.09575  0.082274  0  1.003587  0
H  H28  1  0.47665814  0.86899397  0.54684246  1  0  0.26248  0  0.944408  0  0  0.249529  0  1.017147  0  0  0.255962  0  1.011201  0  0  0.265999  0.244855  0  1.021502  0
H  H29  1  0.02333976  0.13100149  0.04684484  1  0  0.262384  0  0.94444  0  0  0.249462  0  1.017156  0  0  0.255893  0  1.011213  0  0  0.265972  0.244788  0  1.021507  0
H  H30  1  0.52333767  0.13100658  0.45315327  1  0  0.26248  0  0.944457  0  0  0.249533  0  1.0172  0  0  0.255971  0  1.011245  0  0  0.266011  0.244859  0  1.02155  0
H  H31  1  0.97666014  0.86899787  0.95315163  1  0  0.262421  0  0.944465  0  0  0.249497  0  1.017179  0  0  0.255935  0  1.011222  0  0  0.26599  0.244823  0  1.021527  0
H  H32  1  0.18246177  0.68691486  0.49091918  1  0  0.059475  0  0.942013  0  0  0.075963  0  1.010594  0  0  0.07601  0  1.010614  0  0  0.09878  0.075812  0  1.010674  0
H  H33  1  0.31753625  0.31308235  0.99092330  1  0  0.05957  0  0.942035  0  0  0.076089  0  1.010595  0  0  0.076135  0  1.010612  0  0  0.098837  0.07594  0  1.010673  0
H  H34  1  0.81753735  0.31308815  0.50908023  1  0  0.059454  0  0.942056  0  0  0.075995  0  1.01063  0  0  0.076042  0  1.010652  0  0  0.098793  0.075845  0  1.01071  0
H  H35  1  0.68246487  0.68691581  0.00908421  1  0  0.059512  0  0.942062  0  0  0.076022  0  1.010609  0  0  0.07607  0  1.010629  0  0  0.098794  0.075873  0  1.010689  0
C  C36  1  0.25867503  0.40275330  0.55563186  1  0  0.063576  0  3.686823  0  0  0.025937  0  3.937914  0  0  0.032233  0  3.954013  0  0  0.033524  0.021669  0  3.927663  0
C  C37  1  0.24134414  0.59723994  0.05562780  1  0  0.063546  0  3.686698  0  0  0.025928  0  3.937794  0  0  0.032225  0  3.953887  0  0  0.033493  0.021648  0  3.927536  0
C  C38  1  0.74133084  0.59724733  0.44436828  1  0  0.063491  0  3.686952  0  0  0.025869  0  3.938037  0  0  0.032165  0  3.954139  0  0  0.033481  0.021605  0  3.927796  0
C  C39  1  0.75866616  0.40275342  0.94437161  1  0  0.063538  0  3.686809  0  0  0.025922  0  3.937865  0  0  0.032215  0  3.953958  0  0  0.033508  0.021656  0  3.927621  0
C  C40  1  0.33042244  0.55587570  0.59470922  1  0  0.01548  0  3.73069  0  0  0.044552  0  3.960824  0  0  0.039109  0  3.986758  0  0  -0.012281  0.047792  0  3.943639  0
C  C41  1  0.16957118  0.44412370  0.09470682  1  0  0.015759  0  3.730549  0  0  0.044804  0  3.960768  0  0  0.039358  0  3.986702  0  0  -0.012136  0.048045  0  3.943585  0
C  C42  1  0.66957093  0.44412727  0.40529387  1  0  0.01549  0  3.730715  0  0  0.04467  0  3.960785  0  0  0.039229  0  3.986718  0  0  -0.012244  0.04791  0  3.943603  0
C  C43  1  0.83043635  0.55587816  0.90529774  1  0  0.01557  0  3.730711  0  0  0.044716  0  3.960741  0  0  0.039277  0  3.986672  0  0  -0.012215  0.047955  0  3.94356  0
C  C44  1  0.49062375  0.56769113  0.65800609  1  0  -0.067216  0  3.708791  0  0  -0.09177  0  3.952114  0  0  -0.08819  0  3.96844  0  0  -0.080176  -0.094276  0  3.941714  0
C  C45  1  0.00938377  0.43231609  0.15800527  1  0  -0.067361  0  3.70906  0  0  -0.091911  0  3.952367  0  0  -0.088332  0  3.968704  0  0  -0.080189  -0.094415  0  3.941964  0
C  C46  1  0.50938201  0.43231679  0.34199332  1  0  -0.067299  0  3.709141  0  0  -0.091862  0  3.952444  0  0  -0.088284  0  3.968773  0  0  -0.080189  -0.094366  0  3.942047  0
C  C47  1  0.99061226  0.56768568  0.84199561  1  0  -0.067274  0  3.709162  0  0  -0.091834  0  3.952464  0  0  -0.088259  0  3.968794  0  0  -0.080226  -0.094341  0  3.942067  0
C  C48  1  0.56833921  0.42716439  0.67966753  1  0  -0.116862  0  3.748342  0  0  -0.124764  0  3.99498  0  0  -0.131127  0  4.015695  0  0  -0.090047  -0.120927  0  3.981654  0
C  C49  1  0.93166237  0.57283705  0.17966268  1  0  -0.11688  0  3.748102  0  0  -0.124745  0  3.994765  0  0  -0.131112  0  4.015483  0  0  -0.090166  -0.120912  0  3.981444  0
C  C50  1  0.43166766  0.57283381  0.32033408  1  0  -0.116898  0  3.748212  0  0  -0.124832  0  3.994861  0  0  -0.1312  0  4.015578  0  0  -0.090164  -0.120997  0  3.981539  0
C  C51  1  0.06832735  0.42716954  0.82033599  1  0  -0.116912  0  3.748107  0  0  -0.124781  0  3.994764  0  0  -0.131149  0  4.01549  0  0  -0.090141  -0.120947  0  3.981442  0
C  C52  1  0.48333354  0.27879459  0.63975292  1  0  0.114122  0  3.687166  0  0  0.083199  0  3.937338  0  0  0.089944  0  3.952594  0  0  0.028363  0.078567  0  3.927948  0
C  C53  1  0.01668738  0.72120897  0.13974677  1  0  0.114166  0  3.686792  0  0  0.083276  0  3.936945  0  0  0.090017  0  3.952202  0  0  0.028456  0.078641  0  3.927561  0
C  C54  1  0.51667840  0.72121582  0.36024501  1  0  0.114233  0  3.686844  0  0  0.083362  0  3.93696  0  0  0.090111  0  3.952219  0  0  0.028512  0.07873  0  3.92758  0
C  C55  1  0.98331042  0.27878674  0.86024749  1  0  0.114233  0  3.686681  0  0  0.083362  0  3.936815  0  0  0.090066  0  3.952056  0  0  0.02848  0.078727  0  3.927429  0
C  C56  1  0.23065620  0.69845756  0.56807067  1  0  0.033725  0  3.702916  0  0  -0.028569  0  3.955693  0  0  -0.024192  0  3.968735  0  0  -0.075236  -0.031303  0  3.946775  0
C  C57  1  0.26936253  0.30153212  0.06806987  1  0  0.033336  0  3.70312  0  0  -0.029084  0  3.956054  0  0  -0.024702  0  3.969084  0  0  -0.075473  -0.031826  0  3.947136  0
C  C58  1  0.76935399  0.30154310  0.43193021  1  0  0.033841  0  3.702907  0  0  -0.028671  0  3.955942  0  0  -0.024299  0  3.968997  0  0  -0.075243  -0.031408  0  3.947029  0
C  C59  1  0.73064302  0.69845878  0.93193322  1  0  0.033508  0  3.703197  0  0  -0.028829  0  3.956013  0  0  -0.024464  0  3.969074  0  0  -0.075329  -0.031568  0  3.947099  0
I  I60  1  0.12641762  0.02102250  0.34797500  1  0  -0.477955  0  1.471011  0  0  -0.429405  0  1.888377  0  0  -0.444421  0  1.850116  0  0  -0.215702  -0.418005  0  1.913672  0
I  I61  1  0.37357344  0.97897249  0.84796949  1  0  -0.477957  0  1.470989  0  0  -0.429382  0  1.888283  0  0  -0.444405  0  1.850045  0  0  -0.21568  -0.41801  0  1.913626  0
I  I62  1  0.87358062  0.97897564  0.65202515  1  0  -0.477978  0  1.471053  0  0  -0.429426  0  1.888392  0  0  -0.444442  0  1.850139  0  0  -0.215708  -0.418029  0  1.913702  0
I  I63  1  0.62642314  0.02102442  0.15202698  1  0  -0.477973  0  1.471005  0  0  -0.429437  0  1.888353  0  0  -0.444451  0  1.850099  0  0  -0.215709  -0.418041  0  1.913651  0
N  N64  1  0.32911471  0.26539020  0.57826958  1  0  -0.278043  0  3.386821  0  0  -0.202901  0  3.67566  0  0  -0.214391  0  3.683644  0  0  -0.363669  -0.196256  0  3.670753  0
N  N65  1  0.17090141  0.73460803  0.07826477  1  0  -0.278217  0  3.386851  0  0  -0.203143  0  3.675802  0  0  -0.214624  0  3.683769  0  0  -0.363777  -0.196492  0  3.670896  0
N  N66  1  0.67089326  0.73461409  0.42173424  1  0  -0.278047  0  3.386922  0  0  -0.202936  0  3.675777  0  0  -0.21443  0  3.683768  0  0  -0.363729  -0.196294  0  3.670892  0
N  N67  1  0.82910026  0.26538526  0.92174127  1  0  -0.278148  0  3.386873  0  0  -0.203093  0  3.675838  0  0  -0.214584  0  3.683846  0  0  -0.363776  -0.196439  0  3.670941  0
N  N68  1  0.34384890  0.86151297  0.58106215  1  0  -0.571388  0  3.207928  0  0  -0.5195  0  3.463233  0  0  -0.534949  0  3.458071  0  0  -0.65398  -0.50891  0  3.466665  0
N  N69  1  0.15615921  0.13848036  0.08106283  1  0  -0.571286  0  3.207789  0  0  -0.51946  0  3.463083  0  0  -0.534908  0  3.457931  0  0  -0.653979  -0.50887  0  3.466513  0
N  N70  1  0.65615232  0.13849371  0.41893652  1  0  -0.571468  0  3.207972  0  0  -0.519515  0  3.463267  0  0  -0.534972  0  3.458114  0  0  -0.654025  -0.508928  0  3.466715  0
N  N71  1  0.84384059  0.86151049  0.91893584  1  0  -0.571354  0  3.207932  0  0  -0.519492  0  3.463248  0  0  -0.534945  0  3.458114  0  0  -0.654024  -0.508904  0  3.466688  0
