# generated using pymatgen
data_BaH16C12Br2(NO)2
_symmetry_space_group_name_H-M   'P 1'
_cell_length_a   7.39572327
_cell_length_b   10.90336070
_cell_length_c   10.90334787
_cell_angle_alpha   79.19201454
_cell_angle_beta   74.26234591
_cell_angle_gamma   74.26242834
_symmetry_Int_Tables_number   1
_chemical_formula_structural   BaH16C12Br2(NO)2
_chemical_formula_sum   'Ba2 H32 C24 Br4 N4 O4'
_cell_volume   808.35959216
_cell_formula_units_Z   2
loop_
 _symmetry_equiv_pos_site_id
 _symmetry_equiv_pos_as_xyz
  1  'x, y, z'
loop_
 _atom_site_type_symbol
 _atom_site_label
 _atom_site_symmetry_multiplicity
 _atom_site_fract_x
 _atom_site_fract_y
 _atom_site_fract_z
 _atom_site_occupancy
 _atom_site_hle17_bader_spin_density
 _atom_site_hle17_ddec_charge
 _atom_site_hle17_ddec_spin_density
 _atom_site_hle17_ddec_sum_bond_order
 _atom_site_hle17_magmom
 _atom_site_hse06_10hf_bader_spin_density
 _atom_site_hse06_10hf_ddec_charge
 _atom_site_hse06_10hf_ddec_spin_density
 _atom_site_hse06_10hf_ddec_sum_bond_order
 _atom_site_hse06_10hf_magmom
 _atom_site_hse06_bader_spin_density
 _atom_site_hse06_ddec_charge
 _atom_site_hse06_ddec_spin_density
 _atom_site_hse06_ddec_sum_bond_order
 _atom_site_hse06_magmom
 _atom_site_pbe_bader_spin_density
 _atom_site_pbe_cm5_charge
 _atom_site_pbe_ddec_charge
 _atom_site_pbe_ddec_spin_density
 _atom_site_pbe_ddec_sum_bond_order
 _atom_site_pbe_magmom
Ba  Ba0  1  0.25000085  0.12075546  0.87924546  1  0  1.428011  0  1.31542  0  0  1.256361  0  1.735899  0  0  1.296623  0  1.696729  0  0  0.648794  1.226825  0  1.763799  0
Ba  Ba1  1  0.75000113  0.87924231  0.12075506  1  0  1.428027  0  1.315415  0  0  1.256387  0  1.735884  0  0  1.296643  0  1.696721  0  0  0.648791  1.226822  0  1.76381  0
H  H2  1  0.23467549  0.60992440  0.52827384  1  0  0.102414  0  0.957497  0  0  0.114375  0  1.016119  0  0  0.117204  0  1.016079  0  0  0.105243  0.112328  0  1.016382  0
H  H3  1  0.26532568  0.47172251  0.39007429  1  0  0.102451  0  0.957487  0  0  0.114409  0  1.016103  0  0  0.117238  0  1.016062  0  0  0.10527  0.112361  0  1.016362  0
H  H4  1  0.76532400  0.39007237  0.47172368  1  0  0.102428  0  0.957445  0  0  0.114386  0  1.016068  0  0  0.117215  0  1.016028  0  0  0.105276  0.112341  0  1.016323  0
H  H5  1  0.73468438  0.52827623  0.60992544  1  0  0.102408  0  0.957563  0  0  0.114367  0  1.016189  0  0  0.117197  0  1.016147  0  0  0.105246  0.112324  0  1.016442  0
H  H6  1  0.00334091  0.75541910  0.68508914  1  0  0.096615  0  0.950726  0  0  0.105947  0  1.013426  0  0  0.108895  0  1.011265  0  0  0.100563  0.103965  0  1.014741  0
H  H7  1  0.49666197  0.31490791  0.24457828  1  0  0.096605  0  0.950724  0  0  0.105931  0  1.013419  0  0  0.108879  0  1.011258  0  0  0.100575  0.103948  0  1.014734  0
H  H8  1  0.99665574  0.24457762  0.31490525  1  0  0.096589  0  0.95075  0  0  0.105918  0  1.013441  0  0  0.108865  0  1.011282  0  0  0.100569  0.103935  0  1.014755  0
H  H9  1  0.50334702  0.68508986  0.75542001  1  0  0.096592  0  0.950755  0  0  0.105935  0  1.013433  0  0  0.108884  0  1.011271  0  0  0.100553  0.103952  0  1.014749  0
H  H10  1  0.82746418  0.65704302  0.89341079  1  0  0.108797  0  0.983167  0  0  0.112568  0  1.051922  0  0  0.116756  0  1.049847  0  0  0.106497  0.109458  0  1.053936  0
H  H11  1  0.67253566  0.10658622  0.34295840  1  0  0.108767  0  0.983242  0  0  0.112543  0  1.051991  0  0  0.116732  0  1.049914  0  0  0.106482  0.109434  0  1.054002  0
H  H12  1  0.17253221  0.34295856  0.10658727  1  0  0.108788  0  0.983264  0  0  0.112555  0  1.052012  0  0  0.116745  0  1.049934  0  0  0.106482  0.109446  0  1.054025  0
H  H13  1  0.32746347  0.89340772  0.65704525  1  0  0.108795  0  0.983152  0  0  0.112551  0  1.051927  0  0  0.116739  0  1.049853  0  0  0.106491  0.109441  0  1.053941  0
H  H14  1  0.90150058  0.41667350  0.94223280  1  0  0.066408  0  0.971693  0  0  0.070866  0  1.044672  0  0  0.073605  0  1.042556  0  0  0.106281  0.068704  0  1.046645  0
H  H15  1  0.59850054  0.05776621  0.58332694  1  0  0.066426  0  0.971645  0  0  0.070889  0  1.044615  0  0  0.073629  0  1.042498  0  0  0.106307  0.068727  0  1.046587  0
H  H16  1  0.09850808  0.58332525  0.05776719  1  0  0.066357  0  0.97172  0  0  0.070789  0  1.044725  0  0  0.073525  0  1.042616  0  0  0.106282  0.068629  0  1.046695  0
H  H17  1  0.40149195  0.94223059  0.41667647  1  0  0.06639  0  0.971727  0  0  0.070845  0  1.044703  0  0  0.073583  0  1.042591  0  0  0.106306  0.068684  0  1.046672  0
H  H18  1  0.53659928  0.24397765  0.97879127  1  0  0.346912  0  0.939144  0  0  0.320596  0  1.021708  0  0  0.331208  0  1.009112  0  0  0.269815  0.312988  0  1.030704  0
H  H19  1  0.96339523  0.02121483  0.75602336  1  0  0.346884  0  0.939194  0  0  0.320567  0  1.021758  0  0  0.331181  0  1.00916  0  0  0.269858  0.312959  0  1.030754  0
H  H20  1  0.46339398  0.75602492  0.02121085  1  0  0.346906  0  0.93923  0  0  0.320605  0  1.021792  0  0  0.331223  0  1.009184  0  0  0.269854  0.312996  0  1.030789  0
H  H21  1  0.03659876  0.97878966  0.24397733  1  0  0.346937  0  0.939115  0  0  0.320626  0  1.021666  0  0  0.331236  0  1.009074  0  0  0.269836  0.313018  0  1.030661  0
H  H22  1  0.65112931  0.39028274  0.85091205  1  0  0.066022  0  0.974595  0  0  0.081049  0  1.046773  0  0  0.081554  0  1.0467  0  0  0.089349  0.080683  0  1.046769  0
H  H23  1  0.84886789  0.14909238  0.60971482  1  0  0.066043  0  0.974607  0  0  0.081073  0  1.04678  0  0  0.081577  0  1.046705  0  0  0.08934  0.080704  0  1.046777  0
H  H24  1  0.34886430  0.60971888  0.14909111  1  0  0.066078  0  0.974788  0  0  0.081123  0  1.046916  0  0  0.081627  0  1.046843  0  0  0.089425  0.080755  0  1.04691  0
H  H25  1  0.15112641  0.85091110  0.39028234  1  0  0.066005  0  0.974619  0  0  0.081029  0  1.046802  0  0  0.081534  0  1.046731  0  0  0.089344  0.080661  0  1.046796  0
H  H26  1  0.48967604  0.39795516  0.75262858  1  0  0.064756  0  0.969383  0  0  0.079547  0  1.040664  0  0  0.079973  0  1.041207  0  0  0.090281  0.079048  0  1.040532  0
H  H27  1  0.01032300  0.24737587  0.60203997  1  0  0.064787  0  0.96938  0  0  0.079612  0  1.040602  0  0  0.08004  0  1.041141  0  0  0.090305  0.079107  0  1.040474  0
H  H28  1  0.51031998  0.60204358  0.24737379  1  0  0.064815  0  0.969337  0  0  0.079614  0  1.0406  0  0  0.080041  0  1.041142  0  0  0.090297  0.079104  0  1.040476  0
H  H29  1  0.98967483  0.75262952  0.39795432  1  0  0.064772  0  0.969365  0  0  0.079573  0  1.040629  0  0  0.08  0  1.041172  0  0  0.090285  0.079057  0  1.040511  0
H  H30  1  0.40975089  0.48751629  0.88700989  1  0  0.068814  0  0.937402  0  0  0.08663  0  1.002892  0  0  0.087347  0  1.002578  0  0  0.08832  0.086303  0  1.002644  0
H  H31  1  0.09025024  0.11298945  0.51248519  1  0  0.068837  0  0.937385  0  0  0.086652  0  1.00288  0  0  0.087369  0  1.002565  0  0  0.088315  0.086325  0  1.002629  0
H  H32  1  0.59024661  0.51249008  0.11298610  1  0  0.068847  0  0.937311  0  0  0.086665  0  1.002807  0  0  0.087384  0  1.00249  0  0  0.088327  0.086337  0  1.002557  0
H  H33  1  0.90974892  0.88700831  0.48751586  1  0  0.0688  0  0.937407  0  0  0.086602  0  1.002914  0  0  0.087325  0  1.002594  0  0  0.088309  0.086274  0  1.002662  0
C  C34  1  0.18333727  0.43703093  0.65282868  1  0  0.166837  0  3.790312  0  0  0.165983  0  4.034224  0  0  0.172498  0  4.052898  0  0  0.120107  0.161845  0  4.021645  0
C  C35  1  0.31666474  0.34716869  0.56296776  1  0  0.166962  0  3.790201  0  0  0.166047  0  4.034177  0  0  0.172562  0  4.05285  0  0  0.120171  0.16191  0  4.021595  0
C  C36  1  0.81666998  0.56296779  0.34716974  1  0  0.166849  0  3.790324  0  0  0.165956  0  4.034203  0  0  0.172477  0  4.052879  0  0  0.12013  0.16182  0  4.021616  0
C  C37  1  0.68333544  0.65282619  0.43703276  1  0  0.16678  0  3.790493  0  0  0.166047  0  4.034222  0  0  0.172545  0  4.052925  0  0  0.120155  0.16191  0  4.021636  0
C  C38  1  0.15468168  0.57041318  0.61968910  1  0  -0.162666  0  3.724133  0  0  -0.180032  0  3.969326  0  0  -0.187453  0  3.991719  0  0  -0.086292  -0.175063  0  3.954397  0
C  C39  1  0.34532017  0.38030954  0.42958441  1  0  -0.162715  0  3.724153  0  0  -0.180077  0  3.969353  0  0  -0.1875  0  3.991753  0  0  -0.086391  -0.175107  0  3.95442  0
C  C40  1  0.84531854  0.42958553  0.38030973  1  0  -0.162639  0  3.724061  0  0  -0.180023  0  3.969259  0  0  -0.187447  0  3.991658  0  0  -0.086394  -0.175055  0  3.954329  0
C  C41  1  0.65469024  0.61968827  0.57041727  1  0  -0.162605  0  3.724106  0  0  -0.180025  0  3.96928  0  0  -0.187445  0  3.991685  0  0  -0.086329  -0.175056  0  3.954352  0
C  C42  1  0.02811711  0.65132816  0.70667867  1  0  0.008754  0  3.721944  0  0  -0.009355  0  3.969319  0  0  -0.006461  0  3.989146  0  0  -0.06516  -0.010985  0  3.955842  0
C  C43  1  0.47188248  0.29331982  0.34867076  1  0  0.008724  0  3.721954  0  0  -0.009344  0  3.96929  0  0  -0.006451  0  3.989115  0  0  -0.065122  -0.010973  0  3.955811  0
C  C44  1  0.97187435  0.34867149  0.29332070  1  0  0.008752  0  3.721895  0  0  -0.009321  0  3.969212  0  0  -0.006429  0  3.989044  0  0  -0.065116  -0.01095  0  3.955733  0
C  C45  1  0.52812376  0.70668180  0.65132912  1  0  0.008696  0  3.721936  0  0  -0.009393  0  3.969288  0  0  -0.006502  0  3.989122  0  0  -0.065147  -0.011024  0  3.955813  0
C  C46  1  0.93167718  0.59723186  0.82398001  1  0  -0.116918  0  3.714573  0  0  -0.128663  0  3.96165  0  0  -0.135894  0  3.983183  0  0  -0.079151  -0.124016  0  3.948124  0
C  C47  1  0.56832388  0.17601904  0.40276556  1  0  -0.116856  0  3.714551  0  0  -0.12863  0  3.961629  0  0  -0.13586  0  3.983163  0  0  -0.079152  -0.123983  0  3.948098  0
C  C48  1  0.06831916  0.40276587  0.17601883  1  0  -0.116892  0  3.714586  0  0  -0.128628  0  3.961635  0  0  -0.135858  0  3.983166  0  0  -0.079127  -0.123981  0  3.948106  0
C  C49  1  0.43167774  0.82397967  0.59723301  1  0  -0.116881  0  3.714533  0  0  -0.128629  0  3.96162  0  0  -0.13586  0  3.983152  0  0  -0.079156  -0.123981  0  3.94809  0
C  C50  1  0.97102103  0.46378990  0.85067534  1  0  0.118428  0  3.734862  0  0  0.097363  0  3.982324  0  0  0.102685  0  4.001196  0  0  0.047238  0.093736  0  3.970186  0
C  C51  1  0.52898170  0.14932318  0.53621087  1  0  0.118392  0  3.734776  0  0  0.097327  0  3.982245  0  0  0.102648  0  4.001114  0  0  0.047224  0.093699  0  3.970103  0
C  C52  1  0.02898764  0.53620886  0.14932556  1  0  0.118452  0  3.734847  0  0  0.097387  0  3.982332  0  0  0.10271  0  4.001203  0  0  0.047255  0.093758  0  3.970189  0
C  C53  1  0.47102202  0.85067363  0.46378951  1  0  0.118481  0  3.734724  0  0  0.097417  0  3.982202  0  0  0.10274  0  4.00107  0  0  0.04726  0.093791  0  3.970055  0
C  C54  1  0.50003487  0.39709620  0.85134272  1  0  -0.009677  0  3.663904  0  0  -0.098383  0  3.925579  0  0  -0.091968  0  3.929943  0  0  -0.149855  -0.102499  0  3.922183  0
C  C55  1  0.99996240  0.14866038  0.60290474  1  0  -0.0098  0  3.663907  0  0  -0.098535  0  3.925577  0  0  -0.092119  0  3.929941  0  0  -0.149852  -0.102645  0  3.922181  0
C  C56  1  0.49995771  0.60290829  0.14865915  1  0  -0.009803  0  3.663942  0  0  -0.098519  0  3.92559  0  0  -0.092105  0  3.929955  0  0  -0.149884  -0.102626  0  3.922196  0
C  C57  1  0.00003367  0.85134218  0.39709503  1  0  -0.009642  0  3.663862  0  0  -0.098337  0  3.925518  0  0  -0.09193  0  3.929881  0  0  -0.149828  -0.102441  0  3.922128  0
Br  Br58  1  0.30653940  0.05287389  0.18114583  1  0  -0.689276  0  0.826671  0  0  -0.622699  0  1.094935  0  0  -0.640474  0  1.074083  0  0  -0.25768  -0.609226  0  1.109649  0
Br  Br59  1  0.19346048  0.81885524  0.94712395  1  0  -0.689259  0  0.826685  0  0  -0.622677  0  1.094954  0  0  -0.640454  0  1.074101  0  0  -0.257671  -0.609202  0  1.109669  0
Br  Br60  1  0.69346330  0.94712580  0.81885418  1  0  -0.689264  0  0.826673  0  0  -0.622678  0  1.094931  0  0  -0.640455  0  1.074079  0  0  -0.257675  -0.609203  0  1.109646  0
Br  Br61  1  0.80653906  0.18114537  0.05287371  1  0  -0.689271  0  0.82668  0  0  -0.622691  0  1.09495  0  0  -0.640467  0  1.074097  0  0  -0.25767  -0.609217  0  1.109665  0
N  N62  1  0.09446864  0.38447241  0.76828747  1  0  -0.384037  0  3.136825  0  0  -0.332037  0  3.393763  0  0  -0.34662  0  3.410854  0  0  -0.356029  -0.322233  0  3.382202  0
N  N63  1  0.40553548  0.23171165  0.61552733  1  0  -0.38408  0  3.136813  0  0  -0.332062  0  3.393768  0  0  -0.346647  0  3.410859  0  0  -0.356075  -0.322259  0  3.382204  0
N  N64  1  0.90554109  0.61552730  0.23171213  1  0  -0.384018  0  3.136886  0  0  -0.332015  0  3.393835  0  0  -0.346598  0  3.410924  0  0  -0.356063  -0.322207  0  3.382266  0
N  N65  1  0.59446926  0.76828228  0.38447344  1  0  -0.384049  0  3.136845  0  0  -0.332099  0  3.393752  0  0  -0.346678  0  3.410849  0  0  -0.356085  -0.322291  0  3.382182  0
O  O66  1  0.43601396  0.28906921  0.93056090  1  0  -0.566215  0  2.181142  0  0  -0.49196  0  2.415745  0  0  -0.511187  0  2.405982  0  0  -0.453924  -0.478468  0  2.422316  0
O  O67  1  0.06397924  0.06944589  0.71093553  1  0  -0.566144  0  2.181132  0  0  -0.491882  0  2.415743  0  0  -0.511109  0  2.405978  0  0  -0.453978  -0.478391  0  2.422312  0
O  O68  1  0.56397448  0.71093914  0.06944373  1  0  -0.56623  0  2.181205  0  0  -0.492011  0  2.415808  0  0  -0.511237  0  2.406041  0  0  -0.454038  -0.478513  0  2.422379  0
O  O69  1  0.93601234  0.93056150  0.28906779  1  0  -0.566254  0  2.181083  0  0  -0.49201  0  2.415693  0  0  -0.511233  0  2.405937  0  0  -0.453966  -0.478514  0  2.422261  0
