# generated using pymatgen
data_Al2H11C22S2N2ClO12
_symmetry_space_group_name_H-M   'P 1'
_cell_length_a   6.65120396
_cell_length_b   12.74199398
_cell_length_c   16.95252944
_cell_angle_alpha   84.71814454
_cell_angle_beta   82.50618962
_cell_angle_gamma   74.75037835
_symmetry_Int_Tables_number   1
_chemical_formula_structural   Al2H11C22S2N2ClO12
_chemical_formula_sum   'Al2 H11 C22 S2 N2 Cl1 O12'
_cell_volume   1371.78578023
_cell_formula_units_Z   1
loop_
 _symmetry_equiv_pos_site_id
 _symmetry_equiv_pos_as_xyz
  1  'x, y, z'
loop_
 _atom_site_type_symbol
 _atom_site_label
 _atom_site_symmetry_multiplicity
 _atom_site_fract_x
 _atom_site_fract_y
 _atom_site_fract_z
 _atom_site_occupancy
 _atom_site_pbe_bader_charge
 _atom_site_pbe_bader_spin_density
 _atom_site_pbe_cm5_charge
 _atom_site_pbe_ddec_charge
 _atom_site_pbe_ddec_spin_density
 _atom_site_pbe_ddec_sum_bond_order
 _atom_site_pbe_magmom
Al  Al0  1  0.49926432  0.50268248  0.49901857  1  2.502234  0  0.397123  1.647461  0  2.571151  0
Al  Al1  1  0.00048841  0.49934972  0.49928678  1  2.505028  0  0.400324  1.646017  0  2.569405  0
H  H2  1  0.20952993  0.61987913  0.43333442  1  0.621648  0  0.356664  0.434682  0  0.845687  0
H  H3  1  0.78957826  0.37388586  0.55162651  1  0.635715  0  0.341664  0.419365  0  0.882145  0
H  H4  1  0.88808166  0.45560580  0.73804454  1  0.111005  0  0.107413  0.113656  0  1.005659  0
H  H5  1  0.82552457  0.45227017  0.88686736  1  0.095071  0  0.105341  0.111594  0  1.026413  0
H  H6  1  0.39191772  0.55513378  0.89161629  1  0.102272  0  0.115848  0.138024  0  0.98762  0
H  H7  1  0.59536369  0.45821522  0.10571993  1  0.09906  0  0.115256  0.137348  0  0.993074  0
H  H8  1  0.19115375  0.53068008  0.11072431  1  0.117367  0  0.103744  0.108942  0  1.035139  0
H  H9  1  0.12896523  0.52937426  0.25905333  1  0.125822  0  0.105234  0.112547  0  1.024289  0
H  H10  1  0.30578785  0.85572361  0.45070063  1  0.11701  0  0.117854  0.138837  0  0.983219  0
H  H11  1  0.49559462  0.55491016  0.68054759  1  0.635514  0  0.314329  0.359359  0  0.955786  0
H  H12  1  0.49622631  0.45803668  0.31717472  1  0.630452  0  0.314554  0.359299  0  0.958423  0
C  C13  1  0.66053695  0.69579043  0.50272537  1  1.569181  0  0.263404  0.651512  0  4.137901  0
C  C14  1  0.79450242  0.49708941  0.35414769  1  1.481065  0  0.26204  0.65209  0  4.080511  0
C  C15  1  0.34182980  0.30572496  0.49908405  1  1.632035  0  0.260076  0.665764  0  4.128596  0
C  C16  1  0.20701696  0.50502066  0.64329959  1  1.512833  0  0.261749  0.648113  0  4.087  0
C  C17  1  0.17516776  0.50542026  0.73066666  1  -0.011515  0  -0.035598  -0.20359  0  3.978386  0
C  C18  1  0.99774537  0.47632289  0.77254321  1  -0.052624  0  -0.077952  -0.04102  0  3.996836  0
C  C19  1  0.96156005  0.47501276  0.85453690  1  0.033307  0  -0.098644  -0.179888  0  3.97714  0
C  C20  1  0.10533914  0.50448817  0.89713635  1  0.36369  0  0.093901  0.199972  0  4.057539  0
C  C21  1  0.28282095  0.53292934  0.85751851  1  -0.018007  0  -0.089271  -0.259926  0  3.886893  0
C  C22  1  0.32034857  0.53362447  0.77418407  1  0.486525  0  0.097127  0.327137  0  4.051899  0
C  C23  1  0.71075146  0.47444350  0.13985723  1  0.087024  0  -0.089798  -0.261946  0  3.888178  0
C  C24  1  0.89565929  0.49457571  0.10018186  1  0.350105  0  0.093787  0.201202  0  4.057553  0
C  C25  1  0.04830257  0.51533706  0.14294076  1  -0.061523  0  -0.098839  -0.179262  0  3.978834  0
C  C26  1  0.01212846  0.51523087  0.22489599  1  0.032512  0  -0.080501  -0.04338  0  3.995576  0
C  C27  1  0.82671864  0.49516102  0.26681537  1  -0.009351  0  -0.037919  -0.208538  0  3.980189  0
C  C28  1  0.67412049  0.47426602  0.22319829  1  0.462299  0  0.096848  0.328668  0  4.051566  0
C  C29  1  0.58120371  0.11512089  0.53204916  1  0.136512  0  0.00942  0.101947  0  4.08486  0
C  C30  1  0.42190080  0.88455717  0.47610449  1  0.077848  0  -0.08519  -0.126494  0  3.96276  0
C  C31  1  0.40747120  0.18642014  0.50172665  1  -0.132443  0  -0.025706  -0.195976  0  3.948867  0
C  C32  1  0.59858422  0.81500850  0.50412386  1  -0.141782  0  -0.017942  -0.122242  0  3.970921  0
C  C33  1  0.41743566  0.99421987  0.48499556  1  -0.161337  0  -0.019963  0.00359  0  4.07397  0
C  C34  1  0.58881820  0.00529528  0.52150824  1  -0.172813  0  -0.027807  -0.085532  0  4.088743  0
S  S35  1  0.25126540  0.11871945  0.46246674  1  0.304359  0  0.10189  0.154215  0  2.813353  0
S  S36  1  0.75898884  0.88147237  0.54249196  1  0.285979  0  0.09909  0.149927  0  2.756808  0
N  N37  1  0.08515598  0.50767616  0.98106843  1  -0.438456  0  -0.142475  -0.12747  0  3.259104  0
N  N38  1  0.91450176  0.49187360  0.01616552  1  -0.515038  0  -0.14334  -0.127995  0  3.252815  0
Cl  Cl39  1  0.76220701  0.14942698  0.58075972  1  -0.167979  0  0.026668  -0.02736  0  1.579345  0
O  O40  1  0.52343999  0.64971164  0.48639869  1  -1.264073  0  -0.237  -0.592105  0  2.324387  0
O  O41  1  0.93427095  0.51723009  0.39073860  1  -1.269024  0  -0.238927  -0.59483  0  2.347824  0
O  O42  1  0.15434938  0.35050808  0.48333473  1  -1.259086  0  -0.238802  -0.588302  0  2.310281  0
O  O43  1  0.37727258  0.52715961  0.60751946  1  -1.259656  0  -0.240625  -0.610662  0  2.369362  0
O  O44  1  0.47556281  0.35551545  0.51248923  1  -1.258729  0  -0.235478  -0.596565  0  2.37904  0
O  O45  1  0.07044701  0.48174286  0.60677363  1  -1.265885  0  -0.235054  -0.586354  0  2.353719  0
O  O46  1  0.84722338  0.64760941  0.51713936  1  -1.254837  0  -0.235774  -0.58451  0  2.321751  0
O  O47  1  0.62014949  0.47953451  0.38979944  1  -1.260907  0  -0.242817  -0.613901  0  2.373615  0
O  O48  1  0.23751218  0.54925738  0.46211916  1  -1.421817  0  -0.448051  -0.993193  0  2.200545  0
O  O49  1  0.76181165  0.45095390  0.53523946  1  -1.438525  0  -0.449702  -0.990555  0  2.193075  0
O  O50  1  0.49451598  0.56146093  0.73894396  1  -1.136311  0  -0.344681  -0.434567  0  2.269719  0
O  O51  1  0.49334404  0.45386869  0.25864249  1  -1.141748  0  -0.34349  -0.435102  0  2.288561  0
