# generated using pymatgen
data_Cd3H14C18(N2O3)4
_symmetry_space_group_name_H-M   'P 1'
_cell_length_a   6.90331106
_cell_length_b   11.06885507
_cell_length_c   17.75792384
_cell_angle_alpha   82.97631154
_cell_angle_beta   78.74518499
_cell_angle_gamma   71.82695050
_symmetry_Int_Tables_number   1
_chemical_formula_structural   Cd3H14C18(N2O3)4
_chemical_formula_sum   'Cd6 H28 C36 N16 O24'
_cell_volume   1261.68779194
_cell_formula_units_Z   2
loop_
 _symmetry_equiv_pos_site_id
 _symmetry_equiv_pos_as_xyz
  1  'x, y, z'
loop_
 _atom_site_type_symbol
 _atom_site_label
 _atom_site_symmetry_multiplicity
 _atom_site_fract_x
 _atom_site_fract_y
 _atom_site_fract_z
 _atom_site_occupancy
 _atom_site_hle17_bader_spin_density
 _atom_site_hle17_ddec_charge
 _atom_site_hle17_ddec_spin_density
 _atom_site_hle17_ddec_sum_bond_order
 _atom_site_hle17_magmom
 _atom_site_hse06_10hf_bader_spin_density
 _atom_site_hse06_10hf_ddec_charge
 _atom_site_hse06_10hf_ddec_spin_density
 _atom_site_hse06_10hf_ddec_sum_bond_order
 _atom_site_hse06_10hf_magmom
 _atom_site_hse06_bader_spin_density
 _atom_site_hse06_ddec_charge
 _atom_site_hse06_ddec_spin_density
 _atom_site_hse06_ddec_sum_bond_order
 _atom_site_hse06_magmom
 _atom_site_pbe_bader_charge
 _atom_site_pbe_bader_spin_density
 _atom_site_pbe_cm5_charge
 _atom_site_pbe_ddec_charge
 _atom_site_pbe_ddec_spin_density
 _atom_site_pbe_ddec_sum_bond_order
 _atom_site_pbe_magmom
Cd  Cd0  1  0.66779607  0.99793614  0.09488884  1  0  1.183928  0  1.629289  0  0  0.995957  0  2.079733  0  0  1.054649  0  2.021839  0  1.302512  0  0.790746  0.953714  0  2.119638  0
Cd  Cd1  1  0.76017151  0.50209799  0.40497076  1  0  1.183816  0  1.628736  0  0  0.995852  0  2.07919  0  0  1.054605  0  2.021293  0  1.300413  0  0.791193  0.954587  0  2.1184  0
Cd  Cd2  1  0.33220158  0.00205834  0.90511036  1  0  1.183879  0  1.629351  0  0  0.995883  0  2.079806  0  0  1.05458  0  2.021908  0  1.302492  0  0.790736  0.95364  0  2.11971  0
Cd  Cd3  1  0.23982817  0.49790412  0.59502982  1  0  1.183792  0  1.628616  0  0  0.995836  0  2.079051  0  0  1.054592  0  2.021159  0  1.300474  0  0.791163  0.95457  0  2.118262  0
Cd  Cd4  1  0.94768542  0.75014857  0.24982651  1  0  1.163997  0  1.706903  0  0  0.972376  0  2.164633  0  0  1.024271  0  2.112944  0  1.316406  0  0.811709  0.935139  0  2.200182  0
Cd  Cd5  1  0.05231404  0.24985068  0.75017284  1  0  1.163996  0  1.706919  0  0  0.972376  0  2.164651  0  0  1.024276  0  2.112965  0  1.316407  0  0.811707  0.935141  0  2.200199  0
H  H6  1  0.34778443  0.40599044  0.04924222  1  0  0.113783  0  0.937898  0  0  0.122271  0  1.000691  0  0  0.126485  0  0.996976  0  0.106622  0  0.109954  0.119149  0  1.003593  0
H  H7  1  0.80306992  0.09351176  0.45046951  1  0  0.113955  0  0.938425  0  0  0.122065  0  1.001482  0  0  0.126332  0  0.99768  0  0.134663  0  0.109971  0.118998  0  1.004138  0
H  H8  1  0.65221848  0.59400596  0.95076106  1  0  0.113772  0  0.938021  0  0  0.122313  0  1.000746  0  0  0.126524  0  0.997028  0  0.106181  0  0.109939  0.119181  0  1.003662  0
H  H9  1  0.19693194  0.90649036  0.54953186  1  0  0.114023  0  0.938353  0  0  0.122119  0  1.001414  0  0  0.126381  0  0.997615  0  0.13466  0  0.109997  0.119052  0  1.00407  0
H  H10  1  0.94870200  0.14775677  0.09592802  1  0  0.405217  0  0.901984  0  0  0.362607  0  0.985452  0  0  0.373958  0  0.969124  0  0.639541  0  0.289063  0.354625  0  0.996909  0
H  H11  1  0.19315663  0.35276697  0.40408609  1  0  0.405681  0  0.900094  0  0  0.36309  0  0.984285  0  0  0.374427  0  0.967969  0  0.643523  0  0.289656  0.355127  0  0.995722  0
H  H12  1  0.05129620  0.85224058  0.90407062  1  0  0.405189  0  0.902056  0  0  0.362581  0  0.985497  0  0  0.373931  0  0.96917  0  0.639661  0  0.289059  0.354598  0  0.996954  0
H  H13  1  0.80684419  0.64723228  0.59591337  1  0  0.405675  0  0.900098  0  0  0.363082  0  0.984294  0  0  0.374419  0  0.967976  0  0.643528  0  0.289658  0.355119  0  0.99573  0
H  H14  1  0.77098059  0.16498588  0.16924208  1  0  0.431974  0  0.812632  0  0  0.410986  0  0.870006  0  0  0.419437  0  0.860767  0  0.617995  0  0.320145  0.404881  0  0.876788  0
H  H15  1  0.10692459  0.33467641  0.33087688  1  0  0.432569  0  0.811586  0  0  0.41173  0  0.868863  0  0  0.420184  0  0.859556  0  0.623808  0  0.32071  0.405774  0  0.875409  0
H  H16  1  0.22901715  0.83501242  0.83075652  1  0  0.431997  0  0.812601  0  0  0.41101  0  0.869971  0  0  0.419461  0  0.860729  0  0.618079  0  0.320154  0.404904  0  0.876752  0
H  H17  1  0.89307135  0.66532380  0.66912401  1  0  0.432576  0  0.811588  0  0  0.411738  0  0.86886  0  0  0.420193  0  0.85955  0  0.623808  0  0.320718  0.405784  0  0.875403  0
H  H18  1  0.43774841  0.26654710  0.82583654  1  0  0.120698  0  0.957166  0  0  0.127813  0  1.023683  0  0  0.131626  0  1.020558  0  0.164505  0  0.109295  0.125032  0  1.025917  0
H  H19  1  0.53145570  0.23302276  0.67396194  1  0  0.121499  0  0.956007  0  0  0.128384  0  1.022564  0  0  0.132172  0  1.019458  0  0.125924  0  0.109279  0.125561  0  1.024923  0
H  H20  1  0.56224662  0.73345216  0.17416428  1  0  0.120674  0  0.95719  0  0  0.127792  0  1.0237  0  0  0.131599  0  1.020585  0  0.164466  0  0.109269  0.125012  0  1.025933  0
H  H21  1  0.46854399  0.76697650  0.32603865  1  0  0.121484  0  0.955969  0  0  0.12841  0  1.022489  0  0  0.132197  0  1.019378  0  0.125905  0  0.109273  0.125586  0  1.02485  0
H  H22  1  0.10249961  0.65878569  0.86234714  1  0  0.103136  0  0.956439  0  0  0.113337  0  1.019441  0  0  0.117182  0  1.01578  0  0.1065  0  0.109049  0.110587  0  1.021942  0
H  H23  1  0.62330749  0.84086918  0.63753311  1  0  0.103282  0  0.955491  0  0  0.113285  0  1.018735  0  0  0.117112  0  1.015113  0  0.101688  0  0.109222  0.11048  0  1.021373  0
H  H24  1  0.89750302  0.34121832  0.13765246  1  0  0.103177  0  0.956397  0  0  0.113362  0  1.019406  0  0  0.117209  0  1.015746  0  0.106542  0  0.109069  0.110614  0  1.021904  0
H  H25  1  0.37669686  0.15913294  0.36246725  1  0  0.103383  0  0.95544  0  0  0.113339  0  1.01873  0  0  0.117167  0  1.015107  0  0.101671  0  0.109261  0.110535  0  1.021367  0
H  H26  1  0.22775460  0.50390953  0.28398429  1  0  0.44123  0  0.84647  0  0  0.413658  0  0.901899  0  0  0.424172  0  0.886738  0  0.655836  0  0.29529  0.406162  0  0.91271  0
H  H27  1  0.01561815  0.99629995  0.21558295  1  0  0.441959  0  0.845396  0  0  0.413998  0  0.901629  0  0  0.424533  0  0.88642  0  0.651347  0  0.295114  0.406528  0  0.912388  0
H  H28  1  0.77224429  0.49608972  0.71601562  1  0  0.44121  0  0.846503  0  0  0.413631  0  0.901944  0  0  0.424146  0  0.886781  0  0.655844  0  0.295275  0.406136  0  0.912755  0
H  H29  1  0.98438050  0.00369930  0.78441572  1  0  0.441971  0  0.84537  0  0  0.414009  0  0.901603  0  0  0.424545  0  0.886394  0  0.65133  0  0.295117  0.406539  0  0.912363  0
H  H30  1  0.26053360  0.54511740  0.19370688  1  0  0.412915  0  0.856806  0  0  0.380475  0  0.939271  0  0  0.390798  0  0.925009  0  0.620176  0  0.302474  0.373132  0  0.947769  0
H  H31  1  0.99881935  0.95524168  0.30586262  1  0  0.414217  0  0.855663  0  0  0.381845  0  0.937802  0  0  0.392191  0  0.923126  0  0.625811  0  0.302925  0.374486  0  0.946294  0
H  H32  1  0.73946347  0.45488280  0.80629288  1  0  0.412919  0  0.856777  0  0  0.380477  0  0.939247  0  0  0.390801  0  0.925  0  0.62018  0  0.302481  0.373135  0  0.947744  0
H  H33  1  0.00117873  0.04475757  0.69413662  1  0  0.414197  0  0.855693  0  0  0.381827  0  0.937832  0  0  0.392172  0  0.923155  0  0.6258  0  0.302919  0.374467  0  0.946325  0
C  C34  1  0.26996619  0.46648386  0.83606356  1  0  -0.063801  0  3.775975  0  0  -0.036329  0  4.014582  0  0  -0.046229  0  4.037689  0  -0.017629  0  -0.018609  -0.030092  0  3.998935  0
C  C35  1  0.57305964  0.03315937  0.66379313  1  0  -0.063761  0  3.773634  0  0  -0.03621  0  4.012272  0  0  -0.046144  0  4.035409  0  -0.019537  0  -0.018398  -0.029995  0  3.996843  0
C  C36  1  0.73002874  0.53351730  0.16393785  1  0  -0.063766  0  3.776015  0  0  -0.036336  0  4.014679  0  0  -0.046236  0  4.037791  0  -0.017631  0  -0.018627  -0.0301  0  3.999035  0
C  C37  1  0.42693218  0.96684275  0.33620499  1  0  -0.063718  0  3.773625  0  0  -0.03616  0  4.012246  0  0  -0.046099  0  4.035384  0  -0.019859  0  -0.018372  -0.029945  0  3.996819  0
C  C38  1  0.21721479  0.54571871  0.96208987  1  0  -0.000675  0  3.803826  0  0  0.020481  0  4.043876  0  0  0.016416  0  4.066602  0  0.013949  0  -0.004914  0.022877  0  4.028752  0
C  C39  1  0.72491325  0.95393711  0.53774882  1  0  -0.001833  0  3.804999  0  0  0.020264  0  4.044006  0  0  0.016221  0  4.06674  0  -0.002653  0  -0.004191  0.022726  0  4.028446  0
C  C40  1  0.78278431  0.45428531  0.03790883  1  0  -0.000742  0  3.803849  0  0  0.020446  0  4.043887  0  0  0.01638  0  4.066613  0  0.013815  0  -0.004964  0.022843  0  4.028763  0
C  C41  1  0.27508928  0.04606309  0.46225138  1  0  -0.001927  0  3.805003  0  0  0.020165  0  4.043977  0  0  0.016121  0  4.066709  0  -0.002654  0  -0.004245  0.022628  0  4.028418  0
C  C42  1  0.23942366  0.49237041  0.75417771  1  0  0.65265  0  3.899023  0  0  0.602374  0  4.184269  0  0  0.637179  0  4.178377  0  1.546013  0  0.200594  0.578646  0  4.187565  0
C  C43  1  0.48650661  0.00727568  0.74576289  1  0  0.653592  0  3.89676  0  0  0.603032  0  4.182491  0  0  0.63788  0  4.176602  0  1.538468  0  0.20106  0.579278  0  4.185844  0
C  C44  1  0.76057922  0.50763075  0.24582314  1  0  0.652557  0  3.898988  0  0  0.602278  0  4.184241  0  0  0.637085  0  4.178361  0  1.546059  0  0.200574  0.578551  0  4.187542  0
C  C45  1  0.51349172  0.99272357  0.25423758  1  0  0.653571  0  3.896734  0  0  0.603017  0  4.182459  0  0  0.637867  0  4.176569  0  1.538457  0  0.201073  0.579263  0  4.185811  0
C  C46  1  0.12643597  0.64749720  0.01461591  1  0  0.281519  0  3.777887  0  0  0.258181  0  4.048938  0  0  0.267101  0  4.066223  0  0.977193  0  0.224445  0.252063  0  4.037699  0
C  C47  1  0.78822422  0.85227488  0.48516821  1  0  0.282385  0  3.777104  0  0  0.257508  0  4.050016  0  0  0.26637  0  4.06734  0  0.934556  0  0.223378  0.251595  0  4.038224  0
C  C48  1  0.87356610  0.35250110  0.98538426  1  0  0.28146  0  3.777715  0  0  0.258068  0  4.048836  0  0  0.267  0  4.066099  0  0.977178  0  0.224383  0.25195  0  4.037596  0
C  C49  1  0.21177649  0.14772627  0.51483184  1  0  0.282405  0  3.777077  0  0  0.257576  0  4.049924  0  0  0.266439  0  4.067247  0  0.934585  0  0.223396  0.251663  0  4.038132  0
C  C50  1  0.32593437  0.42420679  0.98941667  1  0  -0.061195  0  3.652368  0  0  -0.103291  0  3.908997  0  0  -0.100559  0  3.926297  0  -0.037271  0  -0.069522  -0.104907  0  3.897452  0
C  C51  1  0.73998764  0.07535544  0.51036253  1  0  -0.061683  0  3.652428  0  0  -0.10288  0  3.908453  0  0  -0.100199  0  3.925649  0  0.010277  0  -0.069726  -0.104313  0  3.896431  0
C  C52  1  0.67407042  0.57579723  0.01058371  1  0  -0.061269  0  3.652725  0  0  -0.10343  0  3.909344  0  0  -0.100697  0  3.926645  0  -0.037071  0  -0.069539  -0.105042  0  3.897802  0
C  C53  1  0.26001751  0.92464667  0.48963850  1  0  -0.061655  0  3.652373  0  0  -0.102807  0  3.908393  0  0  -0.100122  0  3.925598  0  0.010301  0  -0.069721  -0.10424  0  3.896374  0
C  C54  1  0.40410648  0.32368427  0.94071601  1  0  -0.068757  0  3.751506  0  0  -0.045054  0  3.997437  0  0  -0.055073  0  4.020783  0  -0.001551  0  -0.020697  -0.038543  0  3.981645  0
C  C55  1  0.66953197  0.17592369  0.55901715  1  0  -0.069111  0  3.749701  0  0  -0.046356  0  3.996621  0  0  -0.05635  0  4.019903  0  -0.02086  0  -0.021172  -0.040181  0  3.98116  0
C  C56  1  0.59588787  0.67631974  0.05928597  1  0  -0.068632  0  3.751558  0  0  -0.04493  0  3.997468  0  0  -0.054946  0  4.020811  0  -0.00133  0  -0.02067  -0.038418  0  3.981675  0
C  C57  1  0.33047497  0.82407937  0.44098159  1  0  -0.069279  0  3.749841  0  0  -0.046607  0  3.996887  0  0  -0.056605  0  4.020167  0  -0.020756  0  -0.021202  -0.040431  0  3.981428  0
C  C58  1  0.51419978  0.19376268  0.97261969  1  0  0.661132  0  3.894916  0  0  0.604643  0  4.192958  0  0  0.640903  0  4.186041  0  1.571148  0  0.204404  0.579902  0  4.196806  0
C  C59  1  0.68116478  0.30590056  0.52697407  1  0  0.662717  0  3.894276  0  0  0.606878  0  4.191699  0  0  0.643135  0  4.18473  0  1.552288  0  0.204722  0.582378  0  4.195533  0
C  C60  1  0.48579762  0.80623466  0.02737828  1  0  0.660971  0  3.895136  0  0  0.604515  0  4.193124  0  0  0.640772  0  4.18621  0  1.571005  0  0.204389  0.579775  0  4.19697  0
C  C61  1  0.31883750  0.69410251  0.47302490  1  0  0.662762  0  3.894334  0  0  0.606939  0  4.191767  0  0  0.643199  0  4.184794  0  1.552552  0  0.204743  0.58244  0  4.195603  0
C  C62  1  0.37599419  0.34464509  0.86383481  1  0  -0.054907  0  3.655763  0  0  -0.098761  0  3.913463  0  0  -0.09529  0  3.931704  0  -0.025128  0  -0.075681  -0.100459  0  3.900793  0
C  C63  1  0.58548850  0.15494382  0.63595443  1  0  -0.055251  0  3.653787  0  0  -0.098904  0  3.912073  0  0  -0.095408  0  3.930307  0  0.023228  0  -0.075737  -0.100753  0  3.899833  0
C  C64  1  0.62400539  0.65535607  0.13616637  1  0  -0.05495  0  3.655831  0  0  -0.098783  0  3.913507  0  0  -0.095314  0  3.931753  0  -0.025132  0  -0.075676  -0.100483  0  3.900842  0
C  C65  1  0.41452643  0.84505448  0.36404617  1  0  -0.055176  0  3.653864  0  0  -0.098825  0  3.912136  0  0  -0.095339  0  3.930404  0  0.023255  0  -0.07573  -0.100676  0  3.899899  0
C  C66  1  0.19045526  0.56629739  0.88495968  1  0  -0.074748  0  3.673103  0  0  -0.113703  0  3.919253  0  0  -0.111109  0  3.936659  0  -0.059082  0  -0.072418  -0.114797  0  3.907155  0
C  C67  1  0.64164457  0.93332889  0.61490671  1  0  -0.075014  0  3.673186  0  0  -0.113934  0  3.919229  0  0  -0.111319  0  3.936598  0  -0.058076  0  -0.073137  -0.115177  0  3.907166  0
C  C68  1  0.80953532  0.43370377  0.11504016  1  0  -0.074715  0  3.672992  0  0  -0.113649  0  3.919133  0  0  -0.11106  0  3.936545  0  -0.059041  0  -0.072366  -0.114743  0  3.907036  0
C  C69  1  0.35835590  0.06667227  0.38509211  1  0  -0.075095  0  3.673089  0  0  -0.113983  0  3.919139  0  0  -0.111367  0  3.936508  0  -0.05777  0  -0.073156  -0.115224  0  3.90707  0
N  N70  1  0.01219509  0.76708894  0.99570908  1  0  -0.289146  0  3.017815  0  0  -0.253333  0  3.282299  0  0  -0.263823  0  3.296951  0  -0.678097  0  -0.198795  -0.246306  0  3.272515  0
N  N71  1  0.77489733  0.73260499  0.50400548  1  0  -0.289594  0  3.015078  0  0  -0.253414  0  3.280065  0  0  -0.263861  0  3.294712  0  -0.660583  0  -0.198938  -0.246338  0  3.270082  0
N  N72  1  0.98780541  0.23290745  0.00429219  1  0  -0.289158  0  3.01769  0  0  -0.253315  0  3.282171  0  0  -0.263809  0  3.296821  0  -0.677879  0  -0.19876  -0.246288  0  3.272387  0
N  N73  1  0.22510394  0.26739616  0.49599401  1  0  -0.289654  0  3.015065  0  0  -0.2535  0  3.280048  0  0  -0.263947  0  3.294693  0  -0.660635  0  -0.198957  -0.246424  0  3.270067  0
N  N74  1  0.14020435  0.63329462  0.09011361  1  0  -0.298408  0  2.987293  0  0  -0.271606  0  3.257089  0  0  -0.281929  0  3.273899  0  -0.658003  0  -0.205279  -0.264657  0  3.24582  0
N  N75  1  0.86290227  0.86673380  0.40962325  1  0  -0.299336  0  2.991421  0  0  -0.272341  0  3.261839  0  0  -0.282626  0  3.27867  0  -0.661248  0  -0.204734  -0.26531  0  3.250295  0
N  N76  1  0.85979546  0.36670273  0.90988638  1  0  -0.298359  0  2.987206  0  0  -0.271536  0  3.257002  0  0  -0.281862  0  3.273808  0  -0.657941  0  -0.205243  -0.264587  0  3.245731  0
N  N77  1  0.13709889  0.13326640  0.59037685  1  0  -0.29932  0  2.991449  0  0  -0.272331  0  3.261851  0  0  -0.282617  0  3.278684  0  -0.661206  0  -0.204731  -0.265299  0  3.250305  0
N  N78  1  0.95502786  0.82617774  0.06107136  1  0  -0.130137  0  3.193178  0  0  -0.085691  0  3.490231  0  0  -0.095328  0  3.507862  0  -0.197853  0  -0.115999  -0.078787  0  3.477913  0
N  N79  1  0.84199508  0.67374014  0.43855984  1  0  -0.129528  0  3.192794  0  0  -0.084786  0  3.489388  0  0  -0.094481  0  3.507063  0  -0.181738  0  -0.115704  -0.078224  0  3.477136  0
N  N80  1  0.04497149  0.17382056  0.93892858  1  0  -0.1301  0  3.193068  0  0  -0.085656  0  3.490118  0  0  -0.095295  0  3.507752  0  -0.197891  0  -0.115969  -0.078752  0  3.477801  0
N  N81  1  0.15800539  0.32626102  0.56143898  1  0  -0.129484  0  3.192784  0  0  -0.084734  0  3.48938  0  0  -0.094427  0  3.507052  0  -0.181778  0  -0.115711  -0.07817  0  3.477124  0
N  N82  1  0.03172805  0.74568787  0.11728830  1  0  -0.122646  0  3.216253  0  0  -0.072252  0  3.505509  0  0  -0.08069  0  3.524714  0  -0.191895  0  -0.117779  -0.06622  0  3.492194  0
N  N83  1  0.89404342  0.75444060  0.38235440  1  0  -0.121775  0  3.216956  0  0  -0.071326  0  3.505896  0  0  -0.079741  0  3.525094  0  -0.202825  0  -0.11789  -0.065321  0  3.492695  0
N  N84  1  0.96827175  0.25430947  0.88271169  1  0  -0.122627  0  3.216109  0  0  -0.072232  0  3.505357  0  0  -0.08067  0  3.524563  0  -0.191927  0  -0.117795  -0.0662  0  3.492041  0
N  N85  1  0.10595466  0.24556151  0.61764483  1  0  -0.121816  0  3.216991  0  0  -0.071381  0  3.505954  0  0  -0.079797  0  3.525151  0  -0.202803  0  -0.117889  -0.065374  0  3.49275  0
O  O86  1  0.55924273  0.09659260  0.93393551  1  0  -0.657908  0  2.000569  0  0  -0.590502  0  2.252779  0  0  -0.618967  0  2.23881  0  -1.178877  0  -0.33964  -0.570383  0  2.261702  0
O  O87  1  0.59037786  0.40308493  0.56567125  1  0  -0.659346  0  2.001146  0  0  -0.592023  0  2.25321  0  0  -0.620542  0  2.239167  0  -1.187351  0  -0.339999  -0.572324  0  2.262004  0
O  O88  1  0.44075845  0.90340189  0.06606459  1  0  -0.657882  0  2.000707  0  0  -0.590474  0  2.252875  0  0  -0.618957  0  2.238941  0  -1.178764  0  -0.339637  -0.570356  0  2.2618  0
O  O89  1  0.40962660  0.59691813  0.43432850  1  0  -0.659352  0  2.001216  0  0  -0.592025  0  2.253278  0  0  -0.620549  0  2.239239  0  -1.187289  0  -0.340042  -0.572316  0  2.262051  0
O  O90  1  0.89181299  0.10209296  0.14350562  1  0  -0.816715  0  1.896858  0  0  -0.752777  0  2.084542  0  0  -0.774193  0  2.054604  0  -1.230365  0  -0.555898  -0.737417  0  2.10515  0
O  O91  1  0.13836060  0.39800768  0.35644420  1  0  -0.817482  0  1.892894  0  0  -0.754155  0  2.080806  0  0  -0.775481  0  2.050855  0  -1.239046  0  -0.557175  -0.739007  0  2.101408  0
O  O92  1  0.10818636  0.89790534  0.85649433  1  0  -0.816696  0  1.896902  0  0  -0.75275  0  2.084543  0  0  -0.774169  0  2.054609  0  -1.230562  0  -0.555893  -0.737389  0  2.105149  0
O  O93  1  0.86164158  0.60199157  0.64355537  1  0  -0.817485  0  1.892901  0  0  -0.754158  0  2.080822  0  0  -0.775484  0  2.050868  0  -1.239069  0  -0.557189  -0.739008  0  2.101421  0
O  O94  1  0.24509169  0.57409147  0.24522020  1  0  -0.805866  0  1.854584  0  0  -0.742055  0  2.047625  0  0  -0.764653  0  2.016888  0  -1.234221  0  -0.57448  -0.72604  0  2.067452  0
O  O95  1  0.06430195  0.92619139  0.25438906  1  0  -0.807556  0  1.853452  0  0  -0.743536  0  2.046361  0  0  -0.766176  0  2.015128  0  -1.235789  0  -0.574502  -0.72746  0  2.066209  0
O  O96  1  0.75490766  0.42590683  0.75477975  1  0  -0.805851  0  1.854591  0  0  -0.742045  0  2.04765  0  0  -0.764642  0  2.016927  0  -1.234228  0  -0.574471  -0.726028  0  2.067475  0
O  O97  1  0.93569704  0.07380882  0.74561025  1  0  -0.807548  0  1.853462  0  0  -0.743535  0  2.046369  0  0  -0.766175  0  2.015135  0  -1.235754  0  -0.574497  -0.72746  0  2.066217  0
O  O98  1  0.24363253  0.39631812  0.71749856  1  0  -0.709161  0  2.131493  0  0  -0.623802  0  2.402992  0  0  -0.657909  0  2.390581  0  -1.166094  0  -0.341791  -0.599543  0  2.410509  0
O  O99  1  0.35783032  0.10330605  0.78247638  1  0  -0.709137  0  2.129738  0  0  -0.623835  0  2.401751  0  0  -0.657943  0  2.389215  0  -1.163537  0  -0.341973  -0.59961  0  2.409325  0
O  O100  1  0.75636641  0.60368018  0.28250623  1  0  -0.709181  0  2.131541  0  0  -0.623817  0  2.403065  0  0  -0.657886  0  2.390556  0  -1.166149  0  -0.341811  -0.599541  0  2.410537  0
O  O101  1  0.64216857  0.89669321  0.21752353  1  0  -0.709117  0  2.129626  0  0  -0.623852  0  2.401687  0  0  -0.657945  0  2.389118  0  -1.163557  0  -0.341983  -0.59963  0  2.409266  0
O  O102  1  0.55845433  0.18923528  0.03985470  1  0  -0.633126  0  2.038664  0  0  -0.56002  0  2.29213  0  0  -0.591855  0  2.281606  0  -1.139195  0  -0.324874  -0.537587  0  2.2987  0
O  O103  1  0.78749379  0.31046513  0.45956592  1  0  -0.632766  0  2.037756  0  0  -0.559914  0  2.290917  0  0  -0.591807  0  2.280388  0  -1.137728  0  -0.324535  -0.537827  0  2.297252  0
O  O104  1  0.44154443  0.81076207  0.96014337  1  0  -0.633032  0  2.03869  0  0  -0.559921  0  2.292118  0  0  -0.591754  0  2.281598  0  -1.139218  0  -0.324863  -0.537487  0  2.298684  0
O  O105  1  0.21250726  0.68953984  0.54043477  1  0  -0.632786  0  2.03768  0  0  -0.559939  0  2.290843  0  0  -0.59183  0  2.28031  0  -1.138087  0  -0.324523  -0.537852  0  2.297179  0
O  O106  1  0.21318970  0.60243088  0.72191114  1  0  -0.603397  0  1.865637  0  0  -0.549897  0  2.071694  0  0  -0.57455  0  2.061351  0  -1.163655  0  -0.325053  -0.5326  0  2.078456  0
O  O107  1  0.53793101  0.89720303  0.77804934  1  0  -0.604012  0  1.865607  0  0  -0.550334  0  2.071623  0  0  -0.575041  0  2.061293  0  -1.154563  0  -0.325129  -0.533193  0  2.0785  0
O  O108  1  0.78681340  0.39756933  0.27808850  1  0  -0.603328  0  1.865633  0  0  -0.549819  0  2.071677  0  0  -0.574476  0  2.061335  0  -1.163657  0  -0.325017  -0.532527  0  2.07844  0
O  O109  1  0.46206869  0.10279622  0.22195124  1  0  -0.604011  0  1.865606  0  0  -0.550331  0  2.071613  0  0  -0.575039  0  2.061281  0  -1.154537  0  -0.325138  -0.53319  0  2.078488  0
