# generated using pymatgen
data_AgH11C12(N3O2)2
_symmetry_space_group_name_H-M   'P 1'
_cell_length_a   4.95502409
_cell_length_b   11.22125966
_cell_length_c   13.07637600
_cell_angle_alpha   90.00001358
_cell_angle_beta   89.99734153
_cell_angle_gamma   102.26676765
_symmetry_Int_Tables_number   1
_chemical_formula_structural   AgH11C12(N3O2)2
_chemical_formula_sum   'Ag2 H22 C24 N12 O8'
_cell_volume   710.46788218
_cell_formula_units_Z   2
loop_
 _symmetry_equiv_pos_site_id
 _symmetry_equiv_pos_as_xyz
  1  'x, y, z'
loop_
 _atom_site_type_symbol
 _atom_site_label
 _atom_site_symmetry_multiplicity
 _atom_site_fract_x
 _atom_site_fract_y
 _atom_site_fract_z
 _atom_site_occupancy
 _atom_site_hle17_bader_spin_density
 _atom_site_hle17_ddec_charge
 _atom_site_hle17_ddec_spin_density
 _atom_site_hle17_ddec_sum_bond_order
 _atom_site_hle17_magmom
 _atom_site_hse06_10hf_bader_spin_density
 _atom_site_hse06_10hf_ddec_charge
 _atom_site_hse06_10hf_ddec_spin_density
 _atom_site_hse06_10hf_ddec_sum_bond_order
 _atom_site_hse06_10hf_magmom
 _atom_site_hse06_bader_spin_density
 _atom_site_hse06_ddec_charge
 _atom_site_hse06_ddec_spin_density
 _atom_site_hse06_ddec_sum_bond_order
 _atom_site_hse06_magmom
 _atom_site_pbe_bader_spin_density
 _atom_site_pbe_cm5_charge
 _atom_site_pbe_ddec_charge
 _atom_site_pbe_ddec_spin_density
 _atom_site_pbe_ddec_sum_bond_order
 _atom_site_pbe_magmom
Ag  Ag0  1  0.32442217  0.50631620  0.25495644  1  0  0.510353  0  1.412286  0  0  0.362823  0  1.853542  0  0  0.390469  0  1.806877  0  0  0.473967  0.345576  0  1.885168  0
Ag  Ag1  1  0.67557232  0.49368370  0.75497090  1  0  0.510289  0  1.412435  0  0  0.362934  0  1.853537  0  0  0.390437  0  1.806958  0  0  0.473996  0.345553  0  1.885236  0
H  H2  1  0.89854361  0.62686592  0.13546096  1  0  0.108826  0  0.961176  0  0  0.114564  0  1.02762  0  0  0.118214  0  1.023924  0  0  0.122304  0.111715  0  1.030693  0
H  H3  1  0.10149906  0.37314613  0.63546362  1  0  0.108906  0  0.961056  0  0  0.114586  0  1.027544  0  0  0.11818  0  1.023944  0  0  0.122284  0.111693  0  1.030698  0
H  H4  1  0.65799636  0.61654324  0.96499342  1  0  0.110869  0  0.956228  0  0  0.117513  0  1.019702  0  0  0.120845  0  1.017213  0  0  0.1239  0.115118  0  1.021524  0
H  H5  1  0.34201312  0.38346173  0.46498838  1  0  0.110863  0  0.956238  0  0  0.117498  0  1.019697  0  0  0.120824  0  1.017217  0  0  0.123872  0.115108  0  1.021523  0
H  H6  1  0.03660538  0.33911046  0.87269943  1  0  0.104844  0  0.967447  0  0  0.11202  0  1.033707  0  0  0.115798  0  1.029752  0  0  0.122879  0.109041  0  1.03703  0
H  H7  1  0.96337876  0.66087439  0.37270141  1  0  0.104826  0  0.967466  0  0  0.111918  0  1.033867  0  0  0.115728  0  1.029859  0  0  0.122874  0.108981  0  1.037124  0
H  H8  1  0.22821857  0.12384527  0.02471025  1  0  0.136077  0  0.933992  0  0  0.158628  0  0.990842  0  0  0.160108  0  0.990739  0  0  0.105273  0.157574  0  0.990776  0
H  H9  1  0.77168380  0.87614771  0.52471336  1  0  0.136089  0  0.934186  0  0  0.158644  0  0.991022  0  0  0.16012  0  0.990921  0  0  0.105311  0.157594  0  0.990952  0
H  H10  1  0.55841971  0.20730449  0.98648971  1  0  0.125156  0  0.938659  0  0  0.147835  0  0.996381  0  0  0.14941  0  0.996082  0  0  0.101828  0.146604  0  0.99674  0
H  H11  1  0.44153220  0.79265138  0.48648641  1  0  0.125101  0  0.938436  0  0  0.147816  0  0.996174  0  0  0.149397  0  0.995866  0  0  0.101854  0.146584  0  0.996536  0
H  H12  1  0.26489997  0.21839861  0.91458939  1  0  0.137664  0  0.94815  0  0  0.158928  0  1.004822  0  0  0.160192  0  1.004954  0  0  0.10477  0.157815  0  1.00495  0
H  H13  1  0.73511582  0.78160055  0.41459384  1  0  0.137727  0  0.948095  0  0  0.159015  0  1.004737  0  0  0.160297  0  1.004845  0  0  0.1048  0.157911  0  1.004852  0
H  H14  1  0.83345925  0.22398475  0.47501464  1  0  0.111681  0  0.962245  0  0  0.11887  0  1.025752  0  0  0.1218  0  1.025185  0  0  0.108117  0.116697  0  1.026375  0
H  H15  1  0.16651192  0.77603852  0.97503159  1  0  0.111796  0  0.962422  0  0  0.118974  0  1.025902  0  0  0.121915  0  1.025317  0  0  0.108193  0.116771  0  1.026548  0
H  H16  1  0.15983444  0.08544330  0.51648208  1  0  0.111686  0  0.947546  0  0  0.119719  0  1.008272  0  0  0.123767  0  1.00453  0  0  0.108252  0.116645  0  1.011173  0
H  H17  1  0.84012953  0.91456982  0.01649202  1  0  0.111564  0  0.94746  0  0  0.119617  0  1.008222  0  0  0.123703  0  1.004411  0  0  0.10819  0.116568  0  1.011083  0
H  H18  1  0.28486152  0.95532286  0.37240120  1  0  0.106495  0  0.954349  0  0  0.117143  0  1.011377  0  0  0.120163  0  1.010872  0  0  0.105091  0.114963  0  1.011873  0
H  H19  1  0.71512172  0.04468625  0.87240162  1  0  0.106467  0  0.954202  0  0  0.117181  0  1.011173  0  0  0.120183  0  1.010702  0  0  0.10509  0.114976  0  1.011709  0
H  H20  1  0.10024500  0.97343518  0.19995682  1  0  0.081109  0  0.956742  0  0  0.080791  0  1.033865  0  0  0.084968  0  1.029212  0  0  0.107687  0.077808  0  1.03702  0
H  H21  1  0.89978257  0.02655855  0.69995991  1  0  0.081009  0  0.956715  0  0  0.080745  0  1.033753  0  0  0.084878  0  1.02918  0  0  0.107651  0.07772  0  1.036987  0
H  H22  1  0.60999935  0.18494968  0.14780503  1  0  0.282079  0  0.901076  0  0  0.256836  0  0.977889  0  0  0.265362  0  0.971232  0  0  0.321878  0.250687  0  0.982738  0
H  H23  1  0.38998811  0.81503128  0.64782517  1  0  0.28214  0  0.900908  0  0  0.256859  0  0.97777  0  0  0.265379  0  0.971123  0  0  0.321892  0.250712  0  0.982612  0
C  C24  1  0.92823534  0.56051445  0.07803744  1  0  0.092553  0  3.655141  0  0  0.061148  0  3.915513  0  0  0.064497  0  3.928395  0  0  0.056542  0.058467  0  3.907639  0
C  C25  1  0.07179107  0.43948801  0.57803804  1  0  0.092488  0  3.655384  0  0  0.061175  0  3.915603  0  0  0.064501  0  3.928541  0  0  0.056601  0.058467  0  3.907795  0
C  C26  1  0.79754945  0.55663607  0.98330478  1  0  0.0804  0  3.641643  0  0  0.04508  0  3.901007  0  0  0.050469  0  3.914848  0  0  0.051963  0.040922  0  3.892746  0
C  C27  1  0.20247236  0.44336314  0.48330567  1  0  0.080489  0  3.641749  0  0  0.045224  0  3.900986  0  0  0.050603  0  3.914838  0  0  0.052085  0.04105  0  3.892758  0
C  C28  1  0.00719131  0.40119294  0.93362149  1  0  0.053973  0  3.620212  0  0  0.015118  0  3.872217  0  0  0.018478  0  3.887555  0  0  0.054379  0.012428  0  3.862875  0
C  C29  1  0.99281880  0.59880153  0.43362198  1  0  0.054139  0  3.620393  0  0  0.015303  0  3.87239  0  0  0.018676  0  3.8877  0  0  0.054484  0.012635  0  3.863012  0
C  C30  1  0.13010541  0.40132595  0.03027284  1  0  0.117207  0  3.738322  0  0  0.117493  0  3.982885  0  0  0.118772  0  4.004521  0  0  0.121688  0.11633  0  3.968712  0
C  C31  1  0.86990413  0.59866870  0.53027923  1  0  0.117077  0  3.738582  0  0  0.117343  0  3.983084  0  0  0.118624  0  4.004735  0  0  0.121662  0.116167  0  3.968924  0
C  C32  1  0.30202946  0.31431620  0.06016954  1  0  0.203186  0  3.681609  0  0  0.197014  0  3.953107  0  0  0.204362  0  3.969571  0  0  0.129799  0.192189  0  3.942106  0
C  C33  1  0.69797698  0.68568001  0.56017815  1  0  0.203132  0  3.681711  0  0  0.197  0  3.953132  0  0  0.204327  0  3.969636  0  0  0.129815  0.192191  0  3.942116  0
C  C34  1  0.33901223  0.21126633  0.99255266  1  0  -0.372643  0  3.689279  0  0  -0.453646  0  3.92189  0  0  -0.456515  0  3.929359  0  0  -0.234656  -0.451214  0  3.916654  0
C  C35  1  0.66096963  0.78871794  0.49255756  1  0  -0.372594  0  3.68924  0  0  -0.453698  0  3.921825  0  0  -0.456552  0  3.929277  0  0  -0.234721  -0.451262  0  3.916577  0
C  C36  1  0.66069688  0.27062388  0.28651691  1  0  0.485468  0  3.833247  0  0  0.435615  0  4.122518  0  0  0.464452  0  4.122673  0  0  0.244314  0.415928  0  4.122201  0
C  C37  1  0.33931502  0.72937909  0.78653649  1  0  0.484924  0  3.833934  0  0  0.435256  0  4.123137  0  0  0.46408  0  4.123317  0  0  0.244134  0.415612  0  4.122743  0
C  C38  1  0.82682599  0.17935473  0.31482670  1  0  0.081515  0  3.815324  0  0  0.089437  0  4.06101  0  0  0.089096  0  4.081201  0  0  0.105781  0.089768  0  4.047138  0
C  C39  1  0.17317992  0.82064626  0.81484482  1  0  0.082042  0  3.814858  0  0  0.089599  0  4.060932  0  0  0.089254  0  4.081137  0  0  0.105847  0.089924  0  4.047029  0
C  C40  1  0.90702569  0.17010758  0.41635906  1  0  -0.100227  0  3.69546  0  0  -0.120957  0  3.935639  0  0  -0.125329  0  3.957786  0  0  -0.073415  -0.117951  0  3.920509  0
C  C41  1  0.09294952  0.82989889  0.91637102  1  0  -0.100487  0  3.695368  0  0  -0.12112  0  3.935669  0  0  -0.125479  0  3.957785  0  0  -0.073504  -0.118071  0  3.920545  0
C  C42  1  0.07951751  0.09033658  0.43916118  1  0  -0.02111  0  3.70233  0  0  -0.034305  0  3.946693  0  0  -0.033868  0  3.966178  0  0  -0.06907  -0.0343  0  3.933383  0
C  C43  1  0.92044719  0.90967095  0.93916946  1  0  -0.020928  0  3.702231  0  0  -0.034175  0  3.946587  0  0  -0.033724  0  3.966038  0  0  -0.068988  -0.034153  0  3.933223  0
C  C44  1  0.15198454  0.01983399  0.36011718  1  0  -0.102529  0  3.701261  0  0  -0.116623  0  3.950175  0  0  -0.122136  0  3.972498  0  0  -0.080321  -0.113133  0  3.935163  0
C  C45  1  0.84800166  0.98016650  0.86012149  1  0  -0.102587  0  3.701127  0  0  -0.116711  0  3.950017  0  0  -0.122237  0  3.972368  0  0  -0.080369  -0.113225  0  3.935027  0
C  C46  1  0.04926895  0.03067465  0.26144752  1  0  0.1325  0  3.69923  0  0  0.104444  0  3.967443  0  0  0.10914  0  3.983658  0  0  0.042313  0.101451  0  3.956384  0
C  C47  1  0.95075600  0.96932129  0.76145284  1  0  0.132751  0  3.699297  0  0  0.104703  0  3.967463  0  0  0.109378  0  3.98373  0  0  0.042446  0.101679  0  3.956462  0
N  N48  1  0.42386365  0.78563387  0.19293103  1  0  0.693822  0  4.155308  0  0  0.726622  0  4.443402  0  0  0.755059  0  4.450471  0  0  0.092896  0.709329  0  4.437678  0
N  N49  1  0.57615190  0.21437805  0.69293135  1  0  0.693958  0  4.155158  0  0  0.728868  0  4.442793  0  0  0.75519  0  4.4503  0  0  0.093098  0.709476  0  4.437524  0
N  N50  1  0.08826559  0.48306651  0.10155403  1  0  -0.269884  0  3.259092  0  0  -0.211565  0  3.539886  0  0  -0.221503  0  3.552455  0  0  -0.315706  -0.204874  0  3.531634  0
N  N51  1  0.91176740  0.51694028  0.60156430  1  0  -0.269816  0  3.259459  0  0  -0.211422  0  3.5401  0  0  -0.221365  0  3.552689  0  0  -0.315672  -0.204731  0  3.531873  0
N  N52  1  0.83904763  0.47739944  0.91127729  1  0  -0.23183  0  3.301328  0  0  -0.155245  0  3.589582  0  0  -0.167998  0  3.6021  0  0  -0.322346  -0.146889  0  3.581366  0
N  N53  1  0.16094629  0.52259293  0.41127872  1  0  -0.232131  0  3.301452  0  0  -0.15558  0  3.58975  0  0  -0.168329  0  3.602248  0  0  -0.322583  -0.147217  0  3.58153  0
N  N54  1  0.41186548  0.33278291  0.15075296  1  0  -0.167313  0  3.219923  0  0  -0.138845  0  3.512136  0  0  -0.145417  0  3.527435  0  0  -0.208327  -0.13536  0  3.502504  0
N  N55  1  0.58815585  0.66721791  0.65076573  1  0  -0.167359  0  3.219983  0  0  -0.138903  0  3.512168  0  0  -0.145469  0  3.527474  0  0  -0.208388  -0.135427  0  3.50254  0
N  N56  1  0.56365857  0.25716677  0.18743881  1  0  -0.274658  0  3.460464  0  0  -0.219137  0  3.70731  0  0  -0.24234  0  3.725577  0  0  -0.281482  -0.203367  0  3.695135  0
N  N57  1  0.43634929  0.74282380  0.68745953  1  0  -0.274236  0  3.460384  0  0  -0.218703  0  3.707155  0  0  -0.241896  0  3.725423  0  0  -0.281266  -0.202946  0  3.69494  0
N  N58  1  0.89284346  0.11050741  0.23809921  1  0  -0.338592  0  3.104733  0  0  -0.307518  0  3.372557  0  0  -0.317147  0  3.388144  0  0  -0.31997  -0.300585  0  3.361677  0
N  N59  1  0.10718425  0.88949532  0.73811237  1  0  -0.338973  0  3.105118  0  0  -0.307779  0  3.373046  0  0  -0.317417  0  3.388659  0  0  -0.320113  -0.300863  0  3.362196  0
O  O60  1  0.56099520  0.70182722  0.17810557  1  0  -0.508979  0  1.811965  0  0  -0.486267  0  2.061328  0  0  -0.506467  0  2.051869  0  0  -0.223385  -0.472286  0  2.067166  0
O  O61  1  0.43902966  0.29818284  0.67811099  1  0  -0.508985  0  1.811964  0  0  -0.487149  0  2.061325  0  0  -0.506498  0  2.051897  0  0  -0.223478  -0.472333  0  2.067204  0
O  O62  1  0.45910322  0.87584958  0.13352946  1  0  -0.461051  0  1.718945  0  0  -0.45187  0  1.921336  0  0  -0.466454  0  1.915967  0  0  -0.195331  -0.441952  0  1.924494  0
O  O63  1  0.54090520  0.12416227  0.63353396  1  0  -0.461206  0  1.719131  0  0  -0.452902  0  1.921458  0  0  -0.466604  0  1.916113  0  0  -0.195442  -0.4421  0  1.924653  0
O  O64  1  0.61451697  0.35000404  0.34562650  1  0  -0.520816  0  2.01666  0  0  -0.474138  0  2.262933  0  0  -0.497232  0  2.256849  0  0  -0.275323  -0.458234  0  2.266808  0
O  O65  1  0.38550835  0.65000645  0.84565614  1  0  -0.520832  0  2.016937  0  0  -0.474181  0  2.263129  0  0  -0.497281  0  2.257071  0  0  -0.275353  -0.458286  0  2.266966  0
O  O66  1  0.25464627  0.77527792  0.26658819  1  0  -0.497738  0  1.760043  0  0  -0.487304  0  1.981882  0  0  -0.502926  0  1.975367  0  0  -0.20628  -0.476842  0  1.986026  0
O  O67  1  0.74535381  0.22473188  0.76658642  1  0  -0.497739  0  1.759784  0  0  -0.488158  0  1.981614  0  0  -0.502913  0  1.975139  0  0  -0.206311  -0.476828  0  1.985804  0
