# generated using pymatgen
data_Zn4H40C40N20O13
_symmetry_space_group_name_H-M   'P 1'
_cell_length_a   23.88913612
_cell_length_b   23.89124497
_cell_length_c   23.88900581
_cell_angle_alpha   66.56481583
_cell_angle_beta   72.48059233
_cell_angle_gamma   107.52978522
_symmetry_Int_Tables_number   1
_chemical_formula_structural   Zn4H40C40N20O13
_chemical_formula_sum   'Zn8 H80 C80 N40 O26'
_cell_volume   10458.27895427
_cell_formula_units_Z   2
loop_
 _symmetry_equiv_pos_site_id
 _symmetry_equiv_pos_as_xyz
  1  'x, y, z'
loop_
 _atom_site_type_symbol
 _atom_site_label
 _atom_site_symmetry_multiplicity
 _atom_site_fract_x
 _atom_site_fract_y
 _atom_site_fract_z
 _atom_site_occupancy
 _atom_site_pbe_bader_charge
 _atom_site_pbe_bader_spin_density
 _atom_site_pbe_cm5_charge
 _atom_site_pbe_ddec_charge
 _atom_site_pbe_ddec_spin_density
 _atom_site_pbe_ddec_sum_bond_order
 _atom_site_pbe_magmom
Zn  Zn0  1  0.05652328  0.95776308  0.48619785  1  1.315215  0  0.675069  0.947135  0  2.408286  0
Zn  Zn1  1  0.05652228  0.09875003  0.45729775  1  1.316383  0  0.67501  0.946977  0  2.408491  0
Zn  Zn2  1  0.94347868  0.98619510  0.45775597  1  1.315161  0  0.67499  0.947017  0  2.408443  0
Zn  Zn3  1  0.94349574  0.95729188  0.59875356  1  1.316114  0  0.675039  0.946979  0  2.408691  0
Zn  Zn4  1  0.94395487  0.54270483  0.01380441  1  1.315225  0  0.675093  0.947115  0  2.408429  0
Zn  Zn5  1  0.05605867  0.51380851  0.04271752  1  1.314937  0  0.674947  0.947069  0  2.408396  0
Zn  Zn6  1  0.94395732  0.40124958  0.04223658  1  1.315527  0  0.675119  0.947225  0  2.408379  0
Zn  Zn7  1  0.05603701  0.54223851  0.90124439  1  1.315499  0  0.675092  0.947185  0  2.408281  0
H  H8  1  0.91946204  0.84437795  0.74890835  1  0.469732  0  0.289091  0.297834  0  1.007336  0
H  H9  1  0.91108147  0.80347358  0.83075971  1  0.428918  0  0.293334  0.280704  0  0.972514  0
H  H10  1  0.09324835  0.66833358  0.75111152  1  0.483637  0  0.289114  0.297832  0  1.007093  0
H  H11  1  0.13421986  0.74181866  0.66927290  1  0.427213  0  0.293189  0.280506  0  0.972858  0
H  H12  1  0.90671698  0.65561343  0.92492196  1  0.486416  0  0.289073  0.298017  0  1.007007  0
H  H13  1  0.86577122  0.69651889  0.89239680  1  0.428338  0  0.293147  0.280495  0  0.972805  0
H  H14  1  0.08057114  0.83168442  0.57508632  1  0.47564  0  0.289117  0.297892  0  1.007116  0
H  H15  1  0.08893342  0.75820570  0.60759814  1  0.430453  0  0.293275  0.280645  0  0.972588  0
H  H16  1  0.91944330  0.07508816  0.33163344  1  0.469467  0  0.289038  0.29779  0  1.007481  0
H  H17  1  0.91106700  0.10761096  0.25815639  1  0.429921  0  0.293276  0.280726  0  0.97228  0
H  H18  1  0.09327677  0.42490762  0.15565557  1  0.486389  0  0.289067  0.297719  0  1.007421  0
H  H19  1  0.13422866  0.39238550  0.19655869  1  0.428092  0  0.293305  0.280594  0  0.972422  0
H  H20  1  0.90673666  0.25112139  0.16833367  1  0.484371  0  0.289078  0.297882  0  1.007219  0
H  H21  1  0.86578224  0.16927721  0.24179990  1  0.427525  0  0.293164  0.2805  0  0.97286  0
H  H22  1  0.08055220  0.24887281  0.34438716  1  0.476187  0  0.28901  0.297759  0  1.00735  0
H  H23  1  0.08891792  0.33071254  0.30351288  1  0.428939  0  0.293181  0.280564  0  0.972634  0
H  H24  1  0.92070696  0.63956811  0.07406065  1  0.46275  0  0.288973  0.297986  0  1.006694  0
H  H25  1  0.91491833  0.70575274  0.08216636  1  0.423823  0  0.296396  0.285467  0  0.958734  0
H  H26  1  0.07931560  0.57409801  0.13956972  1  0.463132  0  0.289146  0.29843  0  1.006287  0
H  H27  1  0.08509614  0.58218146  0.20577499  1  0.423065  0  0.296437  0.285458  0  0.95874  0
H  H28  1  0.09760465  0.71932052  0.22658890  1  0.428853  0  0.287943  0.276797  0  0.983715  0
H  H29  1  0.13267558  0.68348141  0.18939740  1  0.43167  0  0.293746  0.280962  0  0.966805  0
H  H30  1  0.90235430  0.72651554  0.21934365  1  0.429384  0  0.288067  0.276829  0  0.984089  0
H  H31  1  0.86729576  0.68933274  0.18348260  1  0.430867  0  0.293856  0.28093  0  0.967189  0
H  H32  1  0.93128834  0.81761118  0.23728143  1  0.404732  0  0.287865  0.27683  0  0.982171  0
H  H33  1  0.90912959  0.86968610  0.25829167  1  0.430252  0  0.293259  0.280611  0  0.968457  0
H  H34  1  0.06858733  0.73719502  0.31772289  1  0.405667  0  0.287927  0.276894  0  0.982529  0
H  H35  1  0.09077272  0.75822839  0.36977485  1  0.431002  0  0.293328  0.28059  0  0.968347  0
H  H36  1  0.09462949  0.88016471  0.40696658  1  0.471301  0  0.288799  0.29818  0  1.008173  0
H  H37  1  0.13675426  0.85973993  0.35318539  1  0.405285  0  0.296254  0.284947  0  0.959455  0
H  H38  1  0.90531050  0.90691250  0.38020516  1  0.472313  0  0.288871  0.29815  0  1.008296  0
H  H39  1  0.86316959  0.85312547  0.35978930  1  0.40424  0  0.296377  0.285195  0  0.959656  0
H  H40  1  0.07933468  0.50519528  0.78113627  1  0.461504  0  0.28914  0.298486  0  1.006336  0
H  H41  1  0.08511692  0.50288026  0.70916005  1  0.420403  0  0.296235  0.285309  0  0.959047  0
H  H42  1  0.92071116  0.28114384  0.00523114  1  0.460727  0  0.288993  0.298008  0  1.006631  0
H  H43  1  0.91492798  0.20916142  0.00293210  1  0.421796  0  0.296373  0.285409  0  0.958745  0
H  H44  1  0.90237275  0.17581063  0.87832634  1  0.421792  0  0.28798  0.27681  0  0.984035  0
H  H45  1  0.86731407  0.17795661  0.94922728  1  0.428028  0  0.293779  0.280896  0  0.967173  0
H  H46  1  0.09763164  0.37823727  0.67586067  1  0.421816  0  0.288114  0.277063  0  0.9834  0
H  H47  1  0.13269827  0.44915597  0.67797705  1  0.428169  0  0.293644  0.280603  0  0.96762  0
H  H48  1  0.06858032  0.33138542  0.61371985  1  0.423994  0  0.287904  0.276914  0  0.982183  0
H  H49  1  0.09076944  0.33254642  0.53948249  1  0.431802  0  0.293281  0.280578  0  0.968527  0
H  H50  1  0.93127340  0.11366389  0.83142155  1  0.416017  0  0.287972  0.276967  0  0.981886  0
H  H51  1  0.90912102  0.03943774  0.83255296  1  0.431285  0  0.293158  0.280435  0  0.968702  0
H  H52  1  0.90531777  0.99841193  0.71444544  1  0.482164  0  0.288891  0.298272  0  1.007884  0
H  H53  1  0.86317101  0.01005748  0.77699507  1  0.405744  0  0.296213  0.284902  0  0.959376  0
H  H54  1  0.09464712  0.21447751  0.49841794  1  0.475084  0  0.288952  0.298277  0  1.008059  0
H  H55  1  0.13675749  0.27702711  0.51008677  1  0.425802  0  0.296163  0.284777  0  0.959694  0
H  H56  1  0.78712575  0.50157878  0.09308441  1  0.4598  0  0.288809  0.298138  0  1.008129  0
H  H57  1  0.71292109  0.48992086  0.14686792  1  0.418071  0  0.296093  0.284785  0  0.959413  0
H  H58  1  0.78712636  0.28553127  0.11980738  1  0.493672  0  0.288838  0.298084  0  1.008192  0
H  H59  1  0.71292018  0.22298120  0.14022317  1  0.404507  0  0.296153  0.284726  0  0.95959  0
H  H60  1  0.55490432  0.16859664  0.26273621  1  0.427295  0  0.287799  0.276839  0  0.98219  0
H  H61  1  0.62799085  0.16744589  0.24171705  1  0.421336  0  0.293267  0.280564  0  0.968377  0
H  H62  1  0.55490591  0.38630250  0.18233339  1  0.4096  0  0.287848  0.276748  0  0.982175  0
H  H63  1  0.62799117  0.46053367  0.13027742  1  0.418898  0  0.293184  0.280416  0  0.968406  0
H  H64  1  0.44587898  0.32418803  0.27341110  1  0.42352  0  0.288101  0.277073  0  0.983702  0
H  H65  1  0.37283446  0.32204298  0.31061730  1  0.429839  0  0.293801  0.281004  0  0.967072  0
H  H66  1  0.44589811  0.12175819  0.28058410  1  0.425661  0  0.288078  0.277039  0  0.983445  0
H  H67  1  0.37286256  0.05083598  0.31644442  1  0.427174  0  0.293766  0.280817  0  0.967465  0
H  H68  1  0.21366854  0.99480115  0.42587144  1  0.463065  0  0.289169  0.298483  0  1.006305  0
H  H69  1  0.28796539  0.99712199  0.41776112  1  0.417624  0  0.296223  0.285311  0  0.958947  0
H  H70  1  0.21363640  0.21885428  0.36043717  1  0.466362  0  0.289073  0.298302  0  1.006588  0
H  H71  1  0.28791354  0.29083867  0.29422651  1  0.421122  0  0.296414  0.28553  0  0.958727  0
H  H72  1  0.21290797  0.59307774  0.00158739  1  0.45936  0  0.288941  0.298799  0  1.008397  0
H  H73  1  0.28712762  0.64685241  0.98992606  1  0.417788  0  0.296228  0.284799  0  0.959436  0
H  H74  1  0.21285147  0.61980273  0.78553781  1  0.494249  0  0.28881  0.298068  0  1.008311  0
H  H75  1  0.28704262  0.64020073  0.72298930  1  0.413138  0  0.296076  0.284606  0  0.959672  0
H  H76  1  0.44508090  0.76270517  0.66858392  1  0.427496  0  0.287879  0.276941  0  0.982104  0
H  H77  1  0.37198623  0.74169249  0.66744004  1  0.421393  0  0.293283  0.280634  0  0.968556  0
H  H78  1  0.44511979  0.68229677  0.88629295  1  0.409876  0  0.287792  0.276724  0  0.982512  0
H  H79  1  0.37204219  0.63025038  0.96053084  1  0.418334  0  0.293266  0.280532  0  0.968546  0
H  H80  1  0.55413441  0.77341633  0.82418262  1  0.423887  0  0.288036  0.277  0  0.983635  0
H  H81  1  0.62717943  0.81062021  0.82205052  1  0.429259  0  0.293839  0.281092  0  0.967088  0
H  H82  1  0.55410480  0.78061942  0.62172825  1  0.425752  0  0.287985  0.276741  0  0.98386  0
H  H83  1  0.62713860  0.81647477  0.55080743  1  0.427789  0  0.293721  0.280781  0  0.967375  0
H  H84  1  0.78633597  0.92591161  0.49478007  1  0.463542  0  0.289148  0.298372  0  1.006497  0
H  H85  1  0.71203437  0.91779128  0.49710401  1  0.41773  0  0.29627  0.285329  0  0.958752  0
H  H86  1  0.78637795  0.86044294  0.71886221  1  0.466021  0  0.28902  0.297961  0  1.006816  0
H  H87  1  0.71209874  0.79424136  0.79084407  1  0.4209  0  0.296399  0.285412  0  0.958816  0
C  C88  1  0.18352257  0.09175804  0.40823446  1  1.423493  0  0.219646  0.622922  0  4.121879  0
C  C89  1  0.00000611  0.13902373  0.36095667  1  1.482597  0  0.223816  0.628322  0  4.107076  0
C  C90  1  0.99997629  0.90855452  0.40859619  1  1.446284  0  0.218081  0.618846  0  4.125029  0
C  C91  1  0.81648768  0.90823993  0.59175598  1  1.423646  0  0.219586  0.622827  0  4.121867  0
C  C92  1  0.00001624  0.86098674  0.63903988  1  1.483941  0  0.223883  0.628281  0  4.106853  0
C  C93  1  0.99999873  0.09143213  0.59141858  1  1.458327  0  0.217977  0.618788  0  4.124863  0
C  C94  1  0.00000784  0.59175762  0.09175959  1  1.43052  0  0.219762  0.623096  0  4.121529  0
C  C95  1  0.00001802  0.36097600  0.13902900  1  1.476186  0  0.22393  0.628407  0  4.107257  0
C  C96  1  0.81715155  0.40856808  0.09142440  1  1.463321  0  0.218059  0.6189  0  4.124613  0
C  C97  1  0.00000662  0.40824496  0.90823787  1  1.43598  0  0.219664  0.622974  0  4.121925  0
C  C98  1  0.99998407  0.63902004  0.86097095  1  1.476885  0  0.223864  0.628341  0  4.107037  0
C  C99  1  0.18285175  0.59142657  0.90857951  1  1.463073  0  0.218024  0.618928  0  4.124559  0
C  C100  1  0.00001397  0.80475897  0.69526599  1  0.021647  0  -0.03935  -0.249938  0  3.948417  0
C  C101  1  0.99999360  0.69525455  0.80474793  1  0.04337  0  -0.039371  -0.250327  0  3.94847  0
C  C102  1  0.95734989  0.77776856  0.76652014  1  0.37752  0  0.078948  0.175275  0  4.049154  0
C  C103  1  0.04427166  0.72385840  0.73349484  1  0.421128  0  0.078892  0.17548  0  4.048922  0
C  C104  1  0.95572462  0.72223854  0.82042314  1  0.430254  0  0.078992  0.17549  0  4.048863  0
C  C105  1  0.04266697  0.77616006  0.67958799  1  0.375042  0  0.078996  0.175307  0  4.049172  0
C  C106  1  0.00001270  0.19525218  0.30473067  1  0.021092  0  -0.039288  -0.250064  0  3.948713  0
C  C107  1  0.00001656  0.30474541  0.19525096  1  0.043268  0  -0.039474  -0.250447  0  3.948549  0
C  C108  1  0.95735296  0.17958692  0.27612469  1  0.376018  0  0.078871  0.175329  0  4.049142  0
C  C109  1  0.04428794  0.32040901  0.22224497  1  0.383008  0  0.07906  0.175576  0  4.048355  0
C  C110  1  0.95573854  0.23349587  0.22383795  1  0.420719  0  0.079145  0.175658  0  4.048688  0
C  C111  1  0.04266929  0.26649953  0.27776417  1  0.424631  0  0.079056  0.175405  0  4.048858  0
C  C112  1  0.00000071  0.62852149  0.12853412  1  0.044375  0  -0.043272  -0.259325  0  3.942547  0
C  C113  1  0.95764329  0.65996313  0.13360247  1  0.418123  0  0.079925  0.178263  0  4.060718  0
C  C114  1  0.95544243  0.69171280  0.17211049  1  0.410369  0  0.070543  0.128491  0  4.071159  0
C  C115  1  0.99997835  0.69954967  0.19959951  1  0.145953  0  -0.022851  -0.046882  0  4.149117  0
C  C116  1  0.04452545  0.67207893  0.19176931  1  0.40597  0  0.070304  0.128131  0  4.071843  0
C  C117  1  0.04234753  0.63359353  0.15999514  1  0.418556  0  0.07989  0.17841  0  4.06091  0
C  C118  1  0.99996955  0.73479408  0.23484897  1  -0.289781  0  -0.047703  -0.09385  0  4.154103  0
C  C119  1  0.99996369  0.76552287  0.26556999  1  -0.177802  0  -0.045794  -0.092829  0  4.152336  0
C  C120  1  0.99996553  0.80077012  0.30081637  1  0.133714  0  -0.021389  -0.042164  0  4.145093  0
C  C121  1  0.95787963  0.83134934  0.30553251  1  0.444293  0  0.070734  0.127037  0  4.073741  0
C  C122  1  0.95493229  0.86335816  0.34378866  1  0.381379  0  0.07909  0.177686  0  4.062398  0
C  C123  1  0.99996110  0.87179273  0.37186440  1  0.048925  0  -0.042495  -0.256924  0  3.943421  0
C  C124  1  0.04499137  0.84372892  0.36342545  1  0.383299  0  0.079016  0.177261  0  4.062287  0
C  C125  1  0.04204536  0.80547845  0.33141094  1  0.443617  0  0.070551  0.127101  0  4.073888  0
C  C126  1  0.00001624  0.37146587  0.87147909  1  0.060559  0  -0.043391  -0.25944  0  3.942682  0
C  C127  1  0.04236746  0.40873104  0.79768521  1  0.411794  0  0.079983  0.178242  0  4.060877  0
C  C128  1  0.04455237  0.37241355  0.76374294  1  0.465985  0  0.070376  0.128283  0  4.071137  0
C  C129  1  0.00000004  0.30040180  0.80045163  1  0.104826  0  -0.022757  -0.046763  0  4.14891  0
C  C130  1  0.95546879  0.26370860  0.87246548  1  0.43932  0  0.070527  0.128419  0  4.071766  0
C  C131  1  0.95765940  0.29766787  0.90876683  1  0.410616  0  0.079887  0.178363  0  4.060813  0
C  C132  1  0.99997851  0.26514797  0.76520997  1  -0.28908  0  -0.047727  -0.093846  0  4.153871  0
C  C133  1  0.99996885  0.23442863  0.73447899  1  -0.175962  0  -0.045803  -0.092882  0  4.152315  0
C  C134  1  0.99996657  0.19919137  0.69922209  1  0.157013  0  -0.021539  -0.04238  0  4.145222  0
C  C135  1  0.04204659  0.23656716  0.62655583  1  0.43995  0  0.070534  0.127178  0  4.073605  0
C  C136  1  0.04500203  0.20127031  0.59159043  1  0.388446  0  0.079203  0.177353  0  4.062151  0
C  C137  1  0.99997657  0.12817746  0.62816767  1  0.041149  0  -0.042529  -0.256904  0  3.943075  0
C  C138  1  0.95494088  0.09158181  0.70126076  1  0.384619  0  0.079097  0.177267  0  4.062587  0
C  C139  1  0.95787943  0.12652817  0.73657794  1  0.44481  0  0.07069  0.127148  0  4.074  0
C  C140  1  0.74365651  0.37182189  0.12817270  1  0.033682  0  -0.042497  -0.256576  0  3.943148  0
C  C141  1  0.70715320  0.40840935  0.13661625  1  0.385042  0  0.078933  0.177006  0  4.062688  0
C  C142  1  0.63688925  0.37345371  0.16862244  1  0.42628  0  0.070647  0.126962  0  4.074043  0
C  C143  1  0.60159184  0.30079244  0.19919863  1  0.166884  0  -0.021576  -0.042153  0  4.145068  0
C  C144  1  0.63688743  0.26342610  0.19448404  1  0.421033  0  0.0708  0.127175  0  4.073809  0
C  C145  1  0.70715297  0.29873013  0.15623430  1  0.376551  0  0.078912  0.17691  0  4.062724  0
C  C146  1  0.53109593  0.26554993  0.23443263  1  -0.119149  0  -0.045876  -0.093113  0  4.152538  0
C  C147  1  0.46964660  0.23484004  0.26514260  1  -0.364406  0  -0.047546  -0.093587  0  4.153992  0
C  C148  1  0.39915120  0.19959126  0.30038145  1  0.176013  0  -0.022874  -0.046772  0  4.148852  0
C  C149  1  0.36383702  0.23629159  0.30821730  1  0.471417  0  0.070313  0.128112  0  4.071976  0
C  C150  1  0.29357783  0.20233381  0.33999334  1  0.343323  0  0.079906  0.178558  0  4.061014  0
C  C151  1  0.25706152  0.12853676  0.37143992  1  0.08405  0  -0.043304  -0.259399  0  3.942468  0
C  C152  1  0.29358682  0.09126631  0.36635241  1  0.413914  0  0.080051  0.17832  0  4.060878  0
C  C153  1  0.36384349  0.12758115  0.32784386  1  0.38475  0  0.070518  0.128443  0  4.071525  0
C  C154  1  0.25634845  0.62816610  0.87182622  1  0.033605  0  -0.042416  -0.256531  0  3.942954  0
C  C155  1  0.29286722  0.63660668  0.90841086  1  0.386285  0  0.079056  0.177337  0  4.062366  0
C  C156  1  0.36312991  0.66860602  0.87345007  1  0.433789  0  0.070619  0.127328  0  4.073246  0
C  C157  1  0.39841796  0.69919470  0.80078118  1  0.160143  0  -0.021717  -0.042665  0  4.145322  0
C  C158  1  0.36310619  0.69447172  0.76342264  1  0.419564  0  0.070745  0.127274  0  4.073985  0
C  C159  1  0.29284170  0.65622668  0.79873069  1  0.377392  0  0.078905  0.176822  0  4.062797  0
C  C160  1  0.46891183  0.73443675  0.76553542  1  -0.11887  0  -0.045818  -0.092786  0  4.151888  0
C  C161  1  0.53036274  0.76515238  0.73482269  1  -0.364551  0  -0.047541  -0.093679  0  4.153971  0
C  C162  1  0.60085676  0.80039614  0.69957997  1  0.175642  0  -0.022844  -0.046971  0  4.149376  0
C  C163  1  0.63617776  0.80823301  0.73628307  1  0.471451  0  0.070423  0.128485  0  4.071797  0
C  C164  1  0.70643656  0.84000645  0.70233061  1  0.34234  0  0.079808  0.17819  0  4.061059  0
C  C165  1  0.74294895  0.87145626  0.62852940  1  0.084177  0  -0.043238  -0.259157  0  3.942371  0
C  C166  1  0.70642141  0.86637752  0.59125208  1  0.382483  0  0.079999  0.178343  0  4.060812  0
C  C167  1  0.63616475  0.82786940  0.62756378  1  0.413549  0  0.070466  0.128494  0  4.071434  0
N  N168  1  0.91342869  0.80113560  0.78849873  1  -1.21467  0  -0.615602  -0.62272  0  3.33437  0
N  N169  1  0.08961224  0.70191072  0.71151524  1  -1.225848  0  -0.615471  -0.622575  0  3.334135  0
N  N170  1  0.91037084  0.69885978  0.88771413  1  -1.235947  0  -0.615414  -0.622741  0  3.33402  0
N  N171  1  0.08659392  0.79811200  0.61229778  1  -1.204307  0  -0.61556  -0.622706  0  3.333922  0
N  N172  1  0.91341963  0.11230165  0.29806720  1  -1.197832  0  -0.615564  -0.622831  0  3.334195  0
N  N173  1  0.08962810  0.38769554  0.19889435  1  -1.235372  0  -0.615615  -0.622579  0  3.333926  0
N  N174  1  0.91038490  0.21152782  0.20189006  1  -1.226547  0  -0.615498  -0.622656  0  3.334132  0
N  N175  1  0.08658443  0.28846790  0.30115127  1  -1.220659  0  -0.615441  -0.622561  0  3.334158  0
N  N176  1  0.91481527  0.65945358  0.10467950  1  -1.208557  0  -0.614364  -0.622376  0  3.317077  0
N  N177  1  0.08519674  0.60470324  0.15947169  1  -1.208179  0  -0.614729  -0.623036  0  3.316881  0
N  N178  1  0.08877465  0.67909701  0.21908977  1  -1.217456  0  -0.61035  -0.609655  0  3.302479  0
N  N179  1  0.91118946  0.71902236  0.17911518  1  -1.216701  0  -0.610777  -0.609837  0  3.303511  0
N  N180  1  0.91556169  0.82680647  0.27577639  1  -1.185514  0  -0.610023  -0.609323  0  3.303474  0
N  N181  1  0.08434671  0.77570863  0.32688649  1  -1.186902  0  -0.610056  -0.609371  0  3.304109  0
N  N182  1  0.09158591  0.84898655  0.38761226  1  -1.197875  0  -0.614269  -0.622527  0  3.319834  0
N  N183  1  0.90834403  0.88754241  0.34904090  1  -1.198112  0  -0.61438  -0.622867  0  3.32047  0
N  N184  1  0.08521742  0.48046762  0.75536066  1  -1.206163  0  -0.614455  -0.622734  0  3.316962  0
N  N185  1  0.91482595  0.25535950  0.98050807  1  -1.20806  0  -0.614387  -0.622426  0  3.316981  0
N  N186  1  0.91121079  0.19214861  0.90971372  1  -1.228675  0  -0.610587  -0.609802  0  3.303195  0
N  N187  1  0.08879973  0.40963510  0.69218278  1  -1.228666  0  -0.610531  -0.609643  0  3.302777  0
N  N188  1  0.08434374  0.30863598  0.58879469  1  -1.209545  0  -0.610039  -0.609443  0  3.30359  0
N  N189  1  0.91555448  0.08875050  0.80864157  1  -1.201447  0  -0.609935  -0.60915  0  3.303442  0
N  N190  1  0.90834785  0.02081047  0.74258211  1  -1.21864  0  -0.614249  -0.622468  0  3.319641  0
N  N191  1  0.09159376  0.24260632  0.52081965  1  -1.230582  0  -0.614294  -0.622366  0  3.320165  0
N  N192  1  0.73659341  0.47918050  0.11243837  1  -1.202442  0  -0.613999  -0.62221  0  3.31982  0
N  N193  1  0.73659327  0.25740018  0.15097636  1  -1.219354  0  -0.614063  -0.621945  0  3.320222  0
N  N194  1  0.60259166  0.19136174  0.22423381  1  -1.185675  0  -0.609926  -0.609221  0  3.303383  0
N  N195  1  0.60259229  0.41122365  0.17316209  1  -1.191302  0  -0.609851  -0.608863  0  3.303342  0
N  N196  1  0.39815388  0.30785127  0.28091131  1  -1.210959  0  -0.610672  -0.610176  0  3.303091  0
N  N197  1  0.39818090  0.09035928  0.32081671  1  -1.211479  0  -0.61067  -0.60991  0  3.302723  0
N  N198  1  0.26417065  0.01952876  0.39525056  1  -1.183227  0  -0.614536  -0.62282  0  3.316937  0
N  N199  1  0.26414483  0.24464121  0.34052637  1  -1.218193  0  -0.61453  -0.622941  0  3.317134  0
N  N200  1  0.26343863  0.61242531  0.97918675  1  -1.201825  0  -0.614303  -0.623059  0  3.320197  0
N  N201  1  0.26338583  0.65096288  0.75740678  1  -1.228948  0  -0.613988  -0.62183  0  3.320349  0
N  N202  1  0.39738807  0.72421263  0.69135702  1  -1.185367  0  -0.60997  -0.60938  0  3.303546  0
N  N203  1  0.39744294  0.67313621  0.91121894  1  -1.191961  0  -0.609953  -0.609263  0  3.303651  0
N  N204  1  0.60186051  0.78092117  0.80784768  1  -1.210432  0  -0.610611  -0.610176  0  3.302806  0
N  N205  1  0.60182558  0.82085065  0.59033051  1  -1.210003  0  -0.610557  -0.609623  0  3.303079  0
N  N206  1  0.73583486  0.89528736  0.51950885  1  -1.183633  0  -0.614541  -0.622786  0  3.3168  0
N  N207  1  0.73587064  0.84053813  0.74464409  1  -1.217066  0  -0.614375  -0.622343  0  3.317248  0
O  O208  1  0.00000416  0.99999953  0.49999815  1  -1.233635  0  -0.578918  -1.01058  0  2.603104  0
O  O209  1  0.15207861  0.02626588  0.43150537  1  -1.193398  0  -0.321216  -0.558218  0  2.377739  0
O  O210  1  0.04276015  0.15503331  0.38189621  1  -1.184948  0  -0.31775  -0.554096  0  2.378747  0
O  O211  1  0.96244533  0.93772909  0.41082829  1  -1.173915  0  -0.320514  -0.556134  0  2.379554  0
O  O212  1  0.15207734  0.12580031  0.41642597  1  -1.187884  0  -0.321338  -0.55818  0  2.377661  0
O  O213  1  0.03752252  0.91080632  0.43776159  1  -1.174342  0  -0.320568  -0.556111  0  2.379324  0
O  O214  1  0.95724583  0.07534382  0.38768795  1  -1.185289  0  -0.317835  -0.554057  0  2.378504  0
O  O215  1  0.84792582  0.93151649  0.52625965  1  -1.193724  0  -0.321219  -0.558191  0  2.37782  0
O  O216  1  0.95725503  0.88190735  0.65505959  1  -1.184851  0  -0.317905  -0.554076  0  2.378487  0
O  O217  1  0.84793822  0.91641949  0.62580390  1  -1.187483  0  -0.321322  -0.558231  0  2.377778  0
O  O218  1  0.04277411  0.88772763  0.57535729  1  -1.185823  0  -0.317728  -0.554075  0  2.378648  0
O  O219  1  0.03755609  0.12672691  0.52471533  1  -1.178952  0  -0.32049  -0.5561  0  2.379317  0
O  O220  1  0.96246790  0.02472887  0.62670796  1  -1.178882  0  -0.320454  -0.55602  0  2.379603  0
O  O221  1  0.00000633  0.50000061  0.00000255  1  -1.23191  0  -0.57893  -1.010707  0  2.603099  0
O  O222  1  0.95778400  0.58358438  0.06848323  1  -1.188846  0  -0.32137  -0.558372  0  2.377636  0
O  O223  1  0.03697547  0.42465683  0.11810081  1  -1.18272  0  -0.317924  -0.554051  0  2.378354  0
O  O224  1  0.84856377  0.37327642  0.08917473  1  -1.174856  0  -0.320532  -0.556184  0  2.379325  0
O  O225  1  0.04223115  0.56848653  0.08359256  1  -1.187905  0  -0.321283  -0.558177  0  2.377455  0
O  O226  1  0.84856331  0.47527140  0.06226070  1  -1.172054  0  -0.32051  -0.556146  0  2.379484  0
O  O227  1  0.96305973  0.34496229  0.11229383  1  -1.179157  0  -0.317739  -0.554093  0  2.378865  0
O  O228  1  0.95777925  0.37420437  0.97372775  1  -1.191581  0  -0.32132  -0.558269  0  2.377752  0
O  O229  1  0.03692890  0.61228362  0.84495281  1  -1.179514  0  -0.31773  -0.554097  0  2.378698  0
O  O230  1  0.04222951  0.47373655  0.87418968  1  -1.19165  0  -0.321273  -0.558289  0  2.377713  0
O  O231  1  0.96303629  0.61808710  0.92465490  1  -1.183252  0  -0.317873  -0.554026  0  2.378617  0
O  O232  1  0.15145019  0.56227035  0.97528523  1  -1.172126  0  -0.32046  -0.556445  0  2.379512  0
O  O233  1  0.15143206  0.58918686  0.87328636  1  -1.174372  0  -0.320559  -0.556095  0  2.379282  0
