# generated using pymatgen
data_CdH4C6(N3O2)2
_symmetry_space_group_name_H-M   'P 1'
_cell_length_a   9.63147543
_cell_length_b   10.22907066
_cell_length_c   11.20488666
_cell_angle_alpha   89.99994318
_cell_angle_beta   109.46670103
_cell_angle_gamma   90.00007301
_symmetry_Int_Tables_number   1
_chemical_formula_structural   CdH4C6(N3O2)2
_chemical_formula_sum   'Cd4 H16 C24 N24 O16'
_cell_volume   1040.81206248
_cell_formula_units_Z   4
loop_
 _symmetry_equiv_pos_site_id
 _symmetry_equiv_pos_as_xyz
  1  'x, y, z'
loop_
 _atom_site_type_symbol
 _atom_site_label
 _atom_site_symmetry_multiplicity
 _atom_site_fract_x
 _atom_site_fract_y
 _atom_site_fract_z
 _atom_site_occupancy
 _atom_site_hle17_bader_spin_density
 _atom_site_hle17_ddec_charge
 _atom_site_hle17_ddec_spin_density
 _atom_site_hle17_ddec_sum_bond_order
 _atom_site_hle17_magmom
 _atom_site_hse06_10hf_bader_spin_density
 _atom_site_hse06_10hf_ddec_charge
 _atom_site_hse06_10hf_ddec_spin_density
 _atom_site_hse06_10hf_ddec_sum_bond_order
 _atom_site_hse06_10hf_magmom
 _atom_site_hse06_bader_spin_density
 _atom_site_hse06_ddec_charge
 _atom_site_hse06_ddec_spin_density
 _atom_site_hse06_ddec_sum_bond_order
 _atom_site_hse06_magmom
 _atom_site_pbe_bader_spin_density
 _atom_site_pbe_cm5_charge
 _atom_site_pbe_ddec_charge
 _atom_site_pbe_ddec_spin_density
 _atom_site_pbe_ddec_sum_bond_order
 _atom_site_pbe_magmom
Cd  Cd0  1  0.03993486  0.65764320  0.25800913  1  0  1.036317  0  1.796186  0  0  0.812044  0  2.256085  0  0  0.861694  0  2.215024  0  0  0.812938  0.775837  0  2.284593  0
Cd  Cd1  1  0.46006522  0.15764399  0.24199153  1  0  1.03634  0  1.796169  0  0  0.812098  0  2.256035  0  0  0.86174  0  2.214982  0  0  0.81294  0.775887  0  2.284548  0
Cd  Cd2  1  0.96006605  0.34235679  0.74199091  1  0  1.036351  0  1.796174  0  0  0.812083  0  2.256055  0  0  0.861737  0  2.21499  0  0  0.812946  0.77588  0  2.284558  0
Cd  Cd3  1  0.53993458  0.84235698  0.75800908  1  0  1.036367  0  1.796156  0  0  0.812124  0  2.256012  0  0  0.861774  0  2.21495  0  0  0.812953  0.775914  0  2.284517  0
H  H4  1  0.84741063  0.83613067  0.99631052  1  0  0.084281  0  0.919698  0  0  0.093753  0  0.982526  0  0  0.095665  0  0.98066  0  0  0.131346  0.092588  0  0.983422  0
H  H5  1  0.65258999  0.33613134  0.50369037  1  0  0.084254  0  0.919708  0  0  0.093695  0  0.982578  0  0  0.095608  0  0.980711  0  0  0.131316  0.092534  0  0.983474  0
H  H6  1  0.15259027  0.16387030  0.00368952  1  0  0.084294  0  0.919669  0  0  0.093731  0  0.982537  0  0  0.095644  0  0.980672  0  0  0.131329  0.092567  0  0.983432  0
H  H7  1  0.34740981  0.66386963  0.49631024  1  0  0.084274  0  0.919689  0  0  0.093709  0  0.982561  0  0  0.095623  0  0.980694  0  0  0.131323  0.092548  0  0.983458  0
H  H8  1  0.45889496  0.64717289  0.99611148  1  0  0.114469  0  0.973502  0  0  0.115519  0  1.047474  0  0  0.117789  0  1.046019  0  0  0.118269  0.113923  0  1.048694  0
H  H9  1  0.04110614  0.14717245  0.50388824  1  0  0.114462  0  0.973391  0  0  0.11551  0  1.047377  0  0  0.11778  0  1.045919  0  0  0.118271  0.113912  0  1.048598  0
H  H10  1  0.54110705  0.35282710  0.00388887  1  0  0.114453  0  0.973419  0  0  0.115512  0  1.047399  0  0  0.117785  0  1.04594  0  0  0.118275  0.113915  0  1.04862  0
H  H11  1  0.95889366  0.85282656  0.49611237  1  0  0.114462  0  0.973413  0  0  0.115522  0  1.047388  0  0  0.117796  0  1.045929  0  0  0.118276  0.113925  0  1.048607  0
H  H12  1  0.25114719  0.94079608  0.34644102  1  0  0.089158  0  0.943179  0  0  0.096158  0  1.009517  0  0  0.098012  0  1.007787  0  0  0.127787  0.094802  0  1.01083  0
H  H13  1  0.24885100  0.44079573  0.15355884  1  0  0.089147  0  0.943131  0  0  0.096148  0  1.009471  0  0  0.098002  0  1.007742  0  0  0.127779  0.094796  0  1.010779  0
H  H14  1  0.74885261  0.05920489  0.65355959  1  0  0.08913  0  0.943158  0  0  0.096131  0  1.009495  0  0  0.097986  0  1.007765  0  0  0.12777  0.094776  0  1.01081  0
H  H15  1  0.75114769  0.55920231  0.84644234  1  0  0.089142  0  0.943159  0  0  0.09614  0  1.009509  0  0  0.097993  0  1.00778  0  0  0.127779  0.094787  0  1.010814  0
H  H16  1  0.36492815  0.92684883  0.01448183  1  0  0.125725  0  0.963121  0  0  0.130921  0  1.030849  0  0  0.133607  0  1.028219  0  0  0.123602  0.128674  0  1.033277  0
H  H17  1  0.13507223  0.42684798  0.48551867  1  0  0.125679  0  0.963191  0  0  0.130893  0  1.03088  0  0  0.133577  0  1.028255  0  0  0.123606  0.128647  0  1.033319  0
H  H18  1  0.63507055  0.07315116  0.98551846  1  0  0.12574  0  0.963104  0  0  0.130936  0  1.030825  0  0  0.133623  0  1.028196  0  0  0.123593  0.128684  0  1.03326  0
H  H19  1  0.86492757  0.57315299  0.51448283  1  0  0.125721  0  0.963133  0  0  0.130925  0  1.030847  0  0  0.133609  0  1.02822  0  0  0.123616  0.128679  0  1.033277  0
C  C20  1  0.77382980  0.77289471  0.02504215  1  0  0.254607  0  3.705617  0  0  0.186239  0  3.992934  0  0  0.200435  0  4.007042  0  0  0.139634  0.177052  0  3.982329  0
C  C21  1  0.72617193  0.27289594  0.47495768  1  0  0.254558  0  3.705718  0  0  0.186224  0  3.993034  0  0  0.200419  0  4.007144  0  0  0.139659  0.177033  0  3.982438  0
C  C22  1  0.22617221  0.22710626  0.97495731  1  0  0.254527  0  3.70556  0  0  0.18618  0  3.992878  0  0  0.200376  0  4.006985  0  0  0.139635  0.176993  0  3.982275  0
C  C23  1  0.27382787  0.72710503  0.52504204  1  0  0.254506  0  3.705535  0  0  0.186175  0  3.992853  0  0  0.200369  0  4.00696  0  0  0.139621  0.176984  0  3.982255  0
C  C24  1  0.57367916  0.67581637  0.02636530  1  0  0.030941  0  3.648715  0  0  -0.02123  0  3.928936  0  0  -0.012228  0  3.944694  0  0  0.024601  -0.027585  0  3.918738  0
C  C25  1  0.92631916  0.17581588  0.47363363  1  0  0.031026  0  3.648442  0  0  -0.021115  0  3.928673  0  0  -0.012111  0  3.944432  0  0  0.024644  -0.027473  0  3.918475  0
C  C26  1  0.42632065  0.32418460  0.97363442  1  0  0.031045  0  3.648434  0  0  -0.021103  0  3.928652  0  0  -0.012101  0  3.94441  0  0  0.024647  -0.02746  0  3.918457  0
C  C27  1  0.07367954  0.82418411  0.52636666  1  0  0.031  0  3.648416  0  0  -0.021137  0  3.928644  0  0  -0.012137  0  3.944405  0  0  0.024634  -0.027493  0  3.918445  0
C  C28  1  0.22440659  0.79599615  0.08759787  1  0  0.12601  0  3.797839  0  0  0.09352  0  4.06911  0  0  0.089764  0  4.094652  0  0  0.158739  0.096326  0  4.051613  0
C  C29  1  0.27559364  0.29599653  0.41240271  1  0  0.126038  0  3.797879  0  0  0.093536  0  4.069156  0  0  0.089779  0  4.094699  0  0  0.158753  0.096342  0  4.051661  0
C  C30  1  0.77559541  0.20400286  0.91240427  1  0  0.126007  0  3.797912  0  0  0.093505  0  4.069185  0  0  0.089745  0  4.094732  0  0  0.158766  0.09631  0  4.05169  0
C  C31  1  0.72440725  0.70400346  0.58760000  1  0  0.126004  0  3.797872  0  0  0.093521  0  4.06913  0  0  0.089766  0  4.094671  0  0  0.158748  0.096327  0  4.051636  0
C  C32  1  0.25613901  0.90738939  0.25615057  1  0  0.263186  0  3.68073  0  0  0.19961  0  3.955887  0  0  0.213605  0  3.97053  0  0  0.139298  0.190516  0  3.9457  0
C  C33  1  0.24386025  0.40738893  0.24384873  1  0  0.263192  0  3.680738  0  0  0.199613  0  3.955894  0  0  0.213607  0  3.970537  0  0  0.139293  0.190518  0  3.945708  0
C  C34  1  0.74386080  0.09261158  0.74384915  1  0  0.263255  0  3.68069  0  0  0.199682  0  3.955853  0  0  0.213677  0  3.970495  0  0  0.139339  0.190586  0  3.945665  0
C  C35  1  0.75614065  0.59261106  0.75615219  1  0  0.263163  0  3.680787  0  0  0.199583  0  3.95595  0  0  0.213577  0  3.970593  0  0  0.139277  0.19049  0  3.945763  0
C  C36  1  0.69206209  0.63714914  0.13106006  1  0  0.137974  0  3.773027  0  0  0.097029  0  4.044104  0  0  0.093113  0  4.068719  0  0  0.164678  0.099424  0  4.02762  0
C  C37  1  0.80793730  0.13715155  0.36893654  1  0  0.138059  0  3.772967  0  0  0.096949  0  4.044099  0  0  0.093031  0  4.068716  0  0  0.164686  0.099345  0  4.027613  0
C  C38  1  0.30793993  0.36284890  0.86893762  1  0  0.138016  0  3.772888  0  0  0.097021  0  4.044102  0  0  0.093104  0  4.068718  0  0  0.164699  0.099417  0  4.027616  0
C  C39  1  0.19206140  0.86284844  0.63106375  1  0  0.138021  0  3.772816  0  0  0.096988  0  4.044078  0  0  0.09307  0  4.068697  0  0  0.164702  0.099385  0  4.027588  0
C  C40  1  0.31698923  0.89999393  0.08578143  1  0  0.028476  0  3.651695  0  0  -0.025551  0  3.928347  0  0  -0.015818  0  3.943306  0  0  0.02534  -0.031893  0  3.918034  0
C  C41  1  0.18301112  0.39999223  0.41421909  1  0  0.028492  0  3.651718  0  0  -0.025533  0  3.928384  0  0  -0.015799  0  3.943341  0  0  0.025349  -0.031884  0  3.918077  0
C  C42  1  0.68301057  0.10000606  0.91421829  1  0  0.028446  0  3.651772  0  0  -0.025565  0  3.928419  0  0  -0.015835  0  3.943382  0  0  0.025347  -0.031906  0  3.918103  0
C  C43  1  0.81698868  0.60000678  0.58578241  1  0  0.028509  0  3.651634  0  0  -0.025518  0  3.928283  0  0  -0.015786  0  3.943239  0  0  0.025363  -0.031863  0  3.917977  0
N  N44  1  0.62723680  0.76175038  0.95980112  1  0  -0.394663  0  3.193818  0  0  -0.310386  0  3.482447  0  0  -0.333818  0  3.49861  0  0  -0.359942  -0.293834  0  3.471133  0
N  N45  1  0.87276374  0.26175030  0.54019802  1  0  -0.394645  0  3.193836  0  0  -0.310357  0  3.482442  0  0  -0.333792  0  3.498606  0  0  -0.359954  -0.293805  0  3.471132  0
N  N46  1  0.37276521  0.23824961  0.04019834  1  0  -0.394703  0  3.193742  0  0  -0.310419  0  3.482357  0  0  -0.333851  0  3.498521  0  0  -0.359983  -0.293868  0  3.471049  0
N  N47  1  0.12723496  0.73824969  0.45980227  1  0  -0.394644  0  3.19372  0  0  -0.310357  0  3.482325  0  0  -0.333789  0  3.498489  0  0  -0.35996  -0.293806  0  3.471015  0
N  N48  1  0.18682768  0.80138659  0.19555012  1  0  -0.451312  0  3.230377  0  0  -0.370271  0  3.511763  0  0  -0.390954  0  3.529594  0  0  -0.363907  -0.355964  0  3.498964  0
N  N49  1  0.31317146  0.30138713  0.30445013  1  0  -0.451349  0  3.230393  0  0  -0.370299  0  3.511774  0  0  -0.390981  0  3.529606  0  0  -0.363897  -0.35599  0  3.498977  0
N  N50  1  0.81317212  0.19861340  0.80445138  1  0  -0.451362  0  3.230426  0  0  -0.370324  0  3.511824  0  0  -0.391008  0  3.529655  0  0  -0.363922  -0.356018  0  3.499026  0
N  N51  1  0.68682834  0.69861286  0.69555137  1  0  -0.451309  0  3.230402  0  0  -0.370266  0  3.511781  0  0  -0.39095  0  3.529611  0  0  -0.363912  -0.355959  0  3.498982  0
N  N52  1  0.17314508  0.69576560  0.99719910  1  0  0.446059  0  4.019416  0  0  0.496872  0  4.287378  0  0  0.515804  0  4.298386  0  0  0.040465  0.482846  0  4.280461  0
N  N53  1  0.32685496  0.19576551  0.50280116  1  0  0.446147  0  4.019295  0  0  0.496977  0  4.28724  0  0  0.515907  0  4.298248  0  0  0.040525  0.482948  0  4.280326  0
N  N54  1  0.82685582  0.30423439  0.00280094  1  0  0.446117  0  4.019352  0  0  0.496947  0  4.287285  0  0  0.515882  0  4.29829  0  0  0.040484  0.482919  0  4.280373  0
N  N55  1  0.67314483  0.80423351  0.49720034  1  0  0.446029  0  4.019429  0  0  0.496833  0  4.287397  0  0  0.515767  0  4.298406  0  0  0.040454  0.482807  0  4.28048  0
N  N56  1  0.81745440  0.69872274  0.12852850  1  0  -0.432107  0  3.295989  0  0  -0.347883  0  3.589136  0  0  -0.368495  0  3.605038  0  0  -0.369657  -0.333005  0  3.577461  0
N  N57  1  0.68254506  0.19872696  0.37146895  1  0  -0.432089  0  3.295914  0  0  -0.347881  0  3.589126  0  0  -0.368492  0  3.605031  0  0  -0.369684  -0.333002  0  3.577455  0
N  N58  1  0.18254652  0.30127529  0.87146976  1  0  -0.43218  0  3.295918  0  0  -0.347914  0  3.589067  0  0  -0.368527  0  3.60497  0  0  -0.369678  -0.333037  0  3.57739  0
N  N59  1  0.31745365  0.80127499  0.62853045  1  0  -0.432158  0  3.295842  0  0  -0.347916  0  3.589039  0  0  -0.368527  0  3.604942  0  0  -0.369674  -0.333037  0  3.577364  0
N  N60  1  0.69587434  0.54974720  0.22967000  1  0  0.462528  0  4.009333  0  0  0.524264  0  4.259055  0  0  0.547024  0  4.266856  0  0  0.047306  0.509195  0  4.253275  0
N  N61  1  0.80412383  0.04974679  0.27032989  1  0  0.462171  0  4.009702  0  0  0.52428  0  4.259017  0  0  0.547041  0  4.266816  0  0  0.04727  0.50921  0  4.253233  0
N  N62  1  0.30412547  0.45025279  0.77032883  1  0  0.462673  0  4.009333  0  0  0.524271  0  4.259252  0  0  0.547033  0  4.267053  0  0  0.047253  0.509202  0  4.253469  0
N  N63  1  0.19587597  0.95025418  0.72967072  1  0  0.462618  0  4.009357  0  0  0.524259  0  4.259239  0  0  0.54702  0  4.267041  0  0  0.047206  0.509188  0  4.253455  0
N  N64  1  0.33587306  0.96990541  0.19305990  1  0  -0.388971  0  3.229938  0  0  -0.30223  0  3.522362  0  0  -0.325983  0  3.537463  0  0  -0.36265  -0.285933  0  3.511482  0
N  N65  1  0.16412517  0.46990479  0.30693905  1  0  -0.38894  0  3.229896  0  0  -0.302203  0  3.522331  0  0  -0.325957  0  3.537431  0  0  -0.362664  -0.285906  0  3.511456  0
N  N66  1  0.66412565  0.03009556  0.80693860  1  0  -0.388993  0  3.229965  0  0  -0.302263  0  3.522402  0  0  -0.326018  0  3.537502  0  0  -0.362691  -0.285966  0  3.511519  0
N  N67  1  0.83587463  0.53009520  0.69306156  1  0  -0.388978  0  3.229924  0  0  -0.302249  0  3.522373  0  0  -0.326004  0  3.537473  0  0  -0.362686  -0.285953  0  3.511494  0
O  O68  1  0.21432948  0.69578718  0.90240370  1  0  -0.373386  0  1.746959  0  0  -0.359659  0  1.946422  0  0  -0.371521  0  1.945081  0  0  -0.153745  -0.351555  0  1.947841  0
O  O69  1  0.28566946  0.19578792  0.59759714  1  0  -0.37342  0  1.746904  0  0  -0.359707  0  1.946361  0  0  -0.371569  0  1.945017  0  0  -0.153768  -0.351593  0  1.947768  0
O  O70  1  0.78566922  0.30421378  0.09759659  1  0  -0.373411  0  1.74694  0  0  -0.359685  0  1.946399  0  0  -0.371548  0  1.945055  0  0  -0.153738  -0.35157  0  1.947811  0
O  O71  1  0.71433033  0.80421305  0.40240525  1  0  -0.373335  0  1.746944  0  0  -0.3596  0  1.946415  0  0  -0.371463  0  1.945072  0  0  -0.153707  -0.351495  0  1.947834  0
O  O72  1  0.08950084  0.61024610  0.01635796  1  0  -0.38733  0  1.787526  0  0  -0.365076  0  2.004596  0  0  -0.377185  0  1.99941  0  0  -0.146296  -0.356404  0  2.008721  0
O  O73  1  0.41049808  0.11024460  0.48364240  1  0  -0.387382  0  1.787488  0  0  -0.365142  0  2.004578  0  0  -0.377248  0  1.99939  0  0  -0.146338  -0.35647  0  2.008707  0
O  O74  1  0.91049896  0.38975389  0.98364265  1  0  -0.387347  0  1.787464  0  0  -0.365109  0  2.004546  0  0  -0.377217  0  1.999354  0  0  -0.146327  -0.356441  0  2.008674  0
O  O75  1  0.58950062  0.88975441  0.51635789  1  0  -0.387342  0  1.787531  0  0  -0.365094  0  2.004612  0  0  -0.377204  0  1.999427  0  0  -0.146308  -0.356422  0  2.008737  0
O  O76  1  0.81897783  0.52409388  0.31072073  1  0  -0.394387  0  1.795279  0  0  -0.371974  0  2.005528  0  0  -0.386869  0  1.998832  0  0  -0.145414  -0.361678  0  2.010447  0
O  O77  1  0.68101810  0.02409438  0.18928032  1  0  -0.394232  0  1.795456  0  0  -0.371938  0  2.005582  0  0  -0.386836  0  1.998888  0  0  -0.145388  -0.361642  0  2.0105  0
O  O78  1  0.18102198  0.47590611  0.68927988  1  0  -0.394377  0  1.795366  0  0  -0.371889  0  2.005669  0  0  -0.386785  0  1.998975  0  0  -0.145329  -0.361595  0  2.010588  0
O  O79  1  0.31898060  0.97590659  0.81071908  1  0  -0.394389  0  1.795314  0  0  -0.371901  0  2.00559  0  0  -0.386798  0  1.998894  0  0  -0.145346  -0.361608  0  2.010507  0
O  O80  1  0.57752804  0.50200281  0.23176628  1  0  -0.377589  0  1.728637  0  0  -0.37169  0  1.921188  0  0  -0.383658  0  1.918203  0  0  -0.152391  -0.363349  0  1.922813  0
O  O81  1  0.92247007  0.00200255  0.26823364  1  0  -0.377485  0  1.728637  0  0  -0.371722  0  1.921057  0  0  -0.383689  0  1.91807  0  0  -0.152393  -0.363381  0  1.922678  0
O  O82  1  0.42247397  0.49799718  0.76823319  1  0  -0.3777  0  1.728598  0  0  -0.371754  0  1.921184  0  0  -0.383725  0  1.9182  0  0  -0.152419  -0.363413  0  1.922807  0
O  O83  1  0.07752973  0.99799842  0.73176608  1  0  -0.37765  0  1.728638  0  0  -0.37172  0  1.921216  0  0  -0.383686  0  1.918227  0  0  -0.152364  -0.363381  0  1.922839  0
