# generated using pymatgen
data_Zn2H6(CN6)3
_symmetry_space_group_name_H-M   'P 1'
_cell_length_a   9.30565585
_cell_length_b   9.30565709
_cell_length_c   9.30565041
_cell_angle_alpha   67.71662603
_cell_angle_beta   67.71659457
_cell_angle_gamma   67.71662366
_symmetry_Int_Tables_number   1
_chemical_formula_structural   Zn2H6(CN6)3
_chemical_formula_sum   'Zn4 H12 C6 N36'
_cell_volume   663.37150128
_cell_formula_units_Z   2
loop_
 _symmetry_equiv_pos_site_id
 _symmetry_equiv_pos_as_xyz
  1  'x, y, z'
loop_
 _atom_site_type_symbol
 _atom_site_label
 _atom_site_symmetry_multiplicity
 _atom_site_fract_x
 _atom_site_fract_y
 _atom_site_fract_z
 _atom_site_occupancy
 _atom_site_hle17_bader_spin_density
 _atom_site_hle17_ddec_charge
 _atom_site_hle17_ddec_spin_density
 _atom_site_hle17_ddec_sum_bond_order
 _atom_site_hle17_magmom
 _atom_site_hse06_10hf_bader_spin_density
 _atom_site_hse06_10hf_ddec_charge
 _atom_site_hse06_10hf_ddec_spin_density
 _atom_site_hse06_10hf_ddec_sum_bond_order
 _atom_site_hse06_10hf_magmom
 _atom_site_hse06_bader_spin_density
 _atom_site_hse06_ddec_charge
 _atom_site_hse06_ddec_spin_density
 _atom_site_hse06_ddec_sum_bond_order
 _atom_site_hse06_magmom
 _atom_site_pbe_bader_spin_density
 _atom_site_pbe_cm5_charge
 _atom_site_pbe_ddec_charge
 _atom_site_pbe_ddec_spin_density
 _atom_site_pbe_ddec_sum_bond_order
 _atom_site_pbe_magmom
Zn  Zn0  1  0.39777148  0.39777201  0.39777189  1  0  0.943487  0  2.057245  0  0  0.747311  0  2.559711  0  0  0.786694  0  2.510088  0  0  0.774609  0.720188  0  2.593874  0
Zn  Zn1  1  0.10222466  0.10222425  0.10222469  1  0  0.943498  0  2.057152  0  0  0.747329  0  2.559629  0  0  0.786707  0  2.510003  0  0  0.774615  0.720222  0  2.593789  0
Zn  Zn2  1  0.60222245  0.60222294  0.60222294  1  0  0.94343  0  2.057212  0  0  0.747257  0  2.559713  0  0  0.786642  0  2.510091  0  0  0.774513  0.720139  0  2.593873  0
Zn  Zn3  1  0.89776927  0.89777069  0.89777014  1  0  0.943377  0  2.057251  0  0  0.747194  0  2.559727  0  0  0.786572  0  2.5101  0  0  0.774634  0.720081  0  2.59389  0
H  H4  1  0.84889033  0.97821545  0.42137210  1  0  0.320663  0  0.952409  0  0  0.287847  0  1.045253  0  0  0.296028  0  1.03815  0  0  0.292854  0.282075  0  1.050173  0
H  H5  1  0.42137143  0.84888872  0.97821450  1  0  0.320695  0  0.952373  0  0  0.287867  0  1.045234  0  0  0.296051  0  1.03813  0  0  0.292865  0.282094  0  1.050155  0
H  H6  1  0.97821486  0.42137230  0.84888912  1  0  0.320677  0  0.9524  0  0  0.287859  0  1.045242  0  0  0.296041  0  1.038138  0  0  0.29287  0.282087  0  1.050163  0
H  H7  1  0.07863222  0.52178870  0.65111407  1  0  0.320697  0  0.952375  0  0  0.287864  0  1.045246  0  0  0.296046  0  1.038142  0  0  0.292849  0.282092  0  1.050167  0
H  H8  1  0.52178854  0.65111302  0.07863076  1  0  0.320692  0  0.952375  0  0  0.287861  0  1.045243  0  0  0.296044  0  1.038137  0  0  0.292843  0.282088  0  1.050164  0
H  H9  1  0.65111437  0.07863193  0.52178930  1  0  0.320713  0  0.952348  0  0  0.287885  0  1.045212  0  0  0.296068  0  1.038107  0  0  0.292847  0.282113  0  1.050133  0
H  H10  1  0.15111404  0.02178796  0.57863381  1  0  0.320637  0  0.952448  0  0  0.287835  0  1.045278  0  0  0.296016  0  1.038177  0  0  0.292854  0.282064  0  1.050199  0
H  H11  1  0.57863145  0.15111590  0.02178938  1  0  0.320728  0  0.952351  0  0  0.287892  0  1.045224  0  0  0.296075  0  1.03812  0  0  0.292878  0.28212  0  1.050145  0
H  H12  1  0.02178803  0.57863232  0.15111476  1  0  0.32072  0  0.952358  0  0  0.287902  0  1.045205  0  0  0.296084  0  1.038101  0  0  0.292875  0.282131  0  1.050126  0
H  H13  1  0.92137067  0.47821592  0.34889088  1  0  0.32068  0  0.952389  0  0  0.287848  0  1.045242  0  0  0.296031  0  1.03814  0  0  0.292862  0.282076  0  1.050162  0
H  H14  1  0.47821550  0.34889160  0.92137160  1  0  0.320692  0  0.952455  0  0  0.287855  0  1.045317  0  0  0.296038  0  1.038215  0  0  0.292868  0.282084  0  1.050237  0
H  H15  1  0.34888917  0.92137028  0.47821739  1  0  0.320633  0  0.952366  0  0  0.287814  0  1.045213  0  0  0.295996  0  1.03811  0  0  0.292858  0.282041  0  1.050132  0
C  C16  1  0.74999985  0.20618635  0.29381297  1  0  0.594372  0  3.850507  0  0  0.54112  0  4.127808  0  0  0.565139  0  4.138443  0  0  0.33593  0.524962  0  4.120249  0
C  C17  1  0.29381325  0.74999888  0.20618732  1  0  0.594197  0  3.850558  0  0  0.540939  0  4.127874  0  0  0.564956  0  4.138515  0  0  0.335874  0.524782  0  4.120314  0
C  C18  1  0.20618628  0.29381269  0.75000055  1  0  0.594197  0  3.850574  0  0  0.540919  0  4.127901  0  0  0.564937  0  4.13854  0  0  0.335855  0.524761  0  4.12034  0
C  C19  1  0.24999739  0.79381343  0.70618844  1  0  0.594434  0  3.850474  0  0  0.54114  0  4.127818  0  0  0.565161  0  4.138452  0  0  0.335937  0.524981  0  4.120261  0
C  C20  1  0.70618665  0.24999970  0.79381354  1  0  0.594129  0  3.850649  0  0  0.540916  0  4.127908  0  0  0.564935  0  4.138546  0  0  0.33587  0.524758  0  4.120347  0
C  C21  1  0.79381329  0.70618710  0.24999889  1  0  0.594334  0  3.850501  0  0  0.541065  0  4.127831  0  0  0.565084  0  4.138467  0  0  0.335916  0.524906  0  4.120273  0
N  N22  1  0.62927195  0.34577617  0.27871038  1  0  -0.434713  0  3.162872  0  0  -0.358939  0  3.474393  0  0  -0.380744  0  3.480037  0  0  -0.274458  -0.344373  0  3.470477  0
N  N23  1  0.27871014  0.62927110  0.34577605  1  0  -0.434684  0  3.162892  0  0  -0.358927  0  3.474436  0  0  -0.380729  0  3.480082  0  0  -0.274481  -0.344362  0  3.470522  0
N  N24  1  0.34577577  0.27871017  0.62927112  1  0  -0.434691  0  3.162927  0  0  -0.358884  0  3.474429  0  0  -0.380685  0  3.480073  0  0  -0.274457  -0.344317  0  3.470512  0
N  N25  1  0.22129113  0.15422408  0.87072658  1  0  -0.43467  0  3.162908  0  0  -0.3589  0  3.474449  0  0  -0.380703  0  3.480095  0  0  -0.274442  -0.344334  0  3.470535  0
N  N26  1  0.15422402  0.87072665  0.22129086  1  0  -0.434662  0  3.162879  0  0  -0.358886  0  3.474413  0  0  -0.38069  0  3.48006  0  0  -0.274427  -0.344321  0  3.4705  0
N  N27  1  0.87072705  0.22129129  0.15422373  1  0  -0.434711  0  3.162825  0  0  -0.358952  0  3.474368  0  0  -0.380755  0  3.480012  0  0  -0.274453  -0.344386  0  3.470455  0
N  N28  1  0.37072446  0.65422241  0.72129287  1  0  -0.434619  0  3.162824  0  0  -0.358845  0  3.474362  0  0  -0.38065  0  3.480012  0  0  -0.274373  -0.344277  0  3.470445  0
N  N29  1  0.72129125  0.37072627  0.65422362  1  0  -0.434586  0  3.162845  0  0  -0.358823  0  3.474354  0  0  -0.380627  0  3.480003  0  0  -0.274397  -0.344256  0  3.470437  0
N  N30  1  0.65422312  0.72129203  0.37072552  1  0  -0.434673  0  3.162732  0  0  -0.358911  0  3.474287  0  0  -0.380715  0  3.479933  0  0  -0.274433  -0.344344  0  3.470371  0
N  N31  1  0.77870926  0.84577692  0.12927102  1  0  -0.434731  0  3.162933  0  0  -0.358963  0  3.474473  0  0  -0.380766  0  3.480116  0  0  -0.274467  -0.344396  0  3.470559  0
N  N32  1  0.84577621  0.12927071  0.77871033  1  0  -0.43462  0  3.162884  0  0  -0.358883  0  3.474421  0  0  -0.380685  0  3.480065  0  0  -0.274476  -0.344317  0  3.470508  0
N  N33  1  0.12926952  0.77871091  0.84577809  1  0  -0.43471  0  3.162848  0  0  -0.358914  0  3.474373  0  0  -0.380716  0  3.480013  0  0  -0.274426  -0.344349  0  3.47046  0
N  N34  1  0.75000093  0.07758060  0.42242016  1  0  -0.693224  0  3.144285  0  0  -0.653593  0  3.39823  0  0  -0.67571  0  3.394578  0  0  -0.579965  -0.638113  0  3.400454  0
N  N35  1  0.42242116  0.75000009  0.07757948  1  0  -0.693119  0  3.144171  0  0  -0.653485  0  3.398139  0  0  -0.675605  0  3.394488  0  0  -0.579914  -0.638  0  3.400364  0
N  N36  1  0.07757977  0.42242085  0.74999995  1  0  -0.693108  0  3.144211  0  0  -0.653475  0  3.398176  0  0  -0.675594  0  3.394527  0  0  -0.579918  -0.637992  0  3.4004  0
N  N37  1  0.25000062  0.92242039  0.57758238  1  0  -0.693186  0  3.144381  0  0  -0.653549  0  3.398291  0  0  -0.675668  0  3.394643  0  0  -0.580003  -0.638068  0  3.400514  0
N  N38  1  0.57758006  0.25000211  0.92242165  1  0  -0.693138  0  3.144304  0  0  -0.653501  0  3.398263  0  0  -0.675621  0  3.394617  0  0  -0.579955  -0.63802  0  3.400486  0
N  N39  1  0.92242145  0.57758135  0.25000117  1  0  -0.693238  0  3.144246  0  0  -0.653594  0  3.398219  0  0  -0.675712  0  3.394569  0  0  -0.580017  -0.638111  0  3.400445  0
N  N40  1  0.67894713  0.44407002  0.12861572  1  0  -0.059028  0  3.048642  0  0  -0.046589  0  3.339176  0  0  -0.044081  0  3.348549  0  0  -0.082908  -0.048013  0  3.332689  0
N  N41  1  0.12861578  0.67894591  0.44407065  1  0  -0.058965  0  3.048532  0  0  -0.046515  0  3.339074  0  0  -0.04401  0  3.34845  0  0  -0.082849  -0.04794  0  3.332588  0
N  N42  1  0.44407046  0.12861687  0.67894692  1  0  -0.059025  0  3.048653  0  0  -0.046602  0  3.339194  0  0  -0.044096  0  3.348569  0  0  -0.082901  -0.048026  0  3.332706  0
N  N43  1  0.37138626  0.05593143  0.82105033  1  0  -0.059025  0  3.04862  0  0  -0.046589  0  3.339167  0  0  -0.044083  0  3.348545  0  0  -0.082927  -0.048015  0  3.33268  0
N  N44  1  0.05593154  0.82104942  0.37138686  1  0  -0.059068  0  3.048544  0  0  -0.046645  0  3.339102  0  0  -0.044137  0  3.348478  0  0  -0.082977  -0.048069  0  3.332616  0
N  N45  1  0.82105089  0.37138701  0.05593025  1  0  -0.059018  0  3.048572  0  0  -0.046586  0  3.339114  0  0  -0.044078  0  3.348488  0  0  -0.082908  -0.048012  0  3.332629  0
N  N46  1  0.32104895  0.55592976  0.87138720  1  0  -0.059075  0  3.048652  0  0  -0.046636  0  3.339197  0  0  -0.044128  0  3.348573  0  0  -0.082971  -0.048062  0  3.332709  0
N  N47  1  0.87138744  0.32104904  0.55593032  1  0  -0.059078  0  3.048568  0  0  -0.046645  0  3.339114  0  0  -0.04414  0  3.348492  0  0  -0.082975  -0.04807  0  3.332626  0
N  N48  1  0.55593010  0.87138775  0.32104925  1  0  -0.059019  0  3.048485  0  0  -0.046582  0  3.339022  0  0  -0.044074  0  3.348397  0  0  -0.082936  -0.048007  0  3.332534  0
N  N49  1  0.62861496  0.94407077  0.17894542  1  0  -0.058994  0  3.048625  0  0  -0.046546  0  3.339154  0  0  -0.04404  0  3.348531  0  0  -0.082862  -0.047971  0  3.332667  0
N  N50  1  0.94407052  0.17894553  0.62861562  1  0  -0.059  0  3.048618  0  0  -0.046561  0  3.339166  0  0  -0.044056  0  3.348544  0  0  -0.082865  -0.047986  0  3.33268  0
N  N51  1  0.17894685  0.62861519  0.94407113  1  0  -0.05904  0  3.048652  0  0  -0.046612  0  3.339195  0  0  -0.044107  0  3.348571  0  0  -0.082907  -0.048036  0  3.332707  0
N  N52  1  0.24999699  0.24999571  0.24999693  1  0  0.440183  0  4.318708  0  0  0.485988  0  4.560707  0  0  0.502504  0  4.590199  0  0  0.109821  0.474895  0  4.540975  0
N  N53  1  0.75000208  0.75000165  0.75000040  1  0  0.440236  0  4.320072  0  0  0.486095  0  4.561995  0  0  0.502615  0  4.591491  0  0  0.1101  0.474994  0  4.542276  0
N  N54  1  0.30478244  0.30478272  0.30478278  1  0  -0.49635  0  2.753548  0  0  -0.468783  0  3.049148  0  0  -0.485941  0  3.050849  0  0  -0.269933  -0.457208  0  3.048333  0
N  N55  1  0.19521602  0.19521355  0.19521507  1  0  -0.495983  0  2.753308  0  0  -0.468431  0  3.04895  0  0  -0.485563  0  3.050618  0  0  -0.269913  -0.456875  0  3.048154  0
N  N56  1  0.69520668  0.69520860  0.69521526  1  0  -0.496298  0  2.752949  0  0  -0.468776  0  3.048573  0  0  -0.485939  0  3.050277  0  0  -0.270107  -0.457193  0  3.047762  0
N  N57  1  0.80478288  0.80478019  0.80477189  1  0  -0.49605  0  2.755232  0  0  -0.468477  0  3.050711  0  0  -0.485615  0  3.052412  0  0  -0.269998  -0.456914  0  3.049903  0
