# generated using pymatgen
data_NaH13C15SO12
_symmetry_space_group_name_H-M   'P 1'
_cell_length_a   7.53540023
_cell_length_b   10.05232890
_cell_length_c   11.81347531
_cell_angle_alpha   75.87737205
_cell_angle_beta   82.65247176
_cell_angle_gamma   78.74278333
_symmetry_Int_Tables_number   1
_chemical_formula_structural   NaH13C15SO12
_chemical_formula_sum   'Na2 H26 C30 S2 O24'
_cell_volume   848.07338191
_cell_formula_units_Z   2
loop_
 _symmetry_equiv_pos_site_id
 _symmetry_equiv_pos_as_xyz
  1  'x, y, z'
loop_
 _atom_site_type_symbol
 _atom_site_label
 _atom_site_symmetry_multiplicity
 _atom_site_fract_x
 _atom_site_fract_y
 _atom_site_fract_z
 _atom_site_occupancy
 _atom_site_hle17_bader_spin_density
 _atom_site_hle17_ddec_charge
 _atom_site_hle17_ddec_spin_density
 _atom_site_hle17_ddec_sum_bond_order
 _atom_site_hle17_magmom
 _atom_site_hse06_10hf_bader_spin_density
 _atom_site_hse06_10hf_ddec_charge
 _atom_site_hse06_10hf_ddec_spin_density
 _atom_site_hse06_10hf_ddec_sum_bond_order
 _atom_site_hse06_10hf_magmom
 _atom_site_hse06_bader_spin_density
 _atom_site_hse06_ddec_charge
 _atom_site_hse06_ddec_spin_density
 _atom_site_hse06_ddec_sum_bond_order
 _atom_site_hse06_magmom
 _atom_site_pbe_bader_spin_density
 _atom_site_pbe_cm5_charge
 _atom_site_pbe_ddec_charge
 _atom_site_pbe_ddec_spin_density
 _atom_site_pbe_ddec_sum_bond_order
 _atom_site_pbe_magmom
Na  Na0  1  0.47981240  0.22434366  0.09860077  1  0  0.899983  0  0.398537  0  0  0.85432  0  0.555216  0  0  0.864556  0  0.532881  0  0  0.710735  0.846738  0  0.571187  0
Na  Na1  1  0.52018733  0.77565688  0.90139801  1  0  0.899983  0  0.398525  0  0  0.854319  0  0.555205  0  0  0.864555  0  0.532868  0  0  0.710721  0.846735  0  0.571176  0
H  H2  1  0.60308547  0.52088806  0.10350741  1  0  0.406435  0  0.880551  0  0  0.383168  0  0.946347  0  0  0.393753  0  0.932269  0  0  0.310097  0.375694  0  0.954435  0
H  H3  1  0.39691560  0.47911249  0.89649125  1  0  0.406463  0  0.880533  0  0  0.383195  0  0.94633  0  0  0.393782  0  0.932233  0  0  0.310108  0.375724  0  0.954412  0
H  H4  1  0.55622314  0.72679372  0.67421235  1  0  0.390903  0  0.89094  0  0  0.363457  0  0.967149  0  0  0.373741  0  0.955156  0  0  0.308568  0.356137  0  0.975617  0
H  H5  1  0.44376981  0.27320155  0.32578810  1  0  0.390834  0  0.890969  0  0  0.363395  0  0.967202  0  0  0.37368  0  0.955208  0  0  0.308527  0.356071  0  0.975687  0
H  H6  1  0.21945715  0.03193483  0.80151509  1  0  0.378064  0  0.903275  0  0  0.353619  0  0.972289  0  0  0.365787  0  0.959536  0  0  0.303238  0.345096  0  0.981033  0
H  H7  1  0.78054560  0.96806991  0.19848258  1  0  0.37801  0  0.90335  0  0  0.353573  0  0.972361  0  0  0.365741  0  0.959607  0  0  0.303201  0.345048  0  0.981109  0
H  H8  1  0.28306731  0.97605326  0.04186966  1  0  0.393253  0  0.892853  0  0  0.371148  0  0.958685  0  0  0.381326  0  0.947428  0  0  0.303723  0.363964  0  0.96649  0
H  H9  1  0.71693811  0.02394623  0.95813306  1  0  0.393121  0  0.893056  0  0  0.371092  0  0.958716  0  0  0.381261  0  0.947489  0  0  0.303773  0.363914  0  0.966509  0
H  H10  1  0.87223756  0.46649808  0.38665174  1  0  0.386064  0  0.895103  0  0  0.360701  0  0.965972  0  0  0.370672  0  0.955851  0  0  0.310188  0.35378  0  0.972823  0
H  H11  1  0.12776543  0.53350563  0.61334528  1  0  0.386044  0  0.895136  0  0  0.360755  0  0.965894  0  0  0.370728  0  0.955768  0  0  0.310226  0.353832  0  0.97275  0
H  H12  1  0.27162157  0.98905381  0.23195463  1  0  0.117369  0  0.973396  0  0  0.121669  0  1.045446  0  0  0.125918  0  1.041594  0  0  0.109455  0.118644  0  1.048185  0
H  H13  1  0.72837897  0.01094357  0.76804810  1  0  0.117341  0  0.97343  0  0  0.121679  0  1.045445  0  0  0.125933  0  1.041587  0  0  0.109438  0.118652  0  1.048178  0
H  H14  1  0.54520984  0.62934245  0.46654912  1  0  0.115489  0  0.975075  0  0  0.122817  0  1.038247  0  0  0.126542  0  1.035256  0  0  0.10614  0.12015  0  1.040392  0
H  H15  1  0.45478743  0.37065176  0.53345454  1  0  0.11551  0  0.975019  0  0  0.122844  0  1.038175  0  0  0.126565  0  1.035199  0  0  0.106146  0.12018  0  1.040326  0
H  H16  1  0.61293622  0.50623310  0.30528604  1  0  0.118416  0  0.965235  0  0  0.126209  0  1.028287  0  0  0.130101  0  1.026087  0  0  0.106426  0.123419  0  1.029932  0
H  H17  1  0.38706297  0.49376427  0.69471597  1  0  0.118457  0  0.965209  0  0  0.126239  0  1.028275  0  0  0.130131  0  1.026072  0  0  0.106445  0.123427  0  1.029943  0
H  H18  1  0.91038866  0.34822432  0.68748874  1  0  0.153956  0  0.923209  0  0  0.162946  0  0.979958  0  0  0.167651  0  0.978177  0  0  0.11501  0.159586  0  0.981437  0
H  H19  1  0.08961710  0.65178463  0.31250698  1  0  0.153981  0  0.923271  0  0  0.162939  0  0.980047  0  0  0.167642  0  0.978268  0  0  0.115014  0.159581  0  0.981529  0
H  H20  1  0.76299410  0.37184767  0.01215751  1  0  0.429366  0  0.814919  0  0  0.412427  0  0.867684  0  0  0.420716  0  0.857758  0  0  0.33079  0.406472  0  0.874933  0
H  H21  1  0.23699954  0.62815596  0.98784035  1  0  0.429347  0  0.814947  0  0  0.412411  0  0.867708  0  0  0.420702  0  0.857778  0  0  0.330744  0.406452  0  0.874965  0
H  H22  1  0.81411784  0.31577259  0.14342378  1  0  0.433295  0  0.864433  0  0  0.399417  0  0.932633  0  0  0.40932  0  0.918005  0  0  0.298506  0.392418  0  0.942978  0
H  H23  1  0.18588138  0.68423005  0.85657378  1  0  0.433237  0  0.864503  0  0  0.399345  0  0.932726  0  0  0.409248  0  0.918099  0  0  0.298477  0.392345  0  0.943074  0
H  H24  1  0.15754357  0.17808620  0.95024313  1  0  0.436543  0  0.83096  0  0  0.411584  0  0.889522  0  0  0.420905  0  0.875742  0  0  0.316364  0.404889  0  0.899453  0
H  H25  1  0.84245267  0.82191222  0.04975724  1  0  0.43643  0  0.83106  0  0  0.411501  0  0.88962  0  0  0.420819  0  0.875846  0  0  0.316342  0.404807  0  0.899556  0
H  H26  1  0.11551754  0.17120019  0.08777679  1  0  0.425384  0  0.869919  0  0  0.393446  0  0.934488  0  0  0.403766  0  0.919146  0  0  0.299973  0.38616  0  0.945307  0
H  H27  1  0.88447736  0.82879821  0.91222370  1  0  0.425429  0  0.869859  0  0  0.393479  0  0.934447  0  0  0.4038  0  0.919106  0  0  0.299994  0.386195  0  0.945264  0
C  C28  1  0.35161225  0.88494377  0.24759911  1  0  -0.217973  0  3.749128  0  0  -0.2546  0  4.016159  0  0  -0.255039  0  4.033739  0  0  -0.109763  -0.253834  0  4.004188  0
C  C29  1  0.64839117  0.11505261  0.75240187  1  0  -0.218025  0  3.749138  0  0  -0.254683  0  4.016187  0  0  -0.255129  0  4.03377  0  0  -0.109771  -0.253891  0  4.004187  0
C  C30  1  0.10101006  0.16066634  0.67825675  1  0  0.397321  0  3.777321  0  0  0.379879  0  4.043132  0  0  0.400186  0  4.053518  0  0  0.102018  0.366634  0  4.03608  0
C  C31  1  0.89899296  0.83933735  0.32174195  1  0  0.397432  0  3.777167  0  0  0.379963  0  4.043023  0  0  0.400272  0  4.053404  0  0  0.102035  0.366717  0  4.035965  0
C  C32  1  0.50266304  0.68277618  0.38051184  1  0  -0.060567  0  3.701449  0  0  -0.092105  0  3.96526  0  0  -0.089635  0  3.982968  0  0  -0.090861  -0.093653  0  3.953355  0
C  C33  1  0.49734086  0.31721812  0.61948867  1  0  -0.060635  0  3.701342  0  0  -0.092138  0  3.965136  0  0  -0.089676  0  3.982846  0  0  -0.09088  -0.093692  0  3.953235  0
C  C34  1  0.48966599  0.67842075  0.17750562  1  0  0.238938  0  3.822446  0  0  0.226099  0  4.086211  0  0  0.236194  0  4.101979  0  0  0.07208  0.21908  0  4.075634  0
C  C35  1  0.51033745  0.32157561  0.82249621  1  0  0.238924  0  3.822483  0  0  0.226108  0  4.086205  0  0  0.236203  0  4.101971  0  0  0.072086  0.219092  0  4.075627  0
C  C36  1  0.54265526  0.61368279  0.28941886  1  0  -0.184792  0  3.756944  0  0  -0.204809  0  4.015247  0  0  -0.210429  0  4.033892  0  0  -0.109018  -0.201085  0  4.002804  0
C  C37  1  0.45734268  0.38631453  0.71058666  1  0  -0.184782  0  3.756924  0  0  -0.204792  0  4.015178  0  0  -0.210408  0  4.033822  0  0  -0.108982  -0.201042  0  4.002738  0
C  C38  1  0.39255692  0.81634590  0.15682453  1  0  0.212257  0  3.844556  0  0  0.205521  0  4.110113  0  0  0.210482  0  4.127373  0  0  0.062348  0.201586  0  4.098702  0
C  C39  1  0.60745008  0.18365256  0.84317826  1  0  0.212392  0  3.844433  0  0  0.205631  0  4.11002  0  0  0.210594  0  4.127278  0  0  0.062356  0.201681  0  4.098628  0
C  C40  1  0.96751313  0.32152116  0.51059039  1  0  0.420602  0  3.79862  0  0  0.394359  0  4.076044  0  0  0.416834  0  4.08472  0  0  0.1071  0.379898  0  4.0688  0
C  C41  1  0.03249253  0.67848257  0.48940638  1  0  0.420578  0  3.798927  0  0  0.394316  0  4.076385  0  0  0.416797  0  4.085057  0  0  0.107114  0.37985  0  4.069139  0
C  C42  1  0.98565676  0.28092477  0.63187836  1  0  -0.315936  0  3.663068  0  0  -0.347575  0  3.930144  0  0  -0.361889  0  3.945867  0  0  -0.117877  -0.338678  0  3.919739  0
C  C43  1  0.01434598  0.71907998  0.36811846  1  0  -0.315961  0  3.663222  0  0  -0.347516  0  3.930246  0  0  -0.361837  0  3.94598  0  0  -0.117814  -0.338622  0  3.919839  0
C  C44  1  0.19304166  0.07114883  0.60401543  1  0  -0.270765  0  3.811695  0  0  -0.266117  0  4.065758  0  0  -0.284503  0  4.087893  0  0  -0.044758  -0.254896  0  4.051497  0
C  C45  1  0.80696029  0.92885379  0.39598443  1  0  -0.27085  0  3.811669  0  0  -0.266249  0  4.065769  0  0  -0.284638  0  4.087902  0  0  -0.044802  -0.255022  0  4.051497  0
C  C46  1  0.16901316  0.11101824  0.48406130  1  0  0.329477  0  3.770749  0  0  0.294808  0  4.044744  0  0  0.316064  0  4.055571  0  0  0.103689  0.280956  0  4.037468  0
C  C47  1  0.83098742  0.88898439  0.51593699  1  0  0.329612  0  3.770549  0  0  0.295011  0  4.044452  0  0  0.31627  0  4.05527  0  0  0.103771  0.281164  0  4.037159  0
C  C48  1  0.40517018  0.82004966  0.36104634  1  0  0.00842  0  3.830459  0  0  0.021454  0  4.079476  0  0  0.01522  0  4.105307  0  0  -0.028503  0.025242  0  4.06238  0
C  C49  1  0.59482794  0.17994665  0.63895682  1  0  0.008477  0  3.830433  0  0  0.021468  0  4.079493  0  0  0.015237  0  4.105322  0  0  -0.028505  0.025256  0  4.062406  0
C  C50  1  0.38364555  0.85427031  0.57024863  1  0  0.084803  0  3.810267  0  0  0.065966  0  4.096561  0  0  0.06296  0  4.112798  0  0  0.056168  0.067035  0  4.08588  0
C  C51  1  0.61634832  0.14572701  0.42975471  1  0  0.084814  0  3.810407  0  0  0.066032  0  4.096639  0  0  0.06302  0  4.112873  0  0  0.056227  0.067103  0  4.085966  0
C  C52  1  0.34946170  0.89603041  0.45323521  1  0  0.172174  0  3.671581  0  0  0.141795  0  3.948105  0  0  0.156252  0  3.963018  0  0  0.096069  0.132069  0  3.9379  0
C  C53  1  0.65053188  0.10396797  0.54676625  1  0  0.172021  0  3.671701  0  0  0.141656  0  3.94821  0  0  0.15612  0  3.96311  0  0  0.096023  0.131913  0  3.938028  0
C  C54  1  0.31080111  0.94382995  0.64935890  1  0  0.343421  0  3.877044  0  0  0.312546  0  4.159655  0  0  0.339001  0  4.161977  0  0  0.108923  0.295364  0  4.157578  0
C  C55  1  0.68919954  0.05617264  0.35064277  1  0  0.343395  0  3.877039  0  0  0.312561  0  4.15957  0  0  0.339026  0  4.161873  0  0  0.108934  0.295372  0  4.157501  0
C  C56  1  0.06542787  0.23936383  0.43291026  1  0  -0.416394  0  3.67264  0  0  -0.408933  0  3.954963  0  0  -0.426169  0  3.969393  0  0  -0.065466  -0.397951  0  3.945117  0
C  C57  1  0.93457318  0.76063673  0.56708756  1  0  -0.416481  0  3.672748  0  0  -0.409005  0  3.955014  0  0  -0.426276  0  3.969515  0  0  -0.065487  -0.398021  0  3.945158  0
S  S58  1  0.07827327  0.30346714  0.27881413  1  0  1.371742  0  5.566816  0  0  1.26651  0  6.096764  0  0  1.316162  0  6.069561  0  0  0.525578  1.23229  0  6.114748  0
S  S59  1  0.92172776  0.69653344  0.72118284  1  0  1.37185  0  5.56665  0  0  1.266585  0  6.096632  0  0  1.316241  0  6.069425  0  0  0.52563  1.232365  0  6.114614  0
O  O60  1  0.52412210  0.61561202  0.08540203  1  0  -0.568654  0  2.171768  0  0  -0.519912  0  2.393128  0  0  -0.538083  0  2.379437  0  0  -0.40903  -0.506984  0  2.400823  0
O  O61  1  0.47588171  0.38438851  0.91459978  1  0  -0.568713  0  2.171681  0  0  -0.519979  0  2.393033  0  0  -0.538151  0  2.379327  0  0  -0.409061  -0.507052  0  2.400725  0
O  O62  1  0.27302521  0.29783346  0.23865636  1  0  -0.727662  0  2.000874  0  0  -0.679882  0  2.264142  0  0  -0.698922  0  2.244361  0  0  -0.41204  -0.666376  0  2.277172  0
O  O63  1  0.72697575  0.70216187  0.76134336  1  0  -0.727694  0  2.00076  0  0  -0.679946  0  2.264067  0  0  -0.698984  0  2.244283  0  0  -0.412075  -0.666444  0  2.277092  0
O  O64  1  0.97686416  0.44656536  0.25938075  1  0  -0.654957  0  1.946915  0  0  -0.604295  0  2.183922  0  0  -0.623799  0  2.16788  0  0  -0.334717  -0.590664  0  2.194676  0
O  O65  1  0.02314174  0.55343733  0.74061621  1  0  -0.654904  0  1.946827  0  0  -0.604283  0  2.183849  0  0  -0.623787  0  2.167807  0  0  -0.334724  -0.590657  0  2.194601  0
O  O66  1  0.48025852  0.72650765  0.61117956  1  0  -0.476083  0  2.185353  0  0  -0.423216  0  2.402033  0  0  -0.440321  0  2.396351  0  0  -0.343143  -0.410732  0  2.405568  0
O  O67  1  0.51972673  0.27348647  0.38882520  1  0  -0.475917  0  2.185258  0  0  -0.423164  0  2.402004  0  0  -0.440271  0  2.396325  0  0  -0.343133  -0.410685  0  2.40557  0
O  O68  1  0.12636277  0.12276960  0.79373576  1  0  -0.512767  0  2.061071  0  0  -0.461383  0  2.263428  0  0  -0.480361  0  2.251342  0  0  -0.340849  -0.448029  0  2.271426  0
O  O69  1  0.87363974  0.87723618  0.20626172  1  0  -0.512747  0  2.060971  0  0  -0.46141  0  2.263378  0  0  -0.480385  0  2.251288  0  0  -0.340862  -0.448057  0  2.271381  0
O  O70  1  0.34053949  0.87603374  0.04612811  1  0  -0.576371  0  2.138851  0  0  -0.530983  0  2.356464  0  0  -0.547139  0  2.345077  0  0  -0.427475  -0.519367  0  2.364137  0
O  O71  1  0.65946830  0.12396684  0.95387164  1  0  -0.576344  0  2.138936  0  0  -0.530988  0  2.35657  0  0  -0.547141  0  2.345188  0  0  -0.42751  -0.519373  0  2.364246  0
O  O72  1  0.99763241  0.21498040  0.22247881  1  0  -0.686286  0  1.982676  0  0  -0.622054  0  2.219633  0  0  -0.644828  0  2.204991  0  0  -0.328726  -0.606107  0  2.229376  0
O  O73  1  0.00236416  0.78502220  0.77751984  1  0  -0.686421  0  1.982803  0  0  -0.622086  0  2.219665  0  0  -0.644857  0  2.205021  0  0  -0.328726  -0.606142  0  2.229406  0
O  O74  1  0.85337718  0.44016015  0.47409459  1  0  -0.48843  0  2.140411  0  0  -0.435234  0  2.355401  0  0  -0.45537  0  2.347841  0  0  -0.330432  -0.420985  0  2.35947  0
O  O75  1  0.14662094  0.55984144  0.52590244  1  0  -0.488374  0  2.140464  0  0  -0.435258  0  2.355437  0  0  -0.455392  0  2.347871  0  0  -0.330487  -0.421011  0  2.359513  0
O  O76  1  0.34816480  0.91093169  0.75657517  1  0  -0.591915  0  2.023688  0  0  -0.5494  0  2.265285  0  0  -0.568377  0  2.254669  0  0  -0.380095  -0.536106  0  2.271851  0
O  O77  1  0.65182735  0.08907292  0.24342687  1  0  -0.591926  0  2.023629  0  0  -0.549404  0  2.265172  0  0  -0.568386  0  2.254552  0  0  -0.380098  -0.536104  0  2.271739  0
O  O78  1  0.24837054  0.02507243  0.41272503  1  0  -0.239632  0  2.484714  0  0  -0.162562  0  2.718554  0  0  -0.182818  0  2.723506  0  0  -0.109154  -0.148799  0  2.714683  0
O  O79  1  0.75163299  0.97492916  0.58727490  1  0  -0.239638  0  2.48473  0  0  -0.162581  0  2.71852  0  0  -0.182842  0  2.723483  0  0  -0.109197  -0.148813  0  2.714643  0
O  O80  1  0.71520530  0.36746545  0.09328906  1  0  -0.835566  0  1.868139  0  0  -0.792649  0  2.042789  0  0  -0.808818  0  2.014387  0  0  -0.598257  -0.781249  0  2.062442  0
O  O81  1  0.28479151  0.63253611  0.90670978  1  0  -0.835493  0  1.868211  0  0  -0.792585  0  2.042845  0  0  -0.808755  0  2.01444  0  0  -0.598196  -0.781182  0  2.062502  0
O  O82  1  0.20972711  0.14684337  0.02612585  1  0  -0.838922  0  1.839095  0  0  -0.790135  0  2.000826  0  0  -0.807573  0  1.970457  0  0  -0.583012  -0.777773  0  2.022014  0
O  O83  1  0.79026853  0.85315191  0.97387521  1  0  -0.838782  0  1.839162  0  0  -0.790053  0  2.00093  0  0  -0.807486  0  1.970568  0  0  -0.583026  -0.777699  0  2.022108  0
