# generated using pymatgen
data_Cd2H9C9NO12
_symmetry_space_group_name_H-M   'P 1'
_cell_length_a   8.30029796
_cell_length_b   8.69752022
_cell_length_c   11.57084958
_cell_angle_alpha   87.56521873
_cell_angle_beta   65.32685717
_cell_angle_gamma   66.61697476
_symmetry_Int_Tables_number   1
_chemical_formula_structural   Cd2H9C9NO12
_chemical_formula_sum   'Cd4 H18 C18 N2 O24'
_cell_volume   689.08003600
_cell_formula_units_Z   2
loop_
 _symmetry_equiv_pos_site_id
 _symmetry_equiv_pos_as_xyz
  1  'x, y, z'
loop_
 _atom_site_type_symbol
 _atom_site_label
 _atom_site_symmetry_multiplicity
 _atom_site_fract_x
 _atom_site_fract_y
 _atom_site_fract_z
 _atom_site_occupancy
 _atom_site_hle17_bader_spin_density
 _atom_site_hle17_ddec_charge
 _atom_site_hle17_ddec_spin_density
 _atom_site_hle17_ddec_sum_bond_order
 _atom_site_hle17_magmom
 _atom_site_hse06_10hf_bader_spin_density
 _atom_site_hse06_10hf_ddec_charge
 _atom_site_hse06_10hf_ddec_spin_density
 _atom_site_hse06_10hf_ddec_sum_bond_order
 _atom_site_hse06_10hf_magmom
 _atom_site_hse06_bader_spin_density
 _atom_site_hse06_ddec_charge
 _atom_site_hse06_ddec_spin_density
 _atom_site_hse06_ddec_sum_bond_order
 _atom_site_hse06_magmom
 _atom_site_pbe_bader_spin_density
 _atom_site_pbe_cm5_charge
 _atom_site_pbe_ddec_charge
 _atom_site_pbe_ddec_spin_density
 _atom_site_pbe_ddec_sum_bond_order
 _atom_site_pbe_magmom
Cd  Cd0  1  0.80564287  0.19811516  0.09947520  1  0  1.239738  0  1.599878  0  0  1.051162  0  2.042934  0  0  1.111074  0  1.986575  0  0  0.784594  1.007595  0  2.081954  0
Cd  Cd1  1  0.19435964  0.80188468  0.90052424  1  0  1.239717  0  1.599862  0  0  1.051137  0  2.042915  0  0  1.111049  0  1.986551  0  0  0.784576  1.007571  0  2.081937  0
Cd  Cd2  1  0.83652927  0.57671677  0.41958256  1  0  1.286806  0  1.498763  0  0  1.110573  0  1.931944  0  0  1.169455  0  1.873156  0  0  0.778549  1.068104  0  1.972298  0
Cd  Cd3  1  0.16347179  0.42328058  0.58041648  1  0  1.286816  0  1.498767  0  0  1.110609  0  1.931946  0  0  1.169491  0  1.873155  0  0  0.778559  1.068153  0  1.972284  0
H  H4  1  0.06075745  0.97624969  0.20309425  1  0  0.423252  0  0.885921  0  0  0.388287  0  0.956545  0  0  0.400073  0  0.939434  0  0  0.289066  0.379899  0  0.968692  0
H  H5  1  0.93924298  0.02374892  0.79690580  1  0  0.423255  0  0.885914  0  0  0.388289  0  0.956544  0  0  0.400076  0  0.939431  0  0  0.289061  0.379901  0  0.968691  0
H  H6  1  0.93484983  0.14679447  0.30621515  1  0  0.426789  0  0.837162  0  0  0.400429  0  0.907009  0  0  0.409577  0  0.896215  0  0  0.306149  0.39385  0  0.914829  0
H  H7  1  0.06515201  0.85320413  0.69378278  1  0  0.426788  0  0.837158  0  0  0.40043  0  0.906998  0  0  0.409578  0  0.896205  0  0  0.306136  0.393853  0  0.914818  0
H  H8  1  0.83998002  0.93601530  0.38048937  1  0  0.433418  0  0.86074  0  0  0.401749  0  0.924703  0  0  0.412892  0  0.908493  0  0  0.290996  0.393768  0  0.936303  0
H  H9  1  0.16001605  0.06398717  0.61951010  1  0  0.433327  0  0.860865  0  0  0.401719  0  0.924739  0  0  0.412863  0  0.908528  0  0  0.290986  0.393737  0  0.936342  0
H  H10  1  0.81162291  0.89709088  0.52053527  1  0  0.428217  0  0.81531  0  0  0.411397  0  0.868176  0  0  0.419923  0  0.85849  0  0  0.318897  0.405206  0  0.875318  0
H  H11  1  0.18837141  0.10291539  0.47946462  1  0  0.428319  0  0.815196  0  0  0.411506  0  0.868043  0  0  0.420031  0  0.858358  0  0  0.318956  0.405316  0  0.875184  0
H  H12  1  0.46136820  0.84954151  0.50512715  1  0  0.439129  0  0.815682  0  0  0.410936  0  0.884892  0  0  0.421057  0  0.873483  0  0  0.314142  0.403645  0  0.893101  0
H  H13  1  0.53863035  0.15045839  0.49487255  1  0  0.439122  0  0.815717  0  0  0.410928  0  0.884925  0  0  0.421049  0  0.873515  0  0  0.314137  0.403637  0  0.893134  0
H  H14  1  0.48326455  0.72486056  0.60823215  1  0  0.426296  0  0.88129  0  0  0.392246  0  0.948794  0  0  0.40391  0  0.932125  0  0  0.295108  0.384184  0  0.960305  0
H  H15  1  0.51673533  0.27513932  0.39176717  1  0  0.426277  0  0.881312  0  0  0.392232  0  0.948807  0  0  0.403895  0  0.932139  0  0  0.295116  0.38417  0  0.960318  0
H  H16  1  0.78624522  0.31929248  0.57654037  1  0  0.442123  0  0.856601  0  0  0.410389  0  0.92097  0  0  0.421472  0  0.904704  0  0  0.292297  0.40223  0  0.932969  0
H  H17  1  0.21375257  0.68070618  0.42345956  1  0  0.442138  0  0.856584  0  0  0.410399  0  0.920962  0  0  0.421483  0  0.904693  0  0  0.292286  0.402241  0  0.932961  0
H  H18  1  0.68472746  0.31930952  0.48710656  1  0  0.430671  0  0.86817  0  0  0.402394  0  0.925549  0  0  0.413318  0  0.909858  0  0  0.2896  0.394607  0  0.936742  0
H  H19  1  0.31526920  0.68069168  0.51289277  1  0  0.430671  0  0.868184  0  0  0.402398  0  0.925564  0  0  0.413324  0  0.909868  0  0  0.289572  0.39461  0  0.936759  0
H  H20  1  0.68212785  0.87198231  0.87393185  1  0  0.129297  0  0.935808  0  0  0.140248  0  0.9922  0  0  0.144484  0  0.98898  0  0  0.117754  0.136988  0  0.99483  0
H  H21  1  0.31787728  0.12801498  0.12606431  1  0  0.129341  0  0.935744  0  0  0.140242  0  0.992193  0  0  0.14447  0  0.988985  0  0  0.117758  0.13698  0  0.994821  0
C  C22  1  0.74857646  0.31130535  0.83971744  1  0  0.634072  0  3.924085  0  0  0.578896  0  4.230624  0  0  0.61161  0  4.22324  0  0  0.208501  0.556664  0  4.234878  0
C  C23  1  0.25142901  0.68869065  0.16028470  1  0  0.634123  0  3.924148  0  0  0.578891  0  4.230754  0  0  0.611607  0  4.223374  0  0  0.208467  0.556657  0  4.235007  0
C  C24  1  0.73251714  0.46710896  0.90518933  1  0  0.08994  0  3.736337  0  0  0.077304  0  3.991819  0  0  0.080552  0  4.009249  0  0  0.113035  0.074727  0  3.980317  0
C  C25  1  0.26748079  0.53289220  0.09481137  1  0  0.089914  0  3.736348  0  0  0.077317  0  3.991821  0  0  0.080565  0  4.009252  0  0  0.113094  0.074743  0  3.980313  0
C  C26  1  0.70912617  0.61692907  0.85026492  1  0  -0.094174  0  3.695932  0  0  -0.079653  0  3.946262  0  0  -0.086171  0  3.962487  0  0  0.002531  -0.075316  0  3.935517  0
C  C27  1  0.29087948  0.38306695  0.14973285  1  0  -0.094154  0  3.695947  0  0  -0.07966  0  3.946249  0  0  -0.086174  0  3.96247  0  0  0.002487  -0.075322  0  3.935491  0
C  C28  1  0.68647718  0.63255761  0.72751495  1  0  0.728157  0  3.832903  0  0  0.66381  0  4.134813  0  0  0.70268  0  4.122479  0  0  0.233822  0.636948  0  4.14273  0
C  C29  1  0.31353090  0.36743584  0.27248392  1  0  0.727996  0  3.833152  0  0  0.663724  0  4.134967  0  0  0.702592  0  4.122631  0  0  0.233817  0.636861  0  4.142879  0
C  C30  1  0.70607148  0.75259252  0.91266457  1  0  -0.020857  0  3.602688  0  0  -0.061205  0  3.856909  0  0  -0.056977  0  3.869643  0  0  -0.055444  -0.063777  0  3.848571  0
C  C31  1  0.29393169  0.24740606  0.08733298  1  0  -0.020847  0  3.602684  0  0  -0.061149  0  3.856881  0  0  -0.056915  0  3.869615  0  0  -0.05545  -0.063712  0  3.84857  0
C  C32  1  0.72933239  0.73603552  0.02625980  1  0  -0.04921  0  3.638233  0  0  -0.036794  0  3.883636  0  0  -0.040526  0  3.89801  0  0  0.0127  -0.034859  0  3.874528  0
C  C33  1  0.27066351  0.26396443  0.97373977  1  0  -0.049276  0  3.638199  0  0  -0.03679  0  3.883588  0  0  -0.04052  0  3.897954  0  0  0.012726  -0.034904  0  3.87454  0
C  C34  1  0.71019558  0.88835525  0.09745748  1  0  0.688368  0  3.905971  0  0  0.630173  0  4.214  0  0  0.666702  0  4.203506  0  0  0.210199  0.60497  0  4.220602  0
C  C35  1  0.28980951  0.11164204  0.90253956  1  0  0.688389  0  3.906119  0  0  0.630181  0  4.214146  0  0  0.666709  0  4.203651  0  0  0.210225  0.604991  0  4.22075  0
C  C36  1  0.75745207  0.58039086  0.07250855  1  0  0.097215  0  3.70963  0  0  0.088784  0  3.957028  0  0  0.091201  0  3.973542  0  0  0.116932  0.087047  0  3.946043  0
C  C37  1  0.24254794  0.41961153  0.92749155  1  0  0.097254  0  3.709564  0  0  0.088679  0  3.957173  0  0  0.091098  0  3.973686  0  0  0.116917  0.086956  0  3.946197  0
C  C38  1  0.79935354  0.54300670  0.18761573  1  0  0.614888  0  3.93015  0  0  0.561196  0  4.225796  0  0  0.595439  0  4.220517  0  0  0.203015  0.538163  0  4.227986  0
C  C39  1  0.20064340  0.45699951  0.81238428  1  0  0.614824  0  3.930259  0  0  0.561164  0  4.225928  0  0  0.595405  0  4.220647  0  0  0.202954  0.538133  0  4.228119  0
N  N40  1  0.75488180  0.45293620  0.01336557  1  0  -0.345653  0  3.320669  0  0  -0.287313  0  3.5871  0  0  -0.304275  0  3.606722  0  0  -0.316245  -0.275453  0  3.573812  0
N  N41  1  0.24511804  0.54706367  0.98663462  1  0  -0.345624  0  3.320716  0  0  -0.287257  0  3.587197  0  0  -0.304221  0  3.606821  0  0  -0.316243  -0.275396  0  3.573901  0
O  O42  1  0.75618747  0.18485598  0.90066350  1  0  -0.639006  0  2.03913  0  0  -0.576816  0  2.28097  0  0  -0.605069  0  2.272275  0  0  -0.317707  -0.556839  0  2.286298  0
O  O43  1  0.24381497  0.81514384  0.09933769  1  0  -0.639067  0  2.039008  0  0  -0.576888  0  2.280936  0  0  -0.605115  0  2.27217  0  0  -0.31772  -0.556911  0  2.286265  0
O  O44  1  0.76079915  0.31659488  0.72775094  1  0  -0.622268  0  1.998861  0  0  -0.572723  0  2.228583  0  0  -0.596762  0  2.21825  0  0  -0.315047  -0.555615  0  2.235363  0
O  O45  1  0.23920512  0.68340115  0.27224809  1  0  -0.622257  0  1.998958  0  0  -0.572688  0  2.22871  0  0  -0.596729  0  2.218374  0  0  -0.315026  -0.555581  0  2.235489  0
O  O46  1  0.84033775  0.60398028  0.62189950  1  0  -0.697317  0  2.082038  0  0  -0.613234  0  2.350162  0  0  -0.648226  0  2.3363  0  0  -0.322666  -0.588308  0  2.35868  0
O  O47  1  0.15966832  0.39601196  0.37809823  1  0  -0.697198  0  2.081996  0  0  -0.613186  0  2.350136  0  0  -0.648188  0  2.336295  0  0  -0.322632  -0.588258  0  2.358651  0
O  O48  1  0.51770810  0.68362662  0.73373981  1  0  -0.62079  0  2.115211  0  0  -0.548895  0  2.363712  0  0  -0.57873  0  2.350633  0  0  -0.292  -0.52842  0  2.372328  0
O  O49  1  0.48229167  0.31637325  0.26626213  1  0  -0.620688  0  2.115374  0  0  -0.548833  0  2.36388  0  0  -0.578672  0  2.350807  0  0  -0.292002  -0.52836  0  2.372495  0
O  O50  1  0.85934325  0.92634185  0.05002662  1  0  -0.698391  0  2.104943  0  0  -0.6098  0  2.378414  0  0  -0.646207  0  2.364908  0  0  -0.336704  -0.583756  0  2.38676  0
O  O51  1  0.14065663  0.07365803  0.94997270  1  0  -0.698407  0  2.10482  0  0  -0.609805  0  2.37827  0  0  -0.646214  0  2.364765  0  0  -0.336732  -0.583758  0  2.386608  0
O  O52  1  0.55064358  0.97227239  0.18894081  1  0  -0.569964  0  1.874978  0  0  -0.530033  0  2.086736  0  0  -0.555125  0  2.078636  0  0  -0.312228  -0.511561  0  2.091424  0
O  O53  1  0.44935313  0.02773130  0.81106105  1  0  -0.569936  0  1.875254  0  0  -0.530007  0  2.087044  0  0  -0.555103  0  2.078949  0  0  -0.312224  -0.511537  0  2.091729  0
O  O54  1  0.82596314  0.65492685  0.23591805  1  0  -0.608373  0  2.029606  0  0  -0.536397  0  2.27008  0  0  -0.568601  0  2.263972  0  0  -0.306297  -0.513789  0  2.273034  0
O  O55  1  0.17403169  0.34507814  0.76408344  1  0  -0.608302  0  2.029553  0  0  -0.536358  0  2.27006  0  0  -0.568564  0  2.263954  0  0  -0.306261  -0.513751  0  2.273013  0
O  O56  1  0.80991003  0.40429479  0.22948187  1  0  -0.642474  0  2.048777  0  0  -0.57879  0  2.30018  0  0  -0.608424  0  2.291955  0  0  -0.318288  -0.557528  0  2.304838  0
O  O57  1  0.19008734  0.59570765  0.77051810  1  0  -0.642478  0  2.048906  0  0  -0.578785  0  2.30031  0  0  -0.60842  0  2.292086  0  0  -0.318273  -0.557525  0  2.304971  0
O  O58  1  0.92428614  0.05883643  0.26350778  1  0  -0.82645  0  1.881023  0  0  -0.758934  0  2.067294  0  0  -0.781291  0  2.037552  0  0  -0.563545  -0.742946  0  2.088105  0
O  O59  1  0.07571408  0.94116599  0.73648706  1  0  -0.826449  0  1.881022  0  0  -0.758941  0  2.067261  0  0  -0.781297  0  2.037521  0  0  -0.563531  -0.742953  0  2.088075  0
O  O60  1  0.76961803  0.88796491  0.45502341  1  0  -0.83089  0  1.81037  0  0  -0.772788  0  1.986477  0  0  -0.794019  0  1.956994  0  0  -0.569002  -0.757665  0  2.007144  0
O  O61  1  0.23037742  0.11203881  0.54497707  1  0  -0.83091  0  1.810367  0  0  -0.772877  0  1.986417  0  0  -0.794107  0  1.956928  0  0  -0.569052  -0.757755  0  2.007086  0
O  O62  1  0.49005319  0.73107437  0.51874848  1  0  -0.822871  0  1.900946  0  0  -0.749454  0  2.090993  0  0  -0.7745  0  2.060773  0  0  -0.559113  -0.732036  0  2.111695  0
O  O63  1  0.50994532  0.26892553  0.48125209  1  0  -0.822858  0  1.900999  0  0  -0.749437  0  2.091031  0  0  -0.774481  0  2.060811  0  0  -0.559118  -0.732022  0  2.111734  0
O  O64  1  0.80016922  0.32989496  0.48727614  1  0  -0.869747  0  1.843487  0  0  -0.807151  0  2.036461  0  0  -0.830526  0  2.000706  0  0  -0.593599  -0.790731  0  2.062019  0
O  O65  1  0.19982854  0.67010370  0.51272466  1  0  -0.869761  0  1.843462  0  0  -0.807179  0  2.036422  0  0  -0.830555  0  2.000666  0  0  -0.593566  -0.790758  0  2.061982  0
