# generated using pymatgen
data_ZnH22C21NO6
_symmetry_space_group_name_H-M   'P 1'
_cell_length_a   10.87152419
_cell_length_b   13.98870730
_cell_length_c   15.03817040
_cell_angle_alpha   89.89671402
_cell_angle_beta   89.52916476
_cell_angle_gamma   89.84721481
_symmetry_Int_Tables_number   1
_chemical_formula_structural   ZnH22C21NO6
_chemical_formula_sum   'Zn2 H44 C42 N2 O12'
_cell_volume   2286.89447048
_cell_formula_units_Z   2
loop_
 _symmetry_equiv_pos_site_id
 _symmetry_equiv_pos_as_xyz
  1  'x, y, z'
loop_
 _atom_site_type_symbol
 _atom_site_label
 _atom_site_symmetry_multiplicity
 _atom_site_fract_x
 _atom_site_fract_y
 _atom_site_fract_z
 _atom_site_occupancy
 _atom_site_pbe_bader_charge
 _atom_site_pbe_bader_spin_density
 _atom_site_pbe_cm5_charge
 _atom_site_pbe_ddec_charge
 _atom_site_pbe_ddec_spin_density
 _atom_site_pbe_ddec_sum_bond_order
 _atom_site_pbe_magmom
Zn  Zn0  1  0.50099637  0.59831707  0.49956802  1  1.274679  0  0.666265  0.818825  0  2.437586  0
Zn  Zn1  1  0.50089728  0.39708619  0.49974830  1  1.278543  0  0.667065  0.819572  0  2.436271  0
H  H2  1  0.88582014  0.34664491  0.49929872  1  0.098166  0  0.10329  0.099548  0  0.991693  0
H  H3  1  0.52371385  0.35836321  0.23617367  1  0.086354  0  0.102305  0.10832  0  0.997453  0
H  H4  1  0.46466629  0.34755670  0.92993762  1  0.042335  0  0.096575  0.098341  0  1.012144  0
H  H5  1  0.56956000  0.35103821  0.07331842  1  0.071002  0  0.096791  0.099077  0  1.011935  0
H  H6  1  0.32140609  0.06608444  0.56465314  1  0.122788  0  0.116264  0.129368  0  0.985201  0
H  H7  1  0.67817860  0.06516625  0.43580471  1  0.116634  0  0.11639  0.129464  0  0.986051  0
H  H8  1  0.32913320  0.24593613  0.56069353  1  0.136194  0  0.125944  0.104184  0  0.993683  0
H  H9  1  0.67088669  0.24501107  0.43919176  1  0.145392  0  0.12606  0.104694  0  0.994313  0
H  H10  1  0.76546743  0.70748015  0.68518467  1  0.011895  0  0.101458  0.068682  0  0.969924  0
H  H11  1  0.75842598  0.58126490  0.68863407  1  0.067053  0  0.101376  0.070118  0  1.005185  0
H  H12  1  0.89451056  0.70786289  0.82234956  1  0.012114  0  0.087582  0.077155  0  0.986177  0
H  H13  1  0.11621065  0.34623425  0.50438550  1  0.08085  0  0.103363  0.099623  0  0.993285  0
H  H14  1  0.88064287  0.58231521  0.83084618  1  0.01682  0  0.091991  0.086823  0  0.972017  0
H  H15  1  0.99280364  0.56171524  0.68461686  1  0.032698  0  0.085239  0.113052  0  1.018379  0
H  H16  1  0.08404830  0.62733643  0.76013775  1  0.056041  0  0.090278  0.120427  0  0.99332  0
H  H17  1  0.00591886  0.68760051  0.67336970  1  0.034436  0  0.083136  0.105871  0  1.00466  0
H  H18  1  0.24020317  0.70105403  0.30966243  1  0.037425  0  0.101162  0.069604  0  0.970433  0
H  H19  1  0.24711046  0.57505972  0.30125647  1  0.066042  0  0.101832  0.070305  0  1.002547  0
H  H20  1  0.11495723  0.70834431  0.17030365  1  0.013589  0  0.087931  0.077515  0  0.98575  0
H  H21  1  0.12833983  0.58309975  0.15823838  1  0.028365  0  0.092338  0.086844  0  0.971309  0
H  H22  1  0.01238201  0.55818271  0.30273425  1  0.00514  0  0.08552  0.11302  0  1.014472  0
H  H23  1  0.92344470  0.62647621  0.22728357  1  0.033328  0  0.089868  0.119225  0  0.994234  0
H  H24  1  0.55867906  0.75069765  0.36815959  1  0.158999  0  0.13515  0.13188  0  0.971104  0
H  H25  1  0.99897032  0.68375765  0.31661334  1  -0.005451  0  0.083474  0.105675  0  1.005394  0
H  H26  1  0.51855137  0.02088662  0.24372441  1  0.056796  0  0.109125  0.080724  0  0.95238  0
H  H27  1  0.40356442  0.00749708  0.32790476  1  0.023946  0  0.095386  0.055881  0  0.988778  0
H  H28  1  0.49118882  0.84970465  0.19954162  1  0.056048  0  0.096941  0.096842  0  0.961641  0
H  H29  1  0.37931564  0.83398376  0.28344020  1  0.034366  0  0.091654  0.08388  0  1.006097  0
H  H30  1  0.24192379  0.95660465  0.20986091  1  -0.001367  0  0.084304  0.107866  0  1.004025  0
H  H31  1  0.27918540  0.86072790  0.13698007  1  0.04281  0  0.091346  0.123059  0  1.004014  0
H  H32  1  0.35406994  0.97277972  0.12460894  1  -0.017404  0  0.084596  0.107304  0  1.004899  0
H  H33  1  0.48220360  0.01891199  0.75733909  1  0.067358  0  0.109299  0.081112  0  0.951299  0
H  H34  1  0.59629262  0.00718150  0.67226520  1  0.034527  0  0.094853  0.055346  0  0.989173  0
H  H35  1  0.44302447  0.75003610  0.63224160  1  0.165011  0  0.135243  0.131849  0  0.968761  0
H  H36  1  0.51260838  0.84749800  0.80013099  1  0.038039  0  0.09651  0.096607  0  0.961951  0
H  H37  1  0.62237672  0.83279192  0.71468341  1  0.052819  0  0.091494  0.082991  0  1.011488  0
H  H38  1  0.76105201  0.95421967  0.78725943  1  0.030204  0  0.083981  0.107216  0  1.004512  0
H  H39  1  0.72633292  0.85723483  0.85955489  1  0.045802  0  0.091246  0.122954  0  1.004834  0
H  H40  1  0.65131885  0.96919035  0.87438891  1  0.02148  0  0.08454  0.10727  0  1.004627  0
H  H41  1  0.91476664  0.56027228  0.45401883  1  0.109287  0  0.105285  0.117864  0  1.011698  0
H  H42  1  0.08701781  0.56272733  0.53503147  1  0.081202  0  0.105164  0.117677  0  1.010832  0
H  H43  1  0.60794684  0.63392983  0.95139786  1  0.056517  0  0.103938  0.119914  0  1.001496  0
H  H44  1  0.40812727  0.63138352  0.04407638  1  0.064478  0  0.103926  0.120904  0  1.001689  0
H  H45  1  0.50108433  0.35472553  0.76590116  1  0.115842  0  0.102353  0.108251  0  0.997869  0
C  C46  1  0.56079405  0.50124666  0.66707503  1  1.572783  0  0.209576  0.598585  0  4.196239  0
C  C47  1  0.53429772  0.89258490  0.42373229  1  0.514509  0  0.091917  0.185115  0  4.062957  0
C  C48  1  0.46603946  0.89220283  0.57672999  1  0.512457  0  0.091418  0.184139  0  4.062034  0
C  C49  1  0.53338054  0.79289812  0.42643262  1  0.538985  0  0.047198  -0.026078  0  3.908805  0
C  C50  1  0.46787324  0.79250219  0.57396768  1  0.525708  0  0.04846  -0.023789  0  3.904697  0
C  C51  1  0.49993172  0.94512771  0.50024396  1  -0.023142  0  -0.002571  -0.113242  0  3.953761  0
C  C52  1  0.26709984  0.49315405  0.53484728  1  1.571426  0  0.204003  0.628984  0  4.19908  0
C  C53  1  0.73462006  0.49157924  0.46168394  1  1.512338  0  0.204588  0.629897  0  4.198711  0
C  C54  1  0.93562578  0.41391774  0.49077774  1  -0.121016  0  -0.080425  -0.039341  0  4.013354  0
C  C55  1  0.06661000  0.41424843  0.50780562  1  -0.008664  0  -0.0801  -0.038479  0  4.013911  0
C  C56  1  0.87044134  0.49144099  0.46562855  1  0.009023  0  -0.091793  -0.224518  0  3.900561  0
C  C57  1  0.44653831  0.50257505  0.33135771  1  1.52936  0  0.208616  0.596201  0  4.201274  0
C  C58  1  0.13156816  0.49312914  0.52823913  1  -0.093886  0  -0.091664  -0.224366  0  3.902573  0
C  C59  1  0.58155525  0.57241907  0.91146910  1  0.010127  0  -0.104778  -0.254434  0  3.963506  0
C  C60  1  0.43672768  0.57146537  0.08559989  1  -0.011309  0  -0.105276  -0.256963  0  3.965266  0
C  C61  1  0.60646494  0.57494649  0.82011707  1  0.474076  0  0.088982  0.251815  0  4.047798  0
C  C62  1  0.40734494  0.57422148  0.17628563  1  0.461581  0  0.089173  0.251544  0  4.04755  0
C  C63  1  0.57111972  0.49713590  0.76618901  1  -0.022887  0  -0.032442  -0.157121  0  3.961505  0
C  C64  1  0.44400637  0.49798621  0.23198634  1  0.038442  0  -0.032796  -0.15493  0  3.962372  0
C  C65  1  0.52547075  0.41474744  0.80830035  1  -0.06978  0  -0.08889  -0.069449  0  4.01948  0
C  C66  1  0.49787784  0.41709336  0.19235123  1  -0.069578  0  -0.08911  -0.070468  0  4.019167  0
C  C67  1  0.50485333  0.41115350  0.89947637  1  -0.025144  0  -0.107081  -0.167019  0  4.025308  0
C  C68  1  0.52798292  0.49213502  0.95185897  1  -0.010124  0  -0.006538  0.094917  0  4.024483  0
C  C69  1  0.52373284  0.41341547  0.10184936  1  -0.063287  0  -0.107417  -0.168504  0  4.028063  0
C  C70  1  0.76737317  0.64536982  0.73013808  1  0.440036  0  -0.066212  0.037664  0  3.878823  0
C  C71  1  0.88621100  0.64190243  0.78296530  1  -0.002137  0  -0.170517  -0.139113  0  3.996235  0
C  C72  1  0.99830652  0.62899713  0.72203896  1  -0.112187  0  -0.242967  -0.348957  0  3.973873  0
C  C73  1  0.23934161  0.64125936  0.26224652  1  0.411144  0  -0.065824  0.035691  0  3.881761  0
C  C74  1  0.12185316  0.64085226  0.20779688  1  -0.014442  0  -0.17113  -0.139022  0  3.996073  0
C  C75  1  0.00803052  0.62660488  0.26673835  1  -0.012976  0  -0.242091  -0.347376  0  3.973352  0
C  C76  1  0.47402441  0.96900649  0.28842574  1  0.399932  0  -0.063758  0.035047  0  3.885656  0
C  C77  1  0.41794882  0.88688077  0.23682452  1  -0.025318  0  -0.171067  -0.144676  0  3.989487  0
C  C78  1  0.31771154  0.92136196  0.17361082  1  -0.00408  0  -0.241413  -0.348901  0  3.974745  0
C  C79  1  0.49693783  0.49258703  0.04765411  1  0.016466  0  -0.006683  0.095869  0  4.024947  0
C  C80  1  0.52684559  0.96785216  0.71186556  1  0.374549  0  -0.063285  0.035658  0  3.882114  0
C  C81  1  0.58466827  0.88511479  0.76219467  1  -0.019664  0  -0.171344  -0.145519  0  3.991907  0
C  C82  1  0.68642243  0.91853750  0.82428022  1  -0.082538  0  -0.241621  -0.348035  0  3.975646  0
C  C83  1  0.40044954  0.10267652  0.53584026  1  0.011917  0  -0.077509  -0.176581  0  3.943203  0
C  C84  1  0.59921160  0.10216527  0.46446690  1  0.011402  0  -0.077403  -0.175911  0  3.944365  0
C  C85  1  0.40395068  0.20193257  0.53428993  1  0.439605  0  0.057345  0.099003  0  3.920777  0
C  C86  1  0.59595887  0.20141152  0.46569978  1  0.444782  0  0.056578  0.097664  0  3.922032  0
C  C87  1  0.49977682  0.05065645  0.50022207  1  -0.05687  0  0.013725  0.132171  0  4.006308  0
N  N88  1  0.49999796  0.25034186  0.49990493  1  -1.234087  0  -0.318323  -0.19166  0  3.518253  0
N  N89  1  0.50080284  0.74490393  0.50016448  1  -1.222496  0  -0.316902  -0.151708  0  3.578776  0
O  O90  1  0.53828708  0.58262959  0.63252275  1  -1.153908  0  -0.314675  -0.545739  0  2.345567  0
O  O91  1  0.34595467  0.65418588  0.20538754  1  -1.077578  0  -0.195405  -0.232853  0  2.535632  0
O  O92  1  0.57218638  0.93752413  0.34712757  1  -1.080747  0  -0.206119  -0.246533  0  2.506697  0
O  O93  1  0.42831813  0.93688170  0.65347662  1  -1.068291  0  -0.206701  -0.247212  0  2.502706  0
O  O94  1  0.46558810  0.58421524  0.36601163  1  -1.158902  0  -0.314055  -0.54426  0  2.343002  0
O  O95  1  0.56802697  0.42227925  0.62523818  1  -1.170526  0  -0.324806  -0.557069  0  2.325923  0
O  O96  1  0.43675945  0.42381258  0.37346357  1  -1.173589  0  -0.32505  -0.557863  0  2.324818  0
O  O97  1  0.31743419  0.57498537  0.52573587  1  -1.154606  0  -0.324331  -0.550627  0  2.280157  0
O  O98  1  0.68438852  0.57351417  0.47153766  1  -1.157533  0  -0.323611  -0.550842  0  2.278241  0
O  O99  1  0.32316091  0.41374214  0.54581090  1  -1.174946  0  -0.326327  -0.564895  0  2.313044  0
O  O100  1  0.67863037  0.41217754  0.45255671  1  -1.177306  0  -0.325751  -0.563841  0  2.313706  0
O  O101  1  0.66185045  0.65632896  0.78847981  1  -1.066297  0  -0.195646  -0.234794  0  2.537737  0
