# generated using pymatgen
data_CdH19C15SN3O7
_symmetry_space_group_name_H-M   'P 1'
_cell_length_a   4.93924679
_cell_length_b   10.55305538
_cell_length_c   17.50373320
_cell_angle_alpha   93.46943179
_cell_angle_beta   89.99956143
_cell_angle_gamma   90.00020158
_symmetry_Int_Tables_number   1
_chemical_formula_structural   CdH19C15SN3O7
_chemical_formula_sum   'Cd2 H38 C30 S2 N6 O14'
_cell_volume   910.69496430
_cell_formula_units_Z   2
loop_
 _symmetry_equiv_pos_site_id
 _symmetry_equiv_pos_as_xyz
  1  'x, y, z'
loop_
 _atom_site_type_symbol
 _atom_site_label
 _atom_site_symmetry_multiplicity
 _atom_site_fract_x
 _atom_site_fract_y
 _atom_site_fract_z
 _atom_site_occupancy
 _atom_site_hle17_bader_spin_density
 _atom_site_hle17_ddec_charge
 _atom_site_hle17_ddec_spin_density
 _atom_site_hle17_ddec_sum_bond_order
 _atom_site_hle17_magmom
 _atom_site_hse06_10hf_bader_spin_density
 _atom_site_hse06_10hf_ddec_charge
 _atom_site_hse06_10hf_ddec_spin_density
 _atom_site_hse06_10hf_ddec_sum_bond_order
 _atom_site_hse06_10hf_magmom
 _atom_site_hse06_bader_spin_density
 _atom_site_hse06_ddec_charge
 _atom_site_hse06_ddec_spin_density
 _atom_site_hse06_ddec_sum_bond_order
 _atom_site_hse06_magmom
 _atom_site_pbe_bader_spin_density
 _atom_site_pbe_cm5_charge
 _atom_site_pbe_ddec_charge
 _atom_site_pbe_ddec_spin_density
 _atom_site_pbe_ddec_sum_bond_order
 _atom_site_pbe_magmom
Cd  Cd0  1  0.26940697  0.78155948  0.36222358  1  0  1.201872  0  1.604327  0  0  1.012394  0  2.049237  0  0  1.070872  0  1.993331  0  0  0.784538  0.970691  0  2.087511  0
Cd  Cd1  1  0.76941340  0.21843733  0.63777309  1  0  1.201845  0  1.604357  0  0  1.012382  0  2.049287  0  0  1.070854  0  1.993381  0  0  0.784501  0.970682  0  2.08756  0
H  H2  1  0.29161493  0.60540104  0.18550222  1  0  0.115499  0  0.975874  0  0  0.121541  0  1.043075  0  0  0.125024  0  1.041013  0  0  0.105875  0.119049  0  1.044526  0
H  H3  1  0.79161099  0.39460507  0.81450965  1  0  0.11556  0  0.9759  0  0  0.121544  0  1.043148  0  0  0.125025  0  1.041087  0  0  0.105867  0.119055  0  1.044605  0
H  H4  1  0.34247487  0.80407118  0.11862588  1  0  0.094774  0  0.956027  0  0  0.105288  0  1.01537  0  0  0.107721  0  1.016087  0  0  0.100055  0.103568  0  1.014997  0
H  H5  1  0.84250745  0.19593317  0.88138012  1  0  0.094705  0  0.956155  0  0  0.105243  0  1.015479  0  0  0.107675  0  1.016195  0  0  0.100021  0.103522  0  1.015108  0
H  H6  1  0.04537619  0.65051341  0.00039674  1  0  0.095081  0  0.980704  0  0  0.10334  0  1.046165  0  0  0.105779  0  1.046442  0  0  0.098083  0.101506  0  1.046142  0
H  H7  1  0.54541635  0.34950582  0.99960753  1  0  0.094987  0  0.980623  0  0  0.103209  0  1.046128  0  0  0.105644  0  1.046413  0  0  0.098038  0.101388  0  1.04609  0
H  H8  1  0.99669739  0.45065500  0.06680643  1  0  0.103069  0  0.963479  0  0  0.109981  0  1.030299  0  0  0.1126  0  1.029769  0  0  0.104384  0.108076  0  1.030768  0
H  H9  1  0.49667406  0.54935439  0.93319209  1  0  0.103088  0  0.963684  0  0  0.11003  0  1.030449  0  0  0.112648  0  1.029918  0  0  0.104425  0.108127  0  1.030917  0
H  H10  1  0.93162974  0.88397608  0.00208119  1  0  0.109224  0  0.956004  0  0  0.131515  0  1.016424  0  0  0.133112  0  1.015978  0  0  0.09157  0.130395  0  1.016693  0
H  H11  1  0.43165710  0.11602194  0.99791068  1  0  0.109164  0  0.956074  0  0  0.131448  0  1.016503  0  0  0.133045  0  1.016054  0  0  0.091512  0.130327  0  1.016771  0
H  H12  1  0.60799099  0.93707228  0.03633787  1  0  0.102522  0  0.964162  0  0  0.124639  0  1.025223  0  0  0.126209  0  1.024702  0  0  0.089488  0.123534  0  1.025522  0
H  H13  1  0.10800687  0.06294709  0.96366230  1  0  0.102548  0  0.964261  0  0  0.124674  0  1.02529  0  0  0.126245  0  1.024768  0  0  0.089556  0.123567  0  1.025588  0
H  H14  1  0.63437417  0.83800764  0.95121715  1  0  0.124829  0  0.948064  0  0  0.14676  0  1.008444  0  0  0.1486  0  1.007774  0  0  0.094292  0.145324  0  1.009096  0
H  H15  1  0.13443134  0.16200036  0.04878307  1  0  0.124942  0  0.947927  0  0  0.146822  0  1.008344  0  0  0.14866  0  1.007678  0  0  0.094318  0.145385  0  1.008995  0
H  H16  1  0.43971404  0.49861381  0.30302952  1  0  0.087888  0  0.961555  0  0  0.095625  0  1.025763  0  0  0.098208  0  1.024338  0  0  0.115405  0.093711  0  1.027012  0
H  H17  1  0.93972506  0.50138220  0.69697083  1  0  0.087865  0  0.961609  0  0  0.095626  0  1.025808  0  0  0.098208  0  1.024385  0  0  0.11541  0.093713  0  1.027058  0
H  H18  1  0.89256235  0.41451381  0.40817745  1  0  0.075428  0  0.939953  0  0  0.091041  0  1.001809  0  0  0.092259  0  1.001415  0  0  0.093018  0.090141  0  1.002169  0
H  H19  1  0.39255265  0.58547463  0.59181695  1  0  0.075563  0  0.939954  0  0  0.09109  0  1.001854  0  0  0.092303  0  1.001455  0  0  0.093029  0.090191  0  1.002218  0
H  H20  1  0.62097232  0.51417593  0.43723624  1  0  0.098871  0  0.921513  0  0  0.114468  0  0.981399  0  0  0.115993  0  0.981162  0  0  0.102862  0.113251  0  0.981819  0
H  H21  1  0.12097282  0.48581682  0.56276622  1  0  0.098863  0  0.921549  0  0  0.114458  0  0.981398  0  0  0.115976  0  0.981158  0  0  0.102836  0.113268  0  0.981781  0
H  H22  1  0.53676310  0.24365723  0.36566910  1  0  0.095596  0  0.941815  0  0  0.109198  0  1.006024  0  0  0.111267  0  1.004981  0  0  0.095268  0.107724  0  1.00681  0
H  H23  1  0.03673732  0.75633457  0.63432660  1  0  0.09559  0  0.941744  0  0  0.10916  0  1.005981  0  0  0.111228  0  1.004938  0  0  0.095252  0.107682  0  1.006767  0
H  H24  1  0.28804070  0.34354408  0.40865663  1  0  0.104804  0  0.926014  0  0  0.123534  0  0.98011  0  0  0.125627  0  0.979245  0  0  0.10333  0.121993  0  0.980855  0
H  H25  1  0.78803028  0.65644049  0.59133435  1  0  0.104804  0  0.926125  0  0  0.123556  0  0.980154  0  0  0.125651  0  0.979285  0  0  0.103292  0.122009  0  0.980907  0
H  H26  1  0.81090907  0.82811653  0.22155388  1  0  0.105923  0  0.979854  0  0  0.111886  0  1.046034  0  0  0.113709  0  1.046592  0  0  0.11388  0.110559  0  1.045685  0
H  H27  1  0.31091990  0.17188575  0.77846123  1  0  0.10595  0  0.979657  0  0  0.111954  0  1.0458  0  0  0.113778  0  1.046354  0  0  0.113933  0.110627  0  1.045451  0
H  H28  1  0.79687037  0.05216697  0.14352539  1  0  0.110724  0  0.978503  0  0  0.119742  0  1.039951  0  0  0.122514  0  1.038773  0  0  0.118916  0.117724  0  1.04087  0
H  H29  1  0.29684703  0.94782784  0.85647972  1  0  0.110968  0  0.977935  0  0  0.119906  0  1.039481  0  0  0.122677  0  1.038305  0  0  0.119045  0.117886  0  1.040408  0
H  H30  1  0.45858349  0.06241448  0.29755859  1  0  0.095115  0  0.95731  0  0  0.104709  0  1.020131  0  0  0.107068  0  1.01722  0  0  0.13484  0.10283  0  1.022369  0
H  H31  1  0.95857189  0.93759673  0.70244236  1  0  0.095127  0  0.95734  0  0  0.104745  0  1.020122  0  0  0.107103  0  1.017212  0  0  0.134844  0.102871  0  1.022352  0
H  H32  1  0.96446854  0.39323733  0.25060776  1  0  0.313039  0  0.893908  0  0  0.295468  0  0.961991  0  0  0.303395  0  0.954881  0  0  0.305002  0.289883  0  0.966968  0
H  H33  1  0.46445382  0.60677489  0.74938979  1  0  0.313093  0  0.89393  0  0  0.29543  0  0.962115  0  0  0.30335  0  0.955024  0  0  0.305036  0.289845  0  0.96709  0
H  H34  1  0.19566907  0.18241625  0.19784026  1  0  0.30697  0  0.913755  0  0  0.286386  0  0.977557  0  0  0.29418  0  0.971528  0  0  0.315064  0.280909  0  0.981766  0
H  H35  1  0.69565512  0.81758330  0.80215779  1  0  0.306973  0  0.913857  0  0  0.286404  0  0.97763  0  0  0.294198  0  0.971603  0  0  0.315083  0.280924  0  0.98184  0
H  H36  1  0.70669153  0.90489309  0.43965012  1  0  0.428579  0  0.872511  0  0  0.397  0  0.937303  0  0  0.407688  0  0.921554  0  0  0.286834  0.389495  0  0.948331  0
H  H37  1  0.20668865  0.09509606  0.56034576  1  0  0.428577  0  0.872548  0  0  0.396992  0  0.937345  0  0  0.407682  0  0.921592  0  0  0.286811  0.389485  0  0.948379  0
H  H38  1  0.50108329  0.02098340  0.44543090  1  0  0.428123  0  0.873531  0  0  0.396524  0  0.937272  0  0  0.407487  0  0.921371  0  0  0.284876  0.388768  0  0.948507  0
H  H39  1  0.00108035  0.97900363  0.55456409  1  0  0.428172  0  0.873443  0  0  0.396563  0  0.937205  0  0  0.407528  0  0.921301  0  0  0.284849  0.388809  0  0.948437  0
C  C40  1  0.45679467  0.61531921  0.14497401  1  0  -0.055158  0  3.733188  0  0  -0.080348  0  3.984267  0  0  -0.078473  0  4.003976  0  0  -0.083736  -0.081419  0  3.970923  0
C  C41  1  0.95680146  0.38468060  0.85502704  1  0  -0.055175  0  3.733221  0  0  -0.080316  0  3.984306  0  0  -0.07844  0  4.004017  0  0  -0.083663  -0.081398  0  3.970973  0
C  C42  1  0.48655540  0.72682781  0.10683172  1  0  -0.125602  0  3.705725  0  0  -0.137927  0  3.944265  0  0  -0.143116  0  3.965038  0  0  -0.087821  -0.134657  0  3.930239  0
C  C43  1  0.98656195  0.27317673  0.89317290  1  0  -0.125446  0  3.705647  0  0  -0.137757  0  3.944186  0  0  -0.142947  0  3.964961  0  0  -0.087753  -0.134487  0  3.930161  0
C  C44  1  0.69456984  0.74021440  0.05344501  1  0  0.162159  0  3.737696  0  0  0.186294  0  3.971059  0  0  0.190115  0  3.993507  0  0  0.000926  0.183919  0  3.955687  0
C  C45  1  0.19459006  0.25979074  0.94656013  1  0  0.162168  0  3.737595  0  0  0.186178  0  3.971096  0  0  0.19  0  3.993541  0  0  0.000806  0.183803  0  3.955723  0
C  C46  1  0.87901676  0.64013477  0.04038487  1  0  -0.127374  0  3.711043  0  0  -0.142595  0  3.952135  0  0  -0.148211  0  3.973906  0  0  -0.090341  -0.138855  0  3.937418  0
C  C47  1  0.37904148  0.35987062  0.95961825  1  0  -0.127318  0  3.710951  0  0  -0.142447  0  3.952075  0  0  -0.148064  0  3.973843  0  0  -0.090274  -0.138718  0  3.937349  0
C  C48  1  0.85395919  0.52827364  0.07778334  1  0  -0.051283  0  3.755338  0  0  -0.075522  0  4.005028  0  0  -0.073407  0  4.024913  0  0  -0.082191  -0.076695  0  3.991467  0
C  C49  1  0.35395173  0.47173543  0.92222570  1  0  -0.051417  0  3.755602  0  0  -0.075675  0  4.005274  0  0  -0.073559  0  4.025158  0  0  -0.082293  -0.07685  0  3.991713  0
C  C50  1  0.63993173  0.51605628  0.12923434  1  0  -0.148437  0  3.768652  0  0  -0.123458  0  4.022073  0  0  -0.132564  0  4.045522  0  0  -0.027067  -0.117619  0  4.006487  0
C  C51  1  0.13993215  0.48394885  0.87076747  1  0  -0.148512  0  3.768495  0  0  -0.123545  0  4.021925  0  0  -0.132654  0  4.045373  0  0  -0.027113  -0.117703  0  4.00634  0
C  C52  1  0.71896955  0.85666338  0.00891810  1  0  -0.344058  0  3.725781  0  0  -0.428564  0  3.961797  0  0  -0.431138  0  3.970042  0  0  -0.240419  -0.42658  0  3.95605  0
C  C53  1  0.21900346  0.14334952  0.99107876  1  0  -0.344094  0  3.72606  0  0  -0.428535  0  3.962152  0  0  -0.431107  0  3.970395  0  0  -0.240373  -0.426548  0  3.956402  0
C  C54  1  0.65389823  0.48109474  0.31531801  1  0  0.021194  0  3.60898  0  0  0.002629  0  3.853722  0  0  0.001349  0  3.865431  0  0  -0.001257  0.003297  0  3.845961  0
C  C55  1  0.15389905  0.51890195  0.68467771  1  0  0.021237  0  3.609036  0  0  0.002539  0  3.853906  0  0  0.001252  0  3.865608  0  0  -0.001318  0.003199  0  3.846164  0
C  C56  1  0.81457514  0.60509940  0.31330318  1  0  0.642487  0  3.884301  0  0  0.588448  0  4.190035  0  0  0.621877  0  4.184891  0  0  0.203847  0.565779  0  4.192576  0
C  C57  1  0.31458491  0.39489935  0.68669464  1  0  0.642462  0  3.884461  0  0  0.588506  0  4.190119  0  0  0.621937  0  4.184981  0  0  0.203837  0.565838  0  4.192659  0
C  C58  1  0.67874055  0.43518046  0.39679066  1  0  -0.10392  0  3.642182  0  0  -0.149371  0  3.900753  0  0  -0.149202  0  3.912412  0  0  -0.159734  -0.149358  0  3.892817  0
C  C59  1  0.17873030  0.56481717  0.60320791  1  0  -0.104166  0  3.642515  0  0  -0.149476  0  3.90096  0  0  -0.149279  0  3.912581  0  0  -0.159732  -0.149482  0  3.893026  0
C  C60  1  0.50506556  0.31949433  0.41062243  1  0  -0.242782  0  3.659344  0  0  -0.282168  0  3.913589  0  0  -0.287733  0  3.921875  0  0  -0.161402  -0.278255  0  3.907763  0
C  C61  1  0.00505274  0.68050034  0.58937002  1  0  -0.242786  0  3.659487  0  0  -0.282077  0  3.913606  0  0  -0.287642  0  3.921873  0  0  -0.161338  -0.278157  0  3.907789  0
C  C62  1  0.55745867  0.26431003  0.48752209  1  0  0.710973  0  3.835839  0  0  0.661793  0  4.132029  0  0  0.695566  0  4.126589  0  0  0.212851  0.638866  0  4.134843  0
C  C63  1  0.05745901  0.73567707  0.51247224  1  0  0.711087  0  3.835666  0  0  0.661673  0  4.132176  0  0  0.695443  0  4.126741  0  0  0.212811  0.638745  0  4.13499  0
C  C64  1  0.94489135  0.90932180  0.22434939  1  0  -0.002614  0  3.759525  0  0  -0.034479  0  4.023012  0  0  -0.032381  0  4.044444  0  0  -0.004951  -0.035892  0  4.008472  0
C  C65  1  0.44490358  0.09067873  0.77566599  1  0  -0.002543  0  3.759692  0  0  -0.034451  0  4.023176  0  0  -0.032349  0  4.044598  0  0  -0.004998  -0.035864  0  4.008638  0
C  C66  1  0.93557488  0.01844296  0.18547308  1  0  -0.028438  0  3.70422  0  0  -0.06761  0  3.968735  0  0  -0.067124  0  3.988004  0  0  -0.007266  -0.06795  0  3.955848  0
C  C67  1  0.43559980  0.98156240  0.81453623  1  0  -0.028644  0  3.703953  0  0  -0.067729  0  3.968492  0  0  -0.067243  0  3.98777  0  0  -0.007302  -0.068072  0  3.955598  0
C  C68  1  0.28035628  0.02884813  0.26648000  1  0  0.215705  0  3.681706  0  0  0.157596  0  3.941826  0  0  0.171802  0  3.956123  0  0  0.142799  0.148422  0  3.931842  0
C  C69  1  0.78034394  0.97115343  0.73351742  1  0  0.215749  0  3.681466  0  0  0.157639  0  3.941589  0  0  0.171846  0  3.955887  0  0  0.142854  0.148462  0  3.931601  0
S  S70  1  0.60820080  0.37117495  0.17451317  1  0  1.21805  0  5.372988  0  0  1.119129  0  5.892606  0  0  1.163085  0  5.875415  0  0  0.562681  1.088859  0  5.903667  0
S  S71  1  0.10818174  0.62882449  0.82548503  1  0  1.218242  0  5.372876  0  0  1.119402  0  5.892418  0  0  1.163363  0  5.875219  0  0  0.562795  1.089125  0  5.903485  0
N  N72  1  0.75849769  0.38423392  0.25825777  1  0  -0.545111  0  3.089678  0  0  -0.500148  0  3.365203  0  0  -0.517246  0  3.365918  0  0  -0.452666  -0.488002  0  3.364078  0
N  N73  1  0.25848533  0.61575994  0.74174450  1  0  -0.545137  0  3.089847  0  0  -0.500094  0  3.365515  0  0  -0.517196  0  3.36623  0  0  -0.452693  -0.487947  0  3.364394  0
N  N74  1  0.16036405  0.91728063  0.27462813  1  0  -0.407203  0  3.283487  0  0  -0.321173  0  3.561763  0  0  -0.344892  0  3.579194  0  0  -0.364403  -0.304971  0  3.549392  0
N  N75  1  0.66035625  0.08273203  0.72537967  1  0  -0.407167  0  3.283293  0  0  -0.321151  0  3.561605  0  0  -0.344873  0  3.579044  0  0  -0.364366  -0.30495  0  3.549236  0
N  N76  1  0.14883334  0.09244758  0.21293426  1  0  -0.27814  0  3.469798  0  0  -0.21116  0  3.706431  0  0  -0.22659  0  3.721206  0  0  -0.381517  -0.200921  0  3.696266  0
N  N77  1  0.64882272  0.90754436  0.78706126  1  0  -0.278359  0  3.469761  0  0  -0.211374  0  3.70636  0  0  -0.226815  0  3.721146  0  0  -0.381711  -0.201126  0  3.696192  0
O  O78  1  0.70316146  0.70869813  0.33659152  1  0  -0.658745  0  2.049182  0  0  -0.587451  0  2.316301  0  0  -0.617612  0  2.304922  0  0  -0.327502  -0.566272  0  2.323231  0
O  O79  1  0.20316906  0.29129861  0.66340468  1  0  -0.658776  0  2.049088  0  0  -0.587506  0  2.316177  0  0  -0.617661  0  2.304767  0  0  -0.327522  -0.566325  0  2.323105  0
O  O80  1  0.06157196  0.59705187  0.29304772  1  0  -0.645881  0  2.003945  0  0  -0.580013  0  2.250576  0  0  -0.607656  0  2.240321  0  0  -0.323723  -0.560572  0  2.256901  0
O  O81  1  0.56157571  0.40294848  0.70695002  1  0  -0.645783  0  2.00404  0  0  -0.579916  0  2.2506  0  0  -0.607548  0  2.240325  0  0  -0.32365  -0.560475  0  2.256925  0
O  O82  1  0.70345613  0.32962624  0.53547591  1  0  -0.630697  0  1.983374  0  0  -0.556959  0  2.227961  0  0  -0.588608  0  2.219229  0  0  -0.320851  -0.534958  0  2.23318  0
O  O83  1  0.20345748  0.67035152  0.46451950  1  0  -0.630666  0  1.983007  0  0  -0.556809  0  2.227606  0  0  -0.588458  0  2.218883  0  0  -0.320763  -0.534807  0  2.23282  0
O  O84  1  0.45635753  0.15698686  0.50116493  1  0  -0.693242  0  2.013279  0  0  -0.624488  0  2.233932  0  0  -0.65108  0  2.220383  0  0  -0.325561  -0.605866  0  2.242636  0
O  O85  1  0.95637814  0.84300070  0.49882989  1  0  -0.693341  0  2.013312  0  0  -0.624522  0  2.234086  0  0  -0.651112  0  2.220539  0  0  -0.325593  -0.605898  0  2.242792  0
O  O86  1  0.32150695  0.35113752  0.18967586  1  0  -0.621589  0  2.005939  0  0  -0.56612  0  2.259695  0  0  -0.586227  0  2.246883  0  0  -0.30947  -0.552086  0  2.268162  0
O  O87  1  0.82148921  0.64886031  0.81032019  1  0  -0.621616  0  2.005784  0  0  -0.566182  0  2.259559  0  0  -0.586301  0  2.246763  0  0  -0.309472  -0.55214  0  2.268024  0
O  O88  1  0.75246604  0.27448585  0.12867818  1  0  -0.600438  0  1.96134  0  0  -0.551061  0  2.211627  0  0  -0.570494  0  2.200072  0  0  -0.311323  -0.537383  0  2.218937  0
O  O89  1  0.25243214  0.72552616  0.87131744  1  0  -0.600547  0  1.961155  0  0  -0.55122  0  2.211474  0  0  -0.570637  0  2.199888  0  0  -0.311404  -0.537541  0  2.218789  0
O  O90  1  0.55725237  0.94534221  0.41242853  1  0  -0.857801  0  1.840013  0  0  -0.796334  0  2.030452  0  0  -0.819379  0  1.996929  0  0  -0.597494  -0.779983  0  2.053617  0
O  O91  1  0.05724216  0.05464678  0.58756645  1  0  -0.857821  0  1.839967  0  0  -0.796374  0  2.030476  0  0  -0.819408  0  1.996921  0  0  -0.597418  -0.780024  0  2.053639  0
