# generated using pymatgen
data_Zn3H10C16O11
_symmetry_space_group_name_H-M   'P 1'
_cell_length_a   8.22217512
_cell_length_b   10.51070554
_cell_length_c   11.89985042
_cell_angle_alpha   71.93085169
_cell_angle_beta   70.74764661
_cell_angle_gamma   78.16315065
_symmetry_Int_Tables_number   1
_chemical_formula_structural   Zn3H10C16O11
_chemical_formula_sum   'Zn6 H20 C32 O22'
_cell_volume   916.92069426
_cell_formula_units_Z   2
loop_
 _symmetry_equiv_pos_site_id
 _symmetry_equiv_pos_as_xyz
  1  'x, y, z'
loop_
 _atom_site_type_symbol
 _atom_site_label
 _atom_site_symmetry_multiplicity
 _atom_site_fract_x
 _atom_site_fract_y
 _atom_site_fract_z
 _atom_site_occupancy
 _atom_site_hle17_bader_spin_density
 _atom_site_hle17_ddec_charge
 _atom_site_hle17_ddec_spin_density
 _atom_site_hle17_ddec_sum_bond_order
 _atom_site_hle17_magmom
 _atom_site_hse06_10hf_bader_spin_density
 _atom_site_hse06_10hf_ddec_charge
 _atom_site_hse06_10hf_ddec_spin_density
 _atom_site_hse06_10hf_ddec_sum_bond_order
 _atom_site_hse06_10hf_magmom
 _atom_site_hse06_bader_spin_density
 _atom_site_hse06_ddec_charge
 _atom_site_hse06_ddec_spin_density
 _atom_site_hse06_ddec_sum_bond_order
 _atom_site_hse06_magmom
 _atom_site_pbe_bader_spin_density
 _atom_site_pbe_cm5_charge
 _atom_site_pbe_ddec_charge
 _atom_site_pbe_ddec_spin_density
 _atom_site_pbe_ddec_sum_bond_order
 _atom_site_pbe_magmom
Zn  Zn0  1  0.34261881  0.37467861  0.76842796  1  0  1.163666  0  1.772028  0  0  0.993828  0  2.250763  0  0  1.043333  0  2.184803  0  0  0.683435  0.958816  0  2.296536  0
Zn  Zn1  1  0.65737725  0.62532325  0.23157471  1  0  1.163648  0  1.771988  0  0  0.993801  0  2.250725  0  0  1.043305  0  2.184766  0  0  0.683431  0.958793  0  2.296511  0
Zn  Zn2  1  0.95665173  0.34593062  0.55867368  1  0  1.185259  0  1.735181  0  0  1.025493  0  2.187566  0  0  1.075182  0  2.126318  0  0  0.664215  0.990225  0  2.229951  0
Zn  Zn3  1  0.04335148  0.65407445  0.44132145  1  0  1.18524  0  1.735284  0  0  1.025471  0  2.187687  0  0  1.075161  0  2.126433  0  0  0.664206  0.990205  0  2.230083  0
Zn  Zn4  1  0.40829319  0.42547955  0.44461738  1  0  1.217697  0  1.668335  0  0  1.062106  0  2.110369  0  0  1.111219  0  2.047426  0  0  0.649213  1.026952  0  2.15413  0
Zn  Zn5  1  0.59170433  0.57452133  0.55538521  1  0  1.217714  0  1.668285  0  0  1.062132  0  2.110304  0  0  1.111239  0  2.047369  0  0  0.649226  1.026984  0  2.154063  0
H  H6  1  0.82815800  0.43552282  0.96541647  1  0  0.117828  0  0.931898  0  0  0.127533  0  0.990192  0  0  0.131591  0  0.986863  0  0  0.113691  0.124616  0  0.992594  0
H  H7  1  0.17183837  0.56447710  0.03458244  1  0  0.117856  0  0.931888  0  0  0.127607  0  0.990117  0  0  0.131667  0  0.986786  0  0  0.113691  0.124687  0  0.992525  0
H  H8  1  0.44571391  0.17047094  0.19931260  1  0  0.095748  0  0.961627  0  0  0.102803  0  1.027875  0  0  0.105509  0  1.026501  0  0  0.101902  0.100804  0  1.028981  0
H  H9  1  0.55428149  0.82952699  0.80068370  1  0  0.095746  0  0.961562  0  0  0.102816  0  1.027811  0  0  0.105521  0  1.026438  0  0  0.101888  0.100823  0  1.028909  0
H  H10  1  0.56289767  0.01789845  0.06177717  1  0  0.105967  0  0.974574  0  0  0.11164  0  1.043408  0  0  0.114978  0  1.042139  0  0  0.101594  0.109121  0  1.044621  0
H  H11  1  0.43709833  0.98210352  0.93821876  1  0  0.105985  0  0.974582  0  0  0.11166  0  1.043409  0  0  0.115  0  1.042139  0  0  0.101589  0.109147  0  1.044615  0
H  H12  1  0.77705793  0.00983251  0.58643276  1  0  0.11189  0  0.929172  0  0  0.123086  0  0.986124  0  0  0.126846  0  0.983275  0  0  0.110827  0.120369  0  0.988276  0
H  H13  1  0.22293564  0.99016126  0.41357094  1  0  0.11189  0  0.92912  0  0  0.123068  0  0.986104  0  0  0.126829  0  0.983254  0  0  0.110814  0.120347  0  0.988255  0
H  H14  1  0.05400643  0.74235795  0.83467390  1  0  0.102386  0  0.95397  0  0  0.11097  0  1.016783  0  0  0.114138  0  1.014684  0  0  0.105134  0.108701  0  1.018264  0
H  H15  1  0.94599783  0.25764107  0.16532343  1  0  0.102426  0  0.953947  0  0  0.110994  0  1.016776  0  0  0.114136  0  1.014708  0  0  0.105126  0.108726  0  1.018264  0
H  H16  1  0.96624161  0.90425174  0.96432706  1  0  0.092335  0  0.979452  0  0  0.09967  0  1.04627  0  0  0.101769  0  1.046944  0  0  0.097069  0.098153  0  1.045969  0
H  H17  1  0.03377188  0.09575348  0.03566565  1  0  0.092419  0  0.979339  0  0  0.099692  0  1.046225  0  0  0.101789  0  1.046902  0  0  0.097072  0.098174  0  1.045924  0
H  H18  1  0.27517200  0.22493126  0.61597107  1  0  0.423271  0  0.866672  0  0  0.393623  0  0.935044  0  0  0.404674  0  0.918749  0  0  0.297862  0.385794  0  0.946566  0
H  H19  1  0.72482325  0.77506764  0.38402753  1  0  0.423293  0  0.866662  0  0  0.393654  0  0.93501  0  0  0.404705  0  0.918716  0  0  0.297872  0.385823  0  0.946538  0
H  H20  1  0.82737785  0.55012083  0.64633934  1  0  0.414494  0  0.854477  0  0  0.392149  0  0.914917  0  0  0.400347  0  0.907433  0  0  0.298601  0.386112  0  0.920556  0
H  H21  1  0.17261911  0.44988315  0.35365668  1  0  0.414505  0  0.854474  0  0  0.392168  0  0.914901  0  0  0.400362  0  0.907425  0  0  0.298584  0.386131  0  0.920538  0
H  H22  1  0.25968718  0.56536777  0.61056511  1  0  0.432997  0  0.873138  0  0  0.401502  0  0.938414  0  0  0.412492  0  0.922604  0  0  0.283778  0.393666  0  0.94967  0
H  H23  1  0.74031564  0.43463220  0.38943482  1  0  0.432987  0  0.873152  0  0  0.40149  0  0.938431  0  0  0.412481  0  0.922619  0  0  0.283767  0.393661  0  0.949675  0
H  H24  1  0.33391664  0.18858030  0.49121868  1  0  0.44258  0  0.805654  0  0  0.419668  0  0.867376  0  0  0.429249  0  0.856469  0  0  0.318567  0.41277  0  0.875294  0
H  H25  1  0.66608210  0.81142069  0.50877688  1  0  0.442518  0  0.805697  0  0  0.419615  0  0.867428  0  0  0.429193  0  0.856513  0  0  0.318533  0.412724  0  0.875335  0
C  C26  1  0.00785491  0.28703148  0.81407366  1  0  0.692687  0  3.840746  0  0  0.637191  0  4.135164  0  0  0.673395  0  4.125844  0  0  0.229871  0.612311  0  4.141366  0
C  C27  1  0.99213965  0.71297145  0.18592404  1  0  0.692829  0  3.840662  0  0  0.637294  0  4.13518  0  0  0.673494  0  4.125864  0  0  0.229917  0.612416  0  4.141387  0
C  C28  1  0.83457290  0.26021307  0.90572054  1  0  -0.132291  0  3.726762  0  0  -0.115361  0  3.971454  0  0  -0.125678  0  3.993843  0  0  -0.01925  -0.108547  0  3.956349  0
C  C29  1  0.16542576  0.73978880  0.09428405  1  0  -0.132078  0  3.726698  0  0  -0.115234  0  3.971529  0  0  -0.125548  0  3.99392  0  0  -0.019194  -0.108426  0  3.956425  0
C  C30  1  0.76555997  0.34653783  0.98363355  1  0  -0.047793  0  3.692015  0  0  -0.085687  0  3.944109  0  0  -0.082256  0  3.962083  0  0  -0.070651  -0.087698  0  3.931864  0
C  C31  1  0.23444012  0.65346309  0.01636844  1  0  -0.048089  0  3.692202  0  0  -0.085965  0  3.944271  0  0  -0.082536  0  3.962248  0  0  -0.070714  -0.087975  0  3.932024  0
C  C32  1  0.62425659  0.31678493  0.08777991  1  0  -0.070203  0  3.75027  0  0  -0.047692  0  3.987636  0  0  -0.057397  0  4.010481  0  0  -0.017004  -0.041444  0  3.972307  0
C  C33  1  0.37574674  0.68321203  0.91221986  1  0  -0.070101  0  3.750231  0  0  -0.047611  0  3.9876  0  0  -0.057318  0  4.010447  0  0  -0.017005  -0.041362  0  3.972266  0
C  C34  1  0.55217398  0.19703360  0.11578931  1  0  -0.021577  0  3.689872  0  0  -0.04726  0  3.936094  0  0  -0.043892  0  3.954027  0  0  -0.07019  -0.049321  0  3.923981  0
C  C35  1  0.44782661  0.80296433  0.88421084  1  0  -0.021531  0  3.689718  0  0  -0.047248  0  3.935978  0  0  -0.043879  0  3.953908  0  0  -0.070164  -0.049315  0  3.92386  0
C  C36  1  0.61743644  0.11210660  0.03786924  1  0  -0.104266  0  3.696051  0  0  -0.124083  0  3.949584  0  0  -0.12872  0  3.96911  0  0  -0.082669  -0.120968  0  3.93643  0
C  C37  1  0.38256363  0.88789435  0.96213022  1  0  -0.104305  0  3.696066  0  0  -0.124107  0  3.949607  0  0  -0.128743  0  3.96913  0  0  -0.082668  -0.120997  0  3.936445  0
C  C38  1  0.75680880  0.14260139  0.93073865  1  0  0.058923  0  3.732679  0  0  0.063515  0  3.97224  0  0  0.06626  0  3.994854  0  0  0.005342  0.061802  0  3.956731  0
C  C39  1  0.24319548  0.85739759  0.06926120  1  0  0.059018  0  3.732618  0  0  0.063608  0  3.972243  0  0  0.066351  0  3.994858  0  0  0.005428  0.061901  0  3.956721  0
C  C40  1  0.56691627  0.40541528  0.17416006  1  0  0.68103  0  3.880221  0  0  0.629822  0  4.170551  0  0  0.665331  0  4.163158  0  0  0.223085  0.605593  0  4.174906  0
C  C41  1  0.43308033  0.59458354  0.82584497  1  0  0.681008  0  3.88048  0  0  0.629827  0  4.170752  0  0  0.665338  0  4.163351  0  0  0.223061  0.605606  0  4.175099  0
C  C42  1  0.64263530  0.19954857  0.71549010  1  0  0.693485  0  3.859608  0  0  0.635638  0  4.158  0  0  0.671207  0  4.150015  0  0  0.225884  0.611458  0  4.162422  0
C  C43  1  0.35737743  0.80045360  0.28450444  1  0  0.693524  0  3.859219  0  0  0.635692  0  4.157599  0  0  0.671265  0  4.149608  0  0  0.225948  0.611507  0  4.16203  0
C  C44  1  0.76279731  0.07470254  0.74502153  1  0  -0.109528  0  3.745228  0  0  -0.089492  0  3.984264  0  0  -0.097685  0  4.004575  0  0  -0.013738  -0.083931  0  3.970169  0
C  C45  1  0.23720216  0.92529437  0.25497914  1  0  -0.109547  0  3.74519  0  0  -0.089497  0  3.984196  0  0  -0.097692  0  4.004504  0  0  -0.013734  -0.083948  0  3.97011  0
C  C46  1  0.81698324  0.98645327  0.66995240  1  0  -0.056816  0  3.698234  0  0  -0.093907  0  3.951773  0  0  -0.090836  0  3.968715  0  0  -0.075807  -0.095833  0  3.940154  0
C  C47  1  0.18301282  0.01354861  0.33004943  1  0  -0.056729  0  3.698205  0  0  -0.09383  0  3.951747  0  0  -0.090759  0  3.96869  0  0  -0.075745  -0.095753  0  3.940118  0
C  C48  1  0.92194347  0.86616554  0.70238275  1  0  -0.067778  0  3.767384  0  0  -0.046231  0  4.006426  0  0  -0.055225  0  4.02891  0  0  -0.017804  -0.040324  0  3.991328  0
C  C49  1  0.07805143  0.13382818  0.29762570  1  0  -0.067816  0  3.76759  0  0  -0.046222  0  4.00659  0  0  -0.055214  0  4.029068  0  0  -0.017826  -0.0403  0  3.991476  0
C  C50  1  0.97418340  0.83682602  0.80925179  1  0  -0.040358  0  3.707679  0  0  -0.066693  0  3.954852  0  0  -0.064204  0  3.973097  0  0  -0.076413  -0.068192  0  3.942618  0
C  C51  1  0.02582181  0.16317502  0.19074563  1  0  -0.040494  0  3.707736  0  0  -0.066834  0  3.954906  0  0  -0.064325  0  3.973162  0  0  -0.076405  -0.068342  0  3.942685  0
C  C52  1  0.92393474  0.92732917  0.88200958  1  0  -0.094948  0  3.714158  0  0  -0.113509  0  3.965555  0  0  -0.117236  0  3.985791  0  0  -0.083026  -0.111302  0  3.952071  0
C  C53  1  0.07607304  0.07267189  0.11798808  1  0  -0.094906  0  3.714138  0  0  -0.113411  0  3.965511  0  0  -0.117136  0  3.98574  0  0  -0.083  -0.111204  0  3.952028  0
C  C54  1  0.81782120  0.04722004  0.85123213  1  0  0.05541  0  3.745613  0  0  0.059652  0  3.982933  0  0  0.061734  0  4.005123  0  0  0.004198  0.058506  0  3.967772  0
C  C55  1  0.18218822  0.95277902  0.14876651  1  0  0.055229  0  3.745715  0  0  0.05948  0  3.983016  0  0  0.061563  0  4.005204  0  0  0.004068  0.058343  0  3.967843  0
C  C56  1  0.97743031  0.76991997  0.62384297  1  0  0.643919  0  3.909114  0  0  0.595026  0  4.198177  0  0  0.629057  0  4.191799  0  0  0.203695  0.571905  0  4.2018  0
C  C57  1  0.02256549  0.23007585  0.37616052  1  0  0.644037  0  3.909351  0  0  0.595118  0  4.198431  0  0  0.629151  0  4.192053  0  0  0.203772  0.571989  0  4.202057  0
O  O58  1  0.10614295  0.32853088  0.85499587  1  0  -0.606544  0  2.067916  0  0  -0.530818  0  2.33431  0  0  -0.559486  0  2.317577  0  0  -0.297852  -0.510919  0  2.345367  0
O  O59  1  0.89385737  0.67147614  0.14500109  1  0  -0.60659  0  2.068093  0  0  -0.530835  0  2.334502  0  0  -0.559502  0  2.317771  0  0  -0.297811  -0.510934  0  2.345561  0
O  O60  1  0.05448261  0.26471422  0.70729641  1  0  -0.68162  0  2.106518  0  0  -0.605063  0  2.366951  0  0  -0.633476  0  2.35022  0  0  -0.313858  -0.585336  0  2.378419  0
O  O61  1  0.94551010  0.73528459  0.29270616  1  0  -0.681719  0  2.106338  0  0  -0.605178  0  2.366855  0  0  -0.633592  0  2.350125  0  0  -0.313936  -0.585448  0  2.378326  0
O  O62  1  0.62519784  0.52009845  0.13210934  1  0  -0.644637  0  2.061222  0  0  -0.574291  0  2.332524  0  0  -0.603339  0  2.315857  0  0  -0.318596  -0.553943  0  2.343522  0
O  O63  1  0.37479636  0.47989933  0.86789653  1  0  -0.644619  0  2.061349  0  0  -0.574277  0  2.332639  0  0  -0.603326  0  2.31597  0  0  -0.318564  -0.553935  0  2.343633  0
O  O64  1  0.47034257  0.36003031  0.28254763  1  0  -0.665922  0  2.031223  0  0  -0.599127  0  2.283578  0  0  -0.627229  0  2.269059  0  0  -0.319928  -0.579331  0  2.293024  0
O  O65  1  0.52965327  0.63996544  0.71746006  1  0  -0.665982  0  2.031343  0  0  -0.599187  0  2.283666  0  0  -0.627287  0  2.269139  0  0  -0.319947  -0.579394  0  2.293108  0
O  O66  1  0.69828766  0.30006803  0.62799344  1  0  -0.658709  0  2.086201  0  0  -0.590063  0  2.360662  0  0  -0.618989  0  2.344978  0  0  -0.302265  -0.569682  0  2.370766  0
O  O67  1  0.30171563  0.69992899  0.37200212  1  0  -0.658828  0  2.085931  0  0  -0.590143  0  2.360315  0  0  -0.61907  0  2.344625  0  0  -0.302352  -0.569758  0  2.37043  0
O  O68  1  0.48596043  0.19915501  0.78414917  1  0  -0.619818  0  2.039952  0  0  -0.544133  0  2.30223  0  0  -0.573861  0  2.287757  0  0  -0.301779  -0.523306  0  2.311788  0
O  O69  1  0.51404895  0.80085205  0.21585241  1  0  -0.61978  0  2.039939  0  0  -0.544084  0  2.302169  0  0  -0.573811  0  2.287695  0  0  -0.301743  -0.523247  0  2.311724  0
O  O70  1  0.92865733  0.80402628  0.52470914  1  0  -0.668555  0  2.045166  0  0  -0.598904  0  2.301329  0  0  -0.62931  0  2.28959  0  0  -0.323471  -0.577501  0  2.308553  0
O  O71  1  0.07134028  0.19596654  0.47529473  1  0  -0.668622  0  2.04504  0  0  -0.598984  0  2.301249  0  0  -0.629376  0  2.289477  0  0  -0.323528  -0.577574  0  2.308464  0
O  O72  1  0.06765811  0.65918403  0.65547849  1  0  -0.641237  0  1.955222  0  0  -0.582596  0  2.176465  0  0  -0.606993  0  2.165025  0  0  -0.322171  -0.565629  0  2.184068  0
O  O73  1  0.93234081  0.34080877  0.34452760  1  0  -0.641233  0  1.955491  0  0  -0.582581  0  2.176736  0  0  -0.606979  0  2.165291  0  0  -0.322181  -0.565622  0  2.184347  0
O  O74  1  0.36312193  0.49653355  0.60121787  1  0  -1.00994  0  1.946063  0  0  -0.900238  0  2.25609  0  0  -0.936542  0  2.213225  0  0  -0.5632  -0.874509  0  2.285375  0
O  O75  1  0.63687944  0.50346741  0.39878214  1  0  -1.009915  0  1.946006  0  0  -0.900206  0  2.25603  0  0  -0.936511  0  2.213167  0  0  -0.563182  -0.874486  0  2.285318  0
O  O76  1  0.83936416  0.53382080  0.56744099  1  0  -0.990365  0  1.963354  0  0  -0.890114  0  2.259145  0  0  -0.925295  0  2.226579  0  0  -0.566083  -0.865132  0  2.281483  0
O  O77  1  0.16063006  0.46618414  0.43255625  1  0  -0.990355  0  1.963418  0  0  -0.890116  0  2.259202  0  0  -0.925295  0  2.226655  0  0  -0.566024  -0.865128  0  2.281529  0
O  O78  1  0.37781839  0.22166838  0.54306173  1  0  -0.798681  0  1.850115  0  0  -0.739661  0  2.044345  0  0  -0.760677  0  2.012655  0  0  -0.56225  -0.724847  0  2.066565  0
O  O79  1  0.62217908  0.77833258  0.45693497  1  0  -0.798618  0  1.850094  0  0  -0.739632  0  2.044316  0  0  -0.760638  0  2.012627  0  0  -0.562226  -0.724819  0  2.066549  0
