# generated using pymatgen
data_CuH24C26S2(N3O2)2
_symmetry_space_group_name_H-M   'P 1'
_cell_length_a   7.09848555
_cell_length_b   9.24229655
_cell_length_c   10.57630685
_cell_angle_alpha   94.44844399
_cell_angle_beta   96.61260522
_cell_angle_gamma   108.56940693
_symmetry_Int_Tables_number   1
_chemical_formula_structural   CuH24C26S2(N3O2)2
_chemical_formula_sum   'Cu1 H24 C26 S2 N6 O4'
_cell_volume   648.54702900
_cell_formula_units_Z   1
loop_
 _symmetry_equiv_pos_site_id
 _symmetry_equiv_pos_as_xyz
  1  'x, y, z'
loop_
 _atom_site_type_symbol
 _atom_site_label
 _atom_site_symmetry_multiplicity
 _atom_site_fract_x
 _atom_site_fract_y
 _atom_site_fract_z
 _atom_site_occupancy
 _atom_site_hle17_ddec_charge
 _atom_site_hle17_ddec_spin_density
 _atom_site_hle17_ddec_sum_bond_order
 _atom_site_hle17_magmom
 _atom_site_hse06_10hf_ddec_charge
 _atom_site_hse06_10hf_ddec_spin_density
 _atom_site_hse06_10hf_ddec_sum_bond_order
 _atom_site_hse06_10hf_magmom
 _atom_site_hse06_ddec_charge
 _atom_site_hse06_ddec_spin_density
 _atom_site_hse06_ddec_sum_bond_order
 _atom_site_hse06_magmom
 _atom_site_pbe_cm5_charge
 _atom_site_pbe_ddec_charge
 _atom_site_pbe_ddec_spin_density
 _atom_site_pbe_ddec_sum_bond_order
 _atom_site_pbe_magmom
Cu  Cu0  1  0.00000041  0.99999770  0.00000084  1  0.934713  -0.722323  1.894933  -0.539  0.901849  -0.787621  2.301344  -0.637  0.976527  -0.848196  2.241842  -0.713  0.825545  0.855145  -0.745193  2.344332  -0.586
H  H1  1  0.06617279  0.98341713  0.28202230  1  0.083388  -0.001385  0.938526  -0.002  0.091419  -0.001125  1.000796  -0.001  0.092327  -0.000756  0.999655  -0.001  0.11898  0.090557  -0.001415  1.00183  -0.002
H  H2  1  0.93382291  0.01658244  0.71798084  1  0.083381  -0.001383  0.938471  -0.002  0.091381  -0.001125  1.000775  -0.001  0.092288  -0.000756  0.999636  -0.001  0.118983  0.09052  -0.001415  1.001806  -0.002
H  H3  1  0.99823522  0.77772349  0.42926744  1  0.119844  -0.000848  0.963276  -0.001  0.129076  -0.000637  1.021846  -0.001  0.131751  -0.000433  1.021233  -0.001  0.109595  0.126981  -0.000807  1.022753  -0.001
H  H4  1  0.00175673  0.22227724  0.57073547  1  0.119891  -0.000847  0.963233  -0.001  0.129112  -0.000637  1.0218  -0.001  0.131785  -0.000433  1.021191  -0.001  0.109602  0.127019  -0.000807  1.022713  -0.001
H  H5  1  0.85921983  0.50114081  0.33164402  1  0.101236  -0.000396  0.946485  -0.001  0.108894  1.2e-05  1.010051  0.0  0.111263  7.6e-05  1.008175  0.0  0.110486  0.107056  -8.3e-05  1.011561  0.0
H  H6  1  0.14076880  0.49885877  0.66835760  1  0.101221  -0.000397  0.946487  -0.001  0.108881  1.2e-05  1.01005  0.0  0.11125  7.7e-05  1.008174  0.0  0.110481  0.107044  -8.3e-05  1.011558  0.0
H  H7  1  0.80455340  0.44178251  0.09313369  1  0.106856  -0.000816  0.960727  -0.001  0.113347  -0.000657  1.025261  -0.001  0.115644  -0.000459  1.025493  0.0  0.105435  0.111546  -0.000808  1.025587  -0.001
H  H8  1  0.19544614  0.55821934  0.90686895  1  0.106841  -0.000809  0.960678  -0.001  0.113324  -0.000657  1.025237  -0.001  0.115622  -0.000459  1.025464  0.0  0.105432  0.111527  -0.000808  1.025556  -0.001
H  H9  1  0.87965607  0.66223363  0.95941001  1  0.083663  -0.001453  0.952048  -0.002  0.089542  -0.001133  1.019261  -0.001  0.090761  -0.000772  1.017665  -0.001  0.116569  0.088538  -0.001429  1.020556  -0.002
H  H10  1  0.12035055  0.33776819  0.04059320  1  0.083646  -0.001452  0.952065  -0.002  0.089527  -0.001134  1.019282  -0.001  0.090747  -0.000772  1.017686  -0.001  0.116572  0.088522  -0.001429  1.020577  -0.002
H  H11  1  0.51407377  0.87449610  0.08060466  1  0.106995  0.000105  0.95542  0.0  0.115785  6e-05  1.018923  0.0  0.118052  6.1e-05  1.017912  0.0  0.104351  0.114016  6.6e-05  1.020166  0.0
H  H12  1  0.48592155  0.12550573  0.91939291  1  0.106983  0.000105  0.955488  0.0  0.115767  6e-05  1.018986  0.0  0.118034  6.1e-05  1.017973  0.0  0.10434  0.113988  6.6e-05  1.020249  0.0
H  H13  1  0.34071284  0.60766581  0.12296923  1  0.087061  -4e-06  0.9621  0.0  0.101083  -2e-06  1.019997  0.0  0.103614  -4e-06  1.019743  0.0  0.097895  0.09935  -7e-06  1.020287  0.0
H  H14  1  0.65928056  0.39233487  0.87702717  1  0.087066  -7e-06  0.962132  0.0  0.101046  -2e-06  1.020067  0.0  0.103578  -4e-06  1.019812  0.0  0.097876  0.099312  -7e-06  1.020358  0.0
H  H15  1  0.51734340  0.74592612  0.52888996  1  0.097617  3.8e-05  0.985517  0.0  0.104284  4.4e-05  1.052096  0.0  0.10743  4e-05  1.051102  0.0  0.097213  0.102111  4.5e-05  1.052935  0.0
H  H16  1  0.48266650  0.25407334  0.47110676  1  0.097629  4.2e-05  0.985521  0.0  0.104281  4.4e-05  1.052107  0.0  0.107428  3.9e-05  1.051113  0.0  0.097181  0.102106  4.5e-05  1.052951  0.0
H  H17  1  0.69845736  0.01152503  0.48691513  1  0.097193  1.7e-05  0.961885  0.0  0.108332  -1.5e-05  1.023087  0.0  0.110859  -1.2e-05  1.022235  0.0  0.104685  0.106565  -1e-05  1.023749  0.0
H  H18  1  0.30155478  0.98846982  0.51308148  1  0.097145  9e-06  0.961932  0.0  0.108277  -1.4e-05  1.023149  0.0  0.110808  -1.2e-05  1.022293  0.0  0.104658  0.106498  -1e-05  1.023821  0.0
H  H19  1  0.25960057  0.49249537  0.44623730  1  0.117593  -1.2e-05  0.93508  0.0  0.142984  -2e-06  0.987835  0.0  0.144647  1e-06  0.987344  0.0  0.095367  0.142263  -2e-06  0.987773  0.0
H  H20  1  0.74039798  0.50750416  0.55376323  1  0.117582  -9e-06  0.935077  0.0  0.142977  -1e-06  0.987831  0.0  0.144639  1e-06  0.98734  0.0  0.095377  0.142255  -2e-06  0.987768  0.0
H  H21  1  0.42203315  0.43085204  0.35647592  1  0.114591  1e-06  0.965038  0.0  0.136078  2.5e-05  1.028531  0.0  0.137086  2.8e-05  1.028874  0.0  0.091601  0.134649  1.8e-05  1.029448  0.0
H  H22  1  0.57796440  0.56914519  0.64352344  1  0.114548  -6e-06  0.965103  0.0  0.136049  2.5e-05  1.028591  0.0  0.137057  2.8e-05  1.028933  0.0  0.091578  0.134614  1.8e-05  1.029507  0.0
H  H23  1  0.18910280  0.43360671  0.27930717  1  0.111327  1.7e-05  0.961627  0.0  0.129934  -1.9e-05  1.028288  0.0  0.131555  -4e-06  1.027939  0.0  0.087925  0.128877  -2e-05  1.028218  0.0
H  H24  1  0.81089292  0.56639283  0.72069219  1  0.11125  9e-06  0.961714  0.0  0.129907  -2e-05  1.028323  0.0  0.131527  -4e-06  1.027975  0.0  0.087916  0.128836  -2e-05  1.028265  0.0
C  C25  1  0.00764815  0.86183666  0.24469999  1  0.123257  0.012839  3.697286  0.008  0.09444  0.002839  3.955739  0.002  0.102854  0.004875  3.977936  0.003  0.049508  0.089311  0.001378  3.940299  0.0
C  C26  1  0.99235089  0.13816403  0.75530160  1  0.123308  0.012838  3.697204  0.008  0.094514  0.002838  3.955681  0.002  0.102929  0.004874  3.977879  0.003  0.049511  0.089388  0.001378  3.940239  0.0
C  C27  1  0.96920637  0.74728604  0.32562386  1  -0.114366  -0.01194  3.70678  -0.013  -0.125463  -0.004549  3.953734  -0.005  -0.134117  -0.004032  3.97723  -0.005  -0.077036  -0.119834  -0.005123  3.938053  -0.006
C  C28  1  0.03078742  0.25271237  0.67437811  1  -0.114497  -0.011939  3.706862  -0.013  -0.125575  -0.004549  3.953821  -0.005  -0.134228  -0.004031  3.977312  -0.005  -0.077057  -0.119957  -0.005123  3.938154  -0.006
C  C29  1  0.89294906  0.59408264  0.27159059  1  0.017835  0.016292  3.688964  0.01  -0.002591  0.005458  3.93913  0.003  0.001566  0.006128  3.95822  0.003  -0.057215  -0.004959  0.00509  3.925677  0.003
C  C30  1  0.10704382  0.40591692  0.72840948  1  0.017897  0.01629  3.688936  0.01  -0.002532  0.00546  3.93911  0.003  0.001629  0.006126  3.958195  0.003  -0.057196  -0.004899  0.00509  3.925655  0.003
C  C31  1  0.86149135  0.56051331  0.13836780  1  -0.130376  -0.011696  3.732466  -0.013  -0.142391  -0.004232  3.985082  -0.005  -0.151033  -0.003764  4.00822  -0.005  -0.084392  -0.136525  -0.004801  3.96899  -0.006
C  C32  1  0.13850861  0.43948622  0.86163284  1  -0.130395  -0.011701  3.732452  -0.013  -0.142408  -0.004233  3.985088  -0.005  -0.151049  -0.003764  4.008228  -0.005  -0.084409  -0.136541  -0.004801  3.968991  -0.006
C  C33  1  0.90307877  0.68116722  0.06374836  1  0.12085  0.01268  3.700169  0.008  0.093602  0.002793  3.954239  0.002  0.102365  0.004833  3.975137  0.003  0.045772  0.088259  0.001345  3.93977  0.0
C  C34  1  0.09692545  0.31883229  0.93625263  1  0.12084  0.012674  3.700242  0.008  0.093584  0.002794  3.954339  0.002  0.102345  0.004832  3.97524  0.003  0.045784  0.088237  0.001345  3.939873  0.0
C  C35  1  0.61681684  0.95781847  0.28170473  1  -0.156677  -4.1e-05  3.811303  0.0  -0.132029  0.000106  4.061911  0.0  -0.141953  0.000173  4.087355  0.0  -0.031181  -0.125446  1.6e-05  4.044898  0.0
C  C36  1  0.38318931  0.04218215  0.71829175  1  -0.1565  -3.4e-05  3.811188  0.0  -0.131905  9.4e-05  4.061864  0.0  -0.141825  0.000184  4.087311  0.0  -0.031123  -0.125316  1.6e-05  4.044843  0.0
C  C37  1  0.51530692  0.84551171  0.17843243  1  -0.04797  0.000125  3.745451  0.0  -0.0751  0.000182  3.999  0.0  -0.072782  0.000206  4.019504  0.0  -0.086273  -0.076205  0.000161  3.985582  0.0
C  C38  1  0.48469406  0.15449012  0.82156748  1  -0.04813  9.5e-05  3.745607  0.0  -0.07524  0.000181  3.999175  0.0  -0.072926  0.000202  4.019682  0.0  -0.086318  -0.07635  0.000161  3.985755  0.0
C  C39  1  0.41864504  0.69616382  0.20305035  1  -0.125595  0.0001  3.714165  0.0  -0.142209  5.6e-05  3.956619  0.0  -0.146935  5.8e-05  3.977768  0.0  -0.091989  -0.138973  3.3e-05  3.942075  0.0
C  C40  1  0.58135219  0.30383917  0.79694934  1  -0.1255  0.000138  3.71428  0.0  -0.142076  5.1e-05  3.956709  0.0  -0.146802  6.3e-05  3.97786  0.0  -0.091944  -0.138848  3.3e-05  3.942152  0.0
C  C41  1  0.41842603  0.65720872  0.32864799  1  0.161843  -0.000406  3.747323  0.0  0.187746  -2e-06  3.979811  0.0  0.1912  2.2e-05  4.003213  0.0  -0.000402  0.184738  -1.6e-05  3.96404  0.0
C  C42  1  0.58157779  0.34279308  0.67135027  1  0.161723  -0.000425  3.747443  0.0  0.187628  4e-06  3.979938  0.0  0.19108  1.7e-05  4.003344  0.0  -0.000481  0.184658  -1.6e-05  3.964112  0.0
C  C43  1  0.51947315  0.77280047  0.43036618  1  -0.127132  0.000107  3.707399  0.0  -0.144035  8e-06  3.951882  0.0  -0.149314  3e-06  3.972746  0.0  -0.091681  -0.140046  8e-06  3.937728  0.0
C  C44  1  0.48053482  0.22719787  0.56963314  1  -0.127149  0.000131  3.707474  0.0  -0.144026  3e-06  3.951935  0.0  -0.149306  9e-06  3.972805  0.0  -0.09164  -0.140049  8e-06  3.937771  0.0
C  C45  1  0.61956927  0.92228965  0.40776793  1  -0.063387  -0.000303  3.783  0.0  -0.087222  -4.6e-05  4.031456  0.0  -0.085178  -3.5e-05  4.051649  0.0  -0.087608  -0.088555  -6.7e-05  4.017445  0.0
C  C46  1  0.38044296  0.07770866  0.59222985  1  -0.063372  -0.000316  3.783121  0.0  -0.087201  -4.7e-05  4.031616  0.0  -0.085152  -3.8e-05  4.051795  0.0  -0.087606  -0.088528  -6.7e-05  4.017612  0.0
C  C47  1  0.31607642  0.49562907  0.35387419  1  -0.341946  0.000138  3.714639  0.0  -0.424673  6.8e-05  3.948195  0.0  -0.427067  7e-05  3.956853  0.0  -0.241692  -0.421595  3.5e-05  3.941892  0.0
C  C48  1  0.68392214  0.50437045  0.64612539  1  -0.341764  0.000158  3.714802  0.0  -0.424551  6.9e-05  3.948335  0.0  -0.426943  7.1e-05  3.956995  0.0  -0.241635  -0.421467  3.5e-05  3.942032  0.0
C  C49  1  0.59968597  0.82802271  0.82493751  1  0.537487  0.007424  3.998697  -0.001  0.514059  -0.000734  4.274888  -0.007  0.544855  0.001312  4.281518  -0.005  0.307216  0.492725  -0.002317  4.271556  -0.009
C  C50  1  0.40031440  0.17197453  0.17506397  1  0.537472  0.007428  3.998669  -0.001  0.514051  -0.000733  4.274858  -0.007  0.544844  0.001317  4.281488  -0.005  0.307212  0.492715  -0.002316  4.271517  -0.009
S  S51  1  0.26440001  0.85052353  0.74659529  1  1.218896  0.001369  5.468824  0.001  1.137084  0.000607  5.980016  0.0  1.181587  0.00074  5.962943  0.0  0.556704  1.105943  0.000448  5.991726  0.0
S  S52  1  0.73560711  0.14947945  0.25340898  1  1.218833  0.001368  5.469015  0.001  1.13699  0.000604  5.980205  0.0  1.181495  0.00074  5.96313  0.0  0.556638  1.105852  0.000448  5.991917  0.0
N  N53  1  0.97303740  0.82908687  0.11631748  1  -0.290424  -0.103266  3.320852  -0.134  -0.247072  -0.066926  3.613509  -0.093  -0.280686  -0.053141  3.641249  -0.079  -0.334538  -0.225275  -0.075803  3.595271  -0.101
N  N54  1  0.02696489  0.17091151  0.88368422  1  -0.290348  -0.103265  3.320725  -0.134  -0.246998  -0.066921  3.61338  -0.093  -0.280611  -0.053138  3.641124  -0.079  -0.334528  -0.225208  -0.0758  3.595142  -0.101
N  N55  1  0.75450688  0.87502603  0.89415258  1  -0.621363  -0.056863  3.022103  -0.071  -0.599193  -0.040802  3.342173  -0.052  -0.628375  -0.034653  3.34016  -0.047  -0.429465  -0.580575  -0.0447  3.344866  -0.055
N  N56  1  0.24549438  0.12497009  0.10585363  1  -0.621301  -0.056854  3.022039  -0.071  -0.599138  -0.040792  3.34211  -0.052  -0.628318  -0.03466  3.340101  -0.047  -0.42943  -0.580514  -0.0447  3.344793  -0.055
N  N57  1  0.43662753  0.76826714  0.74504770  1  -0.613542  -0.00143  3.040029  -0.003  -0.562329  0.001374  3.314837  0.0  -0.586468  0.002059  3.313987  0.001  -0.358762  -0.546  0.000591  3.317367  -0.001
N  N58  1  0.56337678  0.23173582  0.25495256  1  -0.613533  -0.001458  3.039979  -0.003  -0.562323  0.001345  3.314793  0.0  -0.586463  0.002072  3.313943  0.001  -0.358765  -0.545992  0.000593  3.317321  -0.001
O  O59  1  0.20234127  0.85439277  0.87331024  1  -0.641855  0.001715  1.977755  0.0  -0.608365  0.001492  2.25214  0.0  -0.62901  0.001713  2.237516  0.0  -0.324125  -0.59442  0.001361  2.262844  0.0
O  O60  1  0.79766406  0.14561247  0.12668741  1  -0.641841  0.001706  1.977677  0.0  -0.608354  0.001491  2.252074  0.0  -0.629001  0.001714  2.23745  0.0  -0.32407  -0.594403  0.001361  2.262764  0.0
O  O61  1  0.88834591  0.22747927  0.36183421  1  -0.600258  -0.000935  1.94238  -0.001  -0.555893  -0.000417  2.182894  -0.001  -0.574717  -0.000245  2.17121  0.0  -0.315715  -0.542596  -0.000593  2.191058  -0.001
O  O62  1  0.11165328  0.77252481  0.63815813  1  -0.600285  -0.000936  1.942107  -0.001  -0.555938  -0.000416  2.182623  -0.001  -0.574769  -0.000245  2.170948  0.0  -0.315708  -0.542643  -0.000594  2.190783  -0.001
