# generated using pymatgen
data_CuMoH10C15N3O4
_symmetry_space_group_name_H-M   'P 1'
_cell_length_a   8.29228250
_cell_length_b   9.53397497
_cell_length_c   10.48159209
_cell_angle_alpha   63.36839088
_cell_angle_beta   72.53059555
_cell_angle_gamma   68.82976231
_symmetry_Int_Tables_number   1
_chemical_formula_structural   CuMoH10C15N3O4
_chemical_formula_sum   'Cu2 Mo2 H20 C30 N6 O8'
_cell_volume   681.17629588
_cell_formula_units_Z   2
loop_
 _symmetry_equiv_pos_site_id
 _symmetry_equiv_pos_as_xyz
  1  'x, y, z'
loop_
 _atom_site_type_symbol
 _atom_site_label
 _atom_site_symmetry_multiplicity
 _atom_site_fract_x
 _atom_site_fract_y
 _atom_site_fract_z
 _atom_site_occupancy
 _atom_site_hle17_ddec_charge
 _atom_site_hle17_ddec_spin_density
 _atom_site_hle17_ddec_sum_bond_order
 _atom_site_hle17_magmom
 _atom_site_hse06_10hf_ddec_charge
 _atom_site_hse06_10hf_ddec_spin_density
 _atom_site_hse06_10hf_ddec_sum_bond_order
 _atom_site_hse06_10hf_magmom
 _atom_site_hse06_ddec_charge
 _atom_site_hse06_ddec_spin_density
 _atom_site_hse06_ddec_sum_bond_order
 _atom_site_hse06_magmom
 _atom_site_pbe_cm5_charge
 _atom_site_pbe_ddec_charge
 _atom_site_pbe_ddec_spin_density
 _atom_site_pbe_ddec_sum_bond_order
 _atom_site_pbe_magmom
Cu  Cu0  1  0.88769121  0.14299576  0.67563829  1  0.870952  0.753258  2.021612  0.521  0.851624  0.818588  2.43649  0.624  0.930876  0.894471  2.367658  0.708  0.774273  0.806508  0.761929  2.482981  0.567
Cu  Cu1  1  0.11230812  0.85700137  0.32436484  1  0.870881  -0.753256  2.021698  -0.521  0.851494  -0.818587  2.436698  -0.624  0.930807  -0.894466  2.367754  -0.708  0.774257  0.80644  -0.761929  2.48308  -0.567
Mo  Mo2  1  0.05974753  0.24917223  0.30014783  1  2.077416  0.004402  4.351671  0.004  2.06774  -0.007762  4.960711  -0.011  2.174859  -0.006177  4.917837  -0.009  1.426644  1.99594  -0.008985  4.986727  -0.012
Mo  Mo3  1  0.94025156  0.75082125  0.69985397  1  2.077456  -0.004404  4.351607  -0.004  2.067793  0.007763  4.960637  0.011  2.174912  0.006174  4.917761  0.009  1.426687  1.996001  0.008985  4.986656  0.012
H  H4  1  0.72051785  0.08333515  0.48474749  1  0.089352  0.001434  0.961976  0.002  0.093049  0.001168  1.034542  0.002  0.095559  0.000798  1.031253  0.001  0.118796  0.090852  0.001487  1.037221  0.002
H  H5  1  0.27948618  0.91666319  0.51525019  1  0.089342  -0.001433  0.962025  -0.002  0.093046  -0.001168  1.03458  -0.002  0.095552  -0.000799  1.031291  -0.001  0.118819  0.090842  -0.001487  1.037261  -0.002
H  H6  1  0.42352858  0.20228847  0.40175539  1  0.116283  0.000548  0.968915  0.001  0.123684  0.000437  1.032114  0.001  0.127154  0.000302  1.031204  0.0  0.105455  0.121422  0.00055  1.032236  0.001
H  H7  1  0.57647474  0.79771230  0.59823956  1  0.116245  -0.00055  0.969  -0.001  0.123624  -0.000437  1.032214  -0.001  0.127094  -0.000303  1.031303  0.0  0.105457  0.121367  -0.00055  1.032336  -0.001
H  H8  1  0.19154058  0.39666217  0.50285925  1  0.123638  0.000244  0.932278  0.0  0.134896  3e-06  0.987336  0.0  0.138075  -6e-06  0.984718  0.0  0.112101  0.132417  3.3e-05  0.989241  0.0
H  H9  1  0.80846273  0.60333861  0.49713475  1  0.123629  -0.000243  0.932304  0.0  0.134931  -3e-06  0.987296  0.0  0.138109  6e-06  0.984679  0.0  0.112146  0.132456  -3.3e-05  0.989205  0.0
H  H10  1  0.25909647  0.47278609  0.67785101  1  0.121823  0.000879  0.986051  0.001  0.12518  0.00067  1.055646  0.001  0.128298  0.000455  1.05482  0.001  0.10692  0.122949  0.000855  1.056282  0.001
H  H11  1  0.74090374  0.52721226  0.32214472  1  0.121841  -0.00088  0.985937  -0.001  0.125176  -0.00067  1.05556  -0.001  0.128293  -0.000455  1.054733  -0.001  0.106924  0.122944  -0.000855  1.056194  -0.001
H  H12  1  0.33576250  0.48561150  0.85624596  1  0.142579  0.000668  0.977431  0.001  0.152114  0.000591  1.033935  0.001  0.156462  0.00041  1.031284  0.001  0.114694  0.149056  0.000713  1.036035  0.001
H  H13  1  0.66423810  0.51438563  0.14375686  1  0.142617  -0.000668  0.977395  -0.001  0.152141  -0.000591  1.033898  -0.001  0.156489  -0.000411  1.031248  -0.001  0.11471  0.149083  -0.000713  1.036004  -0.001
H  H14  1  0.80215298  0.40124133  0.01993562  1  0.139695  0.000659  0.9704  0.001  0.147895  0.000575  1.030549  0.001  0.152028  0.000403  1.027895  0.001  0.117301  0.145041  0.000703  1.031638  0.001
H  H15  1  0.19784567  0.59875823  0.98006667  1  0.139663  -0.000659  0.970425  -0.001  0.147868  -0.000575  1.030584  -0.001  0.151994  -0.000403  1.027939  -0.001  0.117278  0.145013  -0.000703  1.03167  -0.001
H  H16  1  0.08236142  0.28571212  0.00057696  1  0.126718  0.000917  0.966229  0.001  0.130567  0.000755  1.034564  0.001  0.13386  0.000519  1.032884  0.001  0.11349  0.127956  0.000937  1.036103  0.001
H  H17  1  0.91763709  0.71429231  0.99942148  1  0.12673  -0.000917  0.966113  -0.001  0.13054  -0.000755  1.034492  -0.001  0.133831  -0.000519  1.032809  -0.001  0.113479  0.127929  -0.000938  1.036029  -0.001
H  H18  1  0.37739458  0.09042229  0.00954163  1  0.092817  0.000213  0.970837  0.0  0.103814  -1e-06  1.03479  0.0  0.105954  -2e-06  1.033561  0.0  0.107955  0.102213  1.1e-05  1.036062  0.0
H  H19  1  0.62260304  0.90958092  0.99046134  1  0.092732  -0.000214  0.970953  0.0  0.103815  2e-06  1.034805  0.0  0.105953  2e-06  1.033587  0.0  0.107933  0.10222  -1.1e-05  1.036072  0.0
H  H20  1  0.47438824  0.90726457  0.86477379  1  0.126935  0.000581  0.974281  0.001  0.135646  0.000541  1.035415  0.001  0.139487  0.000364  1.033507  0.0  0.10486  0.132924  0.000676  1.03688  0.001
H  H21  1  0.52561008  0.09273620  0.13523096  1  0.12693  -0.00058  0.974286  -0.001  0.135668  -0.000541  1.035383  -0.001  0.139506  -0.000364  1.033478  0.0  0.104863  0.132946  -0.000676  1.036852  -0.001
H  H22  1  0.25812571  0.92850505  0.73078258  1  0.093678  0.001518  0.929892  0.003  0.105447  0.001237  0.986475  0.002  0.106922  0.000855  0.985214  0.001  0.124022  0.104712  0.001569  0.986538  0.002
H  H23  1  0.74187547  0.07149451  0.26922007  1  0.093679  -0.001519  0.929865  -0.003  0.105451  -0.001237  0.986444  -0.002  0.106922  -0.000855  0.985184  -0.001  0.124033  0.104722  -0.001569  0.9865  -0.002
C  C24  1  0.61304518  0.16919584  0.52426132  1  0.130039  -0.007076  3.685591  -0.008  0.099829  -0.001202  3.948144  -0.002  0.108926  -0.002164  3.966778  -0.003  0.051972  0.093225  -0.000397  3.936529  -0.002
C  C25  1  0.38695815  0.83080494  0.47573458  1  0.129978  0.007051  3.685555  0.008  0.099779  0.001202  3.948097  0.002  0.10888  0.002166  3.966731  0.003  0.051952  0.093186  0.000397  3.936481  0.002
C  C26  1  0.44997683  0.23512062  0.47943418  1  -0.114066  0.008379  3.678096  0.009  -0.12352  0.003641  3.92481  0.004  -0.131287  0.003074  3.946113  0.004  -0.077139  -0.119017  0.004225  3.910722  0.005
C  C27  1  0.55002903  0.76488015  0.52056016  1  -0.113997  -0.008346  3.67808  -0.009  -0.123439  -0.00364  3.924802  -0.004  -0.131205  -0.003077  3.946102  -0.004  -0.07719  -0.118944  -0.004224  3.910726  -0.005
C  C28  1  0.32067991  0.34562444  0.53475252  1  0.016997  -0.00718  3.655155  -0.007  -0.005082  -0.002357  3.905625  -0.002  -0.00071  -0.002477  3.922197  -0.002  -0.061933  -0.007854  -0.002317  3.895807  -0.002
C  C29  1  0.67932561  0.65437755  0.46524236  1  0.01698  0.007149  3.655076  0.007  -0.005127  0.002356  3.905527  0.002  -0.000754  0.00248  3.922096  0.002  -0.06193  -0.007899  0.002317  3.895713  0.002
C  C30  1  0.35784169  0.38768577  0.63209499  1  -0.127727  0.004914  3.670977  0.005  -0.143889  0.002041  3.914004  0.002  -0.150506  0.00182  3.935358  0.002  -0.076557  -0.140376  0.002339  3.900443  0.002
C  C31  1  0.64215911  0.61231501  0.36790056  1  -0.127644  -0.004881  3.670842  -0.005  -0.143808  -0.002041  3.91393  -0.002  -0.150421  -0.00182  3.935283  -0.002  -0.076526  -0.140288  -0.002338  3.900364  -0.002
C  C32  1  0.52407359  0.31766992  0.67160766  1  0.159284  -0.001159  3.765963  -0.001  0.161794  0.001724  4.00263  0.002  0.167814  0.000537  4.025232  0.0  0.116067  0.157645  0.002566  3.988022  0.002
C  C33  1  0.47592757  0.68232964  0.32839116  1  0.159209  0.001129  3.766102  0.001  0.161714  -0.001723  4.002768  -0.002  0.167731  -0.000538  4.025375  0.0  0.115986  0.157555  -0.002567  3.988181  -0.002
C  C34  1  0.58177368  0.35292839  0.77146347  1  0.19355  -0.005318  3.775589  -0.006  0.190005  -0.000691  4.02312  -0.002  0.199866  -0.001684  4.042141  -0.003  0.123977  0.183613  0.000172  4.012154  -0.001
C  C35  1  0.41822657  0.64706995  0.22853798  1  0.193409  0.005338  3.775679  0.007  0.189868  0.000692  4.023213  0.002  0.19973  0.001684  4.04224  0.003  0.12394  0.183474  -0.000172  4.012254  0.001
C  C36  1  0.47630457  0.43752196  0.85972203  1  -0.150843  0.008983  3.569197  0.009  -0.174317  0.004213  3.805346  0.004  -0.180673  0.003953  3.821802  0.004  -0.063389  -0.173857  0.004494  3.797746  0.005
C  C37  1  0.52369568  0.56247639  0.14027942  1  -0.150782  -0.009001  3.569206  -0.009  -0.174228  -0.004214  3.805294  -0.004  -0.180585  -0.00395  3.821751  -0.004  -0.06335  -0.173772  -0.004494  3.797698  -0.005
C  C38  1  0.55378159  0.45705924  0.95124857  1  0.127742  -0.00917  3.68216  -0.009  0.139526  -0.00363  3.912348  -0.004  0.145953  -0.003777  3.928489  -0.004  0.027209  0.134936  -0.003482  3.902618  -0.004
C  C39  1  0.44621992  0.54293911  0.04875163  1  0.127666  0.009186  3.682201  0.009  0.139495  0.003629  3.91234  0.004  0.145921  0.003778  3.928483  0.004  0.027164  0.134904  0.003483  3.902598  0.004
C  C40  1  0.73530191  0.39037955  0.95088887  1  -0.14973  0.00903  3.600191  0.009  -0.17932  0.004203  3.848163  0.004  -0.18543  0.00393  3.864624  0.004  -0.058751  -0.173103  0.004404  3.835299  0.004
C  C41  1  0.26469639  0.60962124  0.04911206  1  -0.149621  -0.009046  3.600278  -0.009  -0.179246  -0.004199  3.848191  -0.004  -0.185373  -0.003932  3.864644  -0.004  -0.058694  -0.173023  -0.004404  3.835304  -0.004
C  C42  1  0.83149141  0.30290779  0.86349998  1  0.198096  -0.004747  3.772096  -0.006  0.191939  -0.000274  4.023536  -0.002  0.201684  -0.001331  4.041859  -0.003  0.127675  0.184514  0.000364  4.011645  -0.001
C  C43  1  0.16850780  0.69709421  0.13649928  1  0.197995  0.004756  3.772217  0.006  0.191918  0.000274  4.023574  0.002  0.201725  0.001333  4.041818  0.003  0.127686  0.184494  -0.000364  4.011653  0.001
C  C44  1  0.01474014  0.20552642  0.86591749  1  0.175445  -0.001775  3.734224  -0.002  0.175728  0.001531  3.971153  0.001  0.182287  0.00029  3.992278  0.0  0.124744  0.171136  0.002503  3.957626  0.002
C  C45  1  0.98525964  0.79447801  0.13408159  1  0.17551  0.001785  3.734194  0.002  0.175771  -0.001532  3.971078  -0.001  0.182305  -0.000288  3.992204  0.0  0.12473  0.171188  -0.002502  3.957543  -0.002
C  C46  1  0.12545319  0.20242800  0.94465752  1  -0.110949  0.005986  3.659497  0.006  -0.132083  0.002652  3.91112  0.002  -0.137835  0.002444  3.930578  0.002  -0.067581  -0.128619  0.002898  3.899409  0.003
C  C47  1  0.87454339  0.79757886  0.05534326  1  -0.110927  -0.005998  3.659324  -0.006  -0.132035  -0.002649  3.911008  -0.002  -0.137782  -0.002446  3.930468  -0.002  -0.067497  -0.128578  -0.002898  3.899305  -0.003
C  C48  1  0.29157206  0.09348574  0.94711842  1  -0.01238  -0.007671  3.715751  -0.007  -0.037434  -0.002451  3.979669  -0.003  -0.034101  -0.002596  3.996839  -0.003  -0.068145  -0.040225  -0.002386  3.970003  -0.002
C  C49  1  0.70842555  0.90651748  0.05288264  1  -0.012389  0.007685  3.715891  0.007  -0.037508  0.00245  3.97977  0.003  -0.03418  0.002596  3.996942  0.003  -0.06819  -0.040301  0.002386  3.970115  0.002
C  C50  1  0.34459292  0.99284354  0.86982169  1  -0.117737  0.009713  3.693118  0.01  -0.132073  0.00445  3.944158  0.005  -0.139053  0.003778  3.965422  0.004  -0.082109  -0.127817  0.005073  3.930658  0.006
C  C51  1  0.65540665  0.00715723  0.13018084  1  -0.117727  -0.009726  3.693146  -0.01  -0.132074  -0.00445  3.944181  -0.005  -0.139053  -0.003779  3.965445  -0.004  -0.082121  -0.127818  -0.005073  3.930697  -0.006
C  C52  1  0.22714257  0.00471700  0.79185514  1  0.144516  -0.007578  3.67388  -0.009  0.118059  -0.001386  3.925479  -0.003  0.127182  -0.002436  3.944083  -0.004  0.056241  0.112479  -0.000516  3.913133  -0.002
C  C53  1  0.77285826  0.99528378  0.20814614  1  0.144486  0.007591  3.673937  0.009  0.118022  0.001386  3.925546  0.003  0.127151  0.002438  3.944143  0.004  0.056234  0.112432  0.000516  3.913223  0.002
N  N54  1  0.64899095  0.20972590  0.61781268  1  -0.329005  0.085575  3.303963  0.104  -0.291684  0.059007  3.598378  0.077  -0.321372  0.047293  3.620144  0.065  -0.335002  -0.273392  0.06656  3.586225  0.084
N  N55  1  0.35100986  0.79027488  0.38218574  1  -0.328907  -0.08555  3.303894  -0.104  -0.29159  -0.059008  3.598322  -0.077  -0.321287  -0.047295  3.620078  -0.065  -0.334968  -0.273308  -0.066559  3.586166  -0.084
N  N56  1  0.75435845  0.28858258  0.77563975  1  -0.364313  0.091813  3.387848  0.112  -0.332698  0.066403  3.689571  0.087  -0.361504  0.054834  3.70583  0.075  -0.357409  -0.315075  0.072769  3.680845  0.092
N  N57  1  0.24564077  0.71141941  0.22436142  1  -0.364213  -0.091826  3.387775  -0.112  -0.332648  -0.066405  3.689525  -0.087  -0.361485  -0.054836  3.70576  -0.075  -0.35741  -0.315033  -0.072772  3.680778  -0.092
N  N58  1  0.06708939  0.10784935  0.79036790  1  -0.313583  0.087374  3.297739  0.106  -0.270892  0.062583  3.580167  0.082  -0.299657  0.05061  3.601118  0.07  -0.335333  -0.254065  0.069911  3.5685  0.088
N  N59  1  0.93290982  0.89215265  0.20963136  1  -0.313557  -0.087386  3.297807  -0.106  -0.270851  -0.062584  3.580244  -0.082  -0.299626  -0.050613  3.601191  -0.07  -0.335324  -0.254034  -0.069911  3.568572  -0.088
O  O60  1  0.00928901  0.28735219  0.46161856  1  -0.882433  0.000475  1.563439  0.002  -0.871836  -3e-06  1.86521  0.001  -0.910251  -0.000153  1.846848  0.001  -0.599638  -0.844965  0.000116  1.876211  0.001
O  O61  1  0.99071894  0.71264127  0.53838208  1  -0.882417  -0.000473  1.563452  -0.002  -0.871803  4e-06  1.865202  -0.001  -0.910241  0.000153  1.846853  -0.001  -0.599629  -0.844949  -0.000116  1.876199  -0.001
O  O62  1  0.28375686  0.23090339  0.22648467  1  -0.837527  -0.025722  1.439652  -0.032  -0.821934  -0.009603  1.701731  -0.013  -0.857156  -0.006213  1.692339  -0.009  -0.584656  -0.796595  -0.012979  1.707015  -0.017
O  O63  1  0.71623770  0.76909255  0.77350960  1  -0.837575  0.025724  1.439633  0.032  -0.82197  0.009602  1.701687  0.013  -0.857199  0.006215  1.692313  0.009  -0.58466  -0.79663  0.01298  1.706969  0.017
O  O64  1  0.92848214  0.41128418  0.17455905  1  -0.847557  0.001427  1.495692  0.002  -0.821306  0.000281  1.758096  0.001  -0.853505  0.000346  1.744735  0.001  -0.579219  -0.798251  -0.000242  1.765299  0.0
O  O65  1  0.07150938  0.58870932  0.82544744  1  -0.847545  -0.001427  1.495697  -0.002  -0.821315  -0.000281  1.758139  -0.001  -0.853516  -0.000346  1.744781  -0.001  -0.579252  -0.798276  0.000242  1.765359  0.0
O  O66  1  0.99419162  0.93652347  0.65862560  1  -0.909686  0.075349  1.803291  0.095  -0.910486  0.038479  2.164636  0.052  -0.960197  0.028906  2.147875  0.041  -0.607553  -0.876339  0.045233  2.175621  0.059
O  O67  1  0.00580029  0.06346880  0.34138702  1  -0.909697  -0.075353  1.803434  -0.095  -0.910454  -0.03848  2.164746  -0.052  -0.960203  -0.028907  2.148022  -0.041  -0.60752  -0.876332  -0.045233  2.175728  -0.059
