# generated using pymatgen
data_ZnH20C32N4(OF)8
_symmetry_space_group_name_H-M   'P 1'
_cell_length_a   6.24863736
_cell_length_b   9.54504458
_cell_length_c   13.64859017
_cell_angle_alpha   104.46070639
_cell_angle_beta   94.39425267
_cell_angle_gamma   94.84845136
_symmetry_Int_Tables_number   1
_chemical_formula_structural   ZnH20C32N4(OF)8
_chemical_formula_sum   'Zn1 H20 C32 N4 O8 F8'
_cell_volume   781.40042479
_cell_formula_units_Z   1
loop_
 _symmetry_equiv_pos_site_id
 _symmetry_equiv_pos_as_xyz
  1  'x, y, z'
loop_
 _atom_site_type_symbol
 _atom_site_label
 _atom_site_symmetry_multiplicity
 _atom_site_fract_x
 _atom_site_fract_y
 _atom_site_fract_z
 _atom_site_occupancy
 _atom_site_hle17_bader_spin_density
 _atom_site_hle17_ddec_charge
 _atom_site_hle17_ddec_spin_density
 _atom_site_hle17_ddec_sum_bond_order
 _atom_site_hle17_magmom
 _atom_site_hse06_10hf_bader_spin_density
 _atom_site_hse06_10hf_ddec_charge
 _atom_site_hse06_10hf_ddec_spin_density
 _atom_site_hse06_10hf_ddec_sum_bond_order
 _atom_site_hse06_10hf_magmom
 _atom_site_hse06_bader_spin_density
 _atom_site_hse06_ddec_charge
 _atom_site_hse06_ddec_spin_density
 _atom_site_hse06_ddec_sum_bond_order
 _atom_site_hse06_magmom
 _atom_site_pbe_bader_spin_density
 _atom_site_pbe_cm5_charge
 _atom_site_pbe_ddec_charge
 _atom_site_pbe_ddec_spin_density
 _atom_site_pbe_ddec_sum_bond_order
 _atom_site_pbe_magmom
Zn  Zn0  1  0.99999916  0.49999928  0.49999968  1  0  0.977326  0  1.93831  0  0  0.791516  0  2.396188  0  0  0.833481  0  2.350553  0  0  0.717747  0.763137  0  2.426569  0
H  H1  1  0.98729335  0.90430792  0.40723909  1  0  0.063352  0  0.928486  0  0  0.075331  0  0.992416  0  0  0.076187  0  0.990915  0  0  0.103536  0.074714  0  0.993471  0
H  H2  1  0.01270616  0.09569068  0.59275857  1  0  0.063329  0  0.928477  0  0  0.075329  0  0.992408  0  0  0.076185  0  0.990909  0  0  0.103529  0.074712  0  0.993463  0
H  H3  1  0.83470806  0.99421520  0.32969794  1  0  0.055241  0  0.952326  0  0  0.066033  0  1.02276  0  0  0.065333  0  1.023569  0  0  0.09798  0.066446  0  1.022213  0
H  H4  1  0.16529020  0.00578558  0.67030005  1  0  0.055237  0  0.952301  0  0  0.066036  0  1.022746  0  0  0.065337  0  1.023553  0  0  0.097989  0.066449  0  1.022199  0
H  H5  1  0.10190422  0.85723092  0.23142405  1  0  0.116192  0  0.95212  0  0  0.135514  0  1.016292  0  0  0.136588  0  1.016399  0  0  0.093729  0.134714  0  1.016256  0
H  H6  1  0.89809386  0.14276877  0.76857448  1  0  0.116188  0  0.952164  0  0  0.135506  0  1.016329  0  0  0.136581  0  1.016435  0  0  0.093735  0.134697  0  1.016304  0
H  H7  1  0.83754791  0.78071068  0.17871719  1  0  0.119004  0  0.941764  0  0  0.139529  0  0.999629  0  0  0.141039  0  0.999744  0  0  0.093198  0.138379  0  0.999603  0
H  H8  1  0.16245177  0.21928901  0.82128140  1  0  0.118979  0  0.941687  0  0  0.139503  0  0.999564  0  0  0.141013  0  0.999679  0  0  0.093194  0.138355  0  0.999536  0
H  H9  1  0.99376288  0.69180614  0.25593345  1  0  0.108856  0  0.957722  0  0  0.126898  0  1.023056  0  0  0.127449  0  1.024951  0  0  0.085458  0.12638  0  1.021924  0
H  H10  1  0.00623644  0.30819137  0.74406475  1  0  0.108838  0  0.957781  0  0  0.126883  0  1.023107  0  0  0.127435  0  1.025001  0  0  0.085445  0.126367  0  1.021973  0
H  H11  1  0.57541679  0.08810707  0.97446838  1  0  0.058367  0  0.931265  0  0  0.06986  0  0.997829  0  0  0.070196  0  0.996668  0  0  0.100717  0.069567  0  0.998598  0
H  H12  1  0.42458288  0.91189263  0.02553094  1  0  0.058353  0  0.93128  0  0  0.069845  0  0.997832  0  0  0.070182  0  0.99667  0  0  0.10071  0.069554  0  0.998601  0
H  H13  1  0.84813453  0.12737691  0.95167405  1  0  0.072858  0  0.927662  0  0  0.085595  0  0.991597  0  0  0.086149  0  0.990578  0  0  0.106105  0.085048  0  0.992486  0
H  H14  1  0.15186496  0.87262170  0.04832728  1  0  0.072884  0  0.927606  0  0  0.085617  0  0.991532  0  0  0.086171  0  0.990512  0  0  0.106137  0.085074  0  0.992421  0
H  H15  1  0.58459230  0.23328019  0.84471614  1  0  0.107219  0  0.960029  0  0  0.124588  0  1.029591  0  0  0.125736  0  1.029819  0  0  0.088539  0.123703  0  1.029512  0
H  H16  1  0.41541093  0.76672168  0.15528442  1  0  0.107258  0  0.960053  0  0  0.124636  0  1.02959  0  0  0.125783  0  1.029812  0  0  0.08856  0.123752  0  1.029509  0
H  H17  1  0.76195756  0.37377166  0.93079408  1  0  0.104974  0  0.939604  0  0  0.127875  0  0.996065  0  0  0.129056  0  0.996186  0  0  0.088308  0.127054  0  0.995857  0
H  H18  1  0.23804371  0.62622804  0.06920676  1  0  0.105023  0  0.939533  0  0  0.12789  0  0.99603  0  0  0.129073  0  0.996149  0  0  0.088305  0.127066  0  0.99583  0
H  H19  1  0.49167118  0.33554399  0.95793559  1  0  0.111318  0  0.945938  0  0  0.127696  0  1.012224  0  0  0.130182  0  1.010382  0  0  0.088529  0.126161  0  1.013138  0
H  H20  1  0.50833044  0.66445788  0.04206491  1  0  0.1113  0  0.945961  0  0  0.12768  0  1.012245  0  0  0.130166  0  1.010404  0  0  0.088519  0.126144  0  1.013159  0
C  C21  1  0.25415105  0.73661682  0.67648694  1  0  0.142548  0  3.82964  0  0  0.115881  0  4.110528  0  0  0.121744  0  4.131193  0  0  0.08983  0.111996  0  4.096924  0
C  C22  1  0.74585184  0.26338286  0.32351177  1  0  0.142576  0  3.829688  0  0  0.115895  0  4.110566  0  0  0.12176  0  4.13123  0  0  0.089832  0.11201  0  4.096958  0
C  C23  1  0.44879201  0.83752288  0.69931038  1  0  0.110589  0  3.794495  0  0  0.071962  0  4.115284  0  0  0.081182  0  4.121111  0  0  0.080395  0.065501  0  4.111347  0
C  C24  1  0.55120908  0.16247573  0.30069027  1  0  0.110605  0  3.794443  0  0  0.071978  0  4.115245  0  0  0.081198  0  4.121074  0  0  0.080398  0.065526  0  4.111302  0
C  C25  1  0.54662396  0.82201358  0.61208495  1  0  0.118925  0  3.777478  0  0  0.083065  0  4.090596  0  0  0.092082  0  4.095908  0  0  0.08084  0.076503  0  4.087232  0
C  C26  1  0.45337392  0.17798503  0.38791558  1  0  0.11887  0  3.777426  0  0  0.082985  0  4.090573  0  0  0.092  0  4.095886  0  0  0.080782  0.076423  0  4.087206  0
C  C27  1  0.41879464  0.70808005  0.53455851  1  0  0.155378  0  3.820759  0  0  0.130838  0  4.091648  0  0  0.136889  0  4.113073  0  0  0.092669  0.126655  0  4.077448  0
C  C28  1  0.58120645  0.29191857  0.46544288  1  0  0.155436  0  3.820702  0  0  0.130879  0  4.09161  0  0  0.136934  0  4.113034  0  0  0.092708  0.126695  0  4.077409  0
C  C29  1  0.47014861  0.65516854  0.43457856  1  0  -0.142791  0  3.6716  0  0  -0.137156  0  3.932134  0  0  -0.142153  0  3.947781  0  0  -0.003114  -0.133945  0  3.921931  0
C  C30  1  0.52985124  0.34483224  0.56542096  1  0  -0.142778  0  3.671647  0  0  -0.137144  0  3.932204  0  0  -0.142144  0  3.947852  0  0  -0.003122  -0.133932  0  3.922002  0
C  C31  1  0.34988317  0.54381957  0.35855749  1  0  0.153847  0  3.829157  0  0  0.12909  0  4.101397  0  0  0.135195  0  4.123238  0  0  0.092637  0.124919  0  4.086774  0
C  C32  1  0.65011828  0.45618121  0.64144209  1  0  0.153794  0  3.82916  0  0  0.129045  0  4.101418  0  0  0.13515  0  4.123254  0  0  0.092638  0.124872  0  4.086794  0
C  C33  1  0.40371735  0.49126108  0.25541564  1  0  0.113428  0  3.785275  0  0  0.076097  0  4.103301  0  0  0.084339  0  4.109842  0  0  0.083098  0.070537  0  4.098162  0
C  C34  1  0.59627964  0.50874188  0.74458487  1  0  0.11342  0  3.78516  0  0  0.076083  0  4.103193  0  0  0.084327  0  4.109731  0  0  0.083077  0.070524  0  4.098055  0
C  C35  1  0.24222885  0.38754375  0.20478284  1  0  0.11646  0  3.7778  0  0  0.074614  0  4.100501  0  0  0.085415  0  4.104347  0  0  0.081565  0.068149  0  4.09727  0
C  C36  1  0.75777279  0.61245811  0.79521546  1  0  0.116404  0  3.777814  0  0  0.074581  0  4.100491  0  0  0.085382  0  4.104335  0  0  0.081561  0.068119  0  4.097259  0
C  C37  1  0.08792106  0.37270814  0.27656259  1  0  0.149135  0  3.823542  0  0  0.121989  0  4.103714  0  0  0.128452  0  4.123303  0  0  0.091236  0.11779  0  4.090459  0
C  C38  1  0.91207861  0.62729156  0.72343819  1  0  0.14914  0  3.823637  0  0  0.12202  0  4.103793  0  0  0.128481  0  4.123378  0  0  0.091274  0.11782  0  4.090537  0
C  C39  1  0.89684185  0.27775737  0.25483593  1  0  -0.118838  0  3.663954  0  0  -0.12331  0  3.936577  0  0  -0.126079  0  3.949799  0  0  9.3e-05  -0.122096  0  3.928363  0
C  C40  1  0.10315621  0.72224233  0.74516480  1  0  -0.118794  0  3.663907  0  0  -0.123305  0  3.936536  0  0  -0.126073  0  3.949757  0  0  5.7e-05  -0.122093  0  3.928325  0
C  C41  1  0.68262543  0.71869056  0.41050308  1  0  0.61993  0  3.804166  0  0  0.559634  0  4.115277  0  0  0.593244  0  4.105692  0  0  0.24302  0.536657  0  4.121671  0
C  C42  1  0.31737638  0.28131240  0.58949762  1  0  0.619834  0  3.804163  0  0  0.559509  0  4.115283  0  0  0.593118  0  4.1057  0  0  0.243009  0.536533  0  4.121675  0
C  C43  1  0.87251559  0.88854485  0.33955420  1  0  0.15676  0  3.558952  0  0  0.095296  0  3.843622  0  0  0.105918  0  3.847038  0  0  -0.070784  0.088145  0  3.840993  0
C  C44  1  0.12748265  0.11145593  0.66044526  1  0  0.156805  0  3.559039  0  0  0.095258  0  3.843776  0  0  0.105878  0  3.847197  0  0  -0.070786  0.088108  0  3.841144  0
C  C45  1  0.95474911  0.79739655  0.24565455  1  0  -0.329603  0  3.694355  0  0  -0.408567  0  3.942716  0  0  -0.41215  0  3.952737  0  0  -0.250958  -0.405824  0  3.935839  0
C  C46  1  0.04524897  0.20260314  0.75434324  1  0  -0.329588  0  3.694447  0  0  -0.408535  0  3.942815  0  0  -0.412117  0  3.952836  0  0  -0.25096  -0.405786  0  3.935941  0
C  C47  1  0.84972913  0.18086479  0.14779700  1  0  0.58563  0  3.859728  0  0  0.529721  0  4.178273  0  0  0.56223  0  4.168693  0  0  0.228739  0.507922  0  4.183745  0
C  C48  1  0.15026877  0.81913382  0.85220207  1  0  0.585551  0  3.859975  0  0  0.529741  0  4.178395  0  0  0.562247  0  4.168817  0  0  0.228799  0.507945  0  4.183868  0
C  C49  1  0.70406685  0.17609961  0.97949502  1  0  0.149543  0  3.56848  0  0  0.089243  0  3.850364  0  0  0.099368  0  3.854284  0  0  -0.068716  0.082485  0  3.847404  0
C  C50  1  0.29593586  0.82389899  0.02050422  1  0  0.149516  0  3.568457  0  0  0.089244  0  3.850329  0  0  0.099375  0  3.854236  0  0  -0.068733  0.082495  0  3.847348  0
C  C51  1  0.63160627  0.28661796  0.92542360  1  0  -0.322396  0  3.719224  0  0  -0.405045  0  3.97723  0  0  -0.407577  0  3.985538  0  0  -0.249285  -0.402872  0  3.971135  0
C  C52  1  0.36839518  0.71338282  0.07457671  1  0  -0.322468  0  3.719247  0  0  -0.405105  0  3.977243  0  0  -0.407638  0  3.98556  0  0  -0.249299  -0.402929  0  3.971144  0
N  N53  1  0.24290706  0.65969989  0.57624178  1  0  -0.419305  0  3.164146  0  0  -0.352588  0  3.45217  0  0  -0.372292  0  3.467086  0  0  -0.354697  -0.339098  0  3.441938  0
N  N54  1  0.75709261  0.34029981  0.42375901  1  0  -0.419371  0  3.164128  0  0  -0.352621  0  3.452129  0  0  -0.37233  0  3.467048  0  0  -0.354737  -0.33913  0  3.441895  0
N  N55  1  0.16040755  0.46747755  0.36899348  1  0  -0.421445  0  3.162347  0  0  -0.356449  0  3.451669  0  0  -0.375809  0  3.466059  0  0  -0.353848  -0.343161  0  3.441539  0
N  N56  1  0.83959372  0.53252214  0.63100663  1  0  -0.421433  0  3.162438  0  0  -0.356457  0  3.451744  0  0  -0.375833  0  3.466173  0  0  -0.35387  -0.343183  0  3.441651  0
O  O57  1  0.85605814  0.68005073  0.43632915  1  0  -0.526088  0  2.082699  0  0  -0.477475  0  2.341384  0  0  -0.500135  0  2.333211  0  0  -0.256661  -0.462014  0  2.346515  0
O  O58  1  0.14394172  0.31995005  0.56366963  1  0  -0.526025  0  2.082675  0  0  -0.477394  0  2.341347  0  0  -0.500054  0  2.333176  0  0  -0.256633  -0.461933  0  2.34648  0
O  O59  1  0.66525792  0.82239532  0.36149720  1  0  -0.315846  0  2.229805  0  0  -0.254418  0  2.474174  0  0  -0.275926  0  2.471442  0  0  -0.16112  -0.239489  0  2.475029  0
O  O60  1  0.33474033  0.17760546  0.63850225  1  0  -0.315808  0  2.229844  0  0  -0.254309  0  2.474195  0  0  -0.275818  0  2.471466  0  0  -0.161105  -0.239381  0  2.475049  0
O  O61  1  0.89260692  0.05519523  0.12284092  1  0  -0.493063  0  1.928031  0  0  -0.464396  0  2.148253  0  0  -0.48299  0  2.140588  0  0  -0.266658  -0.451149  0  2.152811  0
O  O62  1  0.10739579  0.94480337  0.87715833  1  0  -0.493045  0  1.92823  0  0  -0.464419  0  2.14843  0  0  -0.483015  0  2.140768  0  0  -0.266699  -0.45117  0  2.152982  0
O  O63  1  0.75524671  0.25320444  0.08704020  1  0  -0.320712  0  2.277614  0  0  -0.257029  0  2.526092  0  0  -0.278559  0  2.523226  0  0  -0.164848  -0.241758  0  2.526874  0
O  O64  1  0.24475279  0.74679417  0.91295893  1  0  -0.320651  0  2.277603  0  0  -0.25702  0  2.526055  0  0  -0.278549  0  2.523186  0  0  -0.164843  -0.241752  0  2.526841  0
F  F65  1  0.52001430  0.93118251  0.78936001  1  0  -0.142801  0  1.289051  0  0  -0.083483  0  1.454857  0  0  -0.093646  0  1.446916  0  0  -0.065045  -0.076265  0  1.460069  0
F  F66  1  0.47998680  0.06881609  0.21063991  1  0  -0.142812  0  1.289058  0  0  -0.083489  0  1.454856  0  0  -0.093653  0  1.446916  0  0  -0.065046  -0.076292  0  1.460082  0
F  F67  1  0.72869318  0.89943453  0.60056478  1  0  -0.147419  0  1.290581  0  0  -0.080474  0  1.448167  0  0  -0.089487  0  1.43905  0  0  -0.067877  -0.073994  0  1.454365  0
F  F68  1  0.27130790  0.10056408  0.39943807  1  0  -0.147397  0  1.29065  0  0  -0.080425  0  1.448227  0  0  -0.089437  0  1.439109  0  0  -0.067839  -0.073945  0  1.454424  0
F  F69  1  0.58185787  0.53592499  0.21770842  1  0  -0.141238  0  1.300649  0  0  -0.076098  0  1.46103  0  0  -0.085133  0  1.453369  0  0  -0.065871  -0.069482  0  1.465961  0
F  F70  1  0.41813896  0.46407688  0.78228971  1  0  -0.141206  0  1.300657  0  0  -0.076076  0  1.461054  0  0  -0.085109  0  1.453394  0  0  -0.065871  -0.069459  0  1.465987  0
F  F71  1  0.22928137  0.31215887  0.10674064  1  0  -0.136665  0  1.264044  0  0  -0.075612  0  1.416625  0  0  -0.088764  0  1.412418  0  0  -0.069598  -0.069837  0  1.423204  0
F  F72  1  0.77071686  0.68784193  0.89326174  1  0  -0.136638  0  1.263912  0  0  -0.075609  0  1.416496  0  0  -0.088754  0  1.412285  0  0  -0.069603  -0.069835  0  1.423074  0
