# generated using pymatgen
data_NdZnH12C15N2O13
_symmetry_space_group_name_H-M   'P 1'
_cell_length_a   9.71165729
_cell_length_b   10.72571294
_cell_length_c   10.97682107
_cell_angle_alpha   80.34786342
_cell_angle_beta   72.32312355
_cell_angle_gamma   75.62864081
_symmetry_Int_Tables_number   1
_chemical_formula_structural   NdZnH12C15N2O13
_chemical_formula_sum   'Nd2 Zn2 H24 C30 N4 O26'
_cell_volume   1050.02761269
_cell_formula_units_Z   2
loop_
 _symmetry_equiv_pos_site_id
 _symmetry_equiv_pos_as_xyz
  1  'x, y, z'
loop_
 _atom_site_type_symbol
 _atom_site_label
 _atom_site_symmetry_multiplicity
 _atom_site_fract_x
 _atom_site_fract_y
 _atom_site_fract_z
 _atom_site_occupancy
 _atom_site_pbe_bader_charge
 _atom_site_pbe_bader_spin_density
 _atom_site_pbe_cm5_charge
 _atom_site_pbe_ddec_charge
 _atom_site_pbe_ddec_spin_density
 _atom_site_pbe_ddec_sum_bond_order
 _atom_site_pbe_magmom
Nd  Nd0  1  0.17816121  0.19691993  0.03396814  1  2.238117  0  1.480597  2.063241  0  2.143247  0
Nd  Nd1  1  0.82183420  0.80307754  0.96603270  1  2.238  0  1.480575  2.063265  0  2.143196  0
Zn  Zn2  1  0.30486854  0.36438687  0.60963314  1  1.326635  0  0.696945  0.854212  0  2.337234  0
Zn  Zn3  1  0.69513349  0.63561451  0.39036800  1  1.326642  0  0.696929  0.854169  0  2.337208  0
H  H4  1  0.52691666  0.23118351  0.36518768  1  0.092413  0  0.12411  0.099838  0  0.981835  0
H  H5  1  0.47308439  0.76882174  0.63481036  1  0.092437  0  0.124124  0.099822  0  0.981892  0
H  H6  1  0.75056331  0.04938168  0.32813422  1  0.162701  0  0.118369  0.137606  0  1.001484  0
H  H7  1  0.24943906  0.95062262  0.67186271  1  0.162397  0  0.118346  0.137567  0  1.001563  0
H  H8  1  0.82519660  0.92271727  0.52164775  1  0.080785  0  0.109946  0.107303  0  1.021956  0
H  H9  1  0.17480733  0.07728509  0.47835089  1  0.080896  0  0.109926  0.107324  0  1.02195  0
H  H10  1  0.78857935  0.26524200  0.49256406  1  0.093645  0  0.107866  0.106314  0  1.014749  0
H  H11  1  0.21142243  0.73476035  0.50743608  1  0.093612  0  0.107857  0.106296  0  1.01477  0
H  H12  1  0.83918738  0.16878433  0.70543861  1  0.171329  0  0.113696  0.135392  0  1.029952  0
H  H13  1  0.16081284  0.83121995  0.29456073  1  0.171332  0  0.113728  0.135443  0  1.029923  0
H  H14  1  0.06574259  0.20240522  0.74838540  1  0.139119  0  0.12737  0.099865  0  1.019794  0
H  H15  1  0.93425620  0.79759614  0.25161753  1  0.139142  0  0.127351  0.099829  0  1.019748  0
H  H16  1  0.90924701  0.41654791  0.98072778  1  0.642911  0  0.319408  0.417606  0  0.88431  0
H  H17  1  0.09075212  0.58345637  0.01926912  1  0.642418  0  0.319417  0.417642  0  0.884251  0
H  H18  1  0.04791476  0.42007319  0.86057108  1  0.630112  0  0.300519  0.395856  0  0.944199  0
H  H19  1  0.95208833  0.57992820  0.13942795  1  0.63018  0  0.300525  0.395868  0  0.944192  0
H  H20  1  0.25561883  0.42948973  0.11275528  1  0.680708  0  0.302925  0.40834  0  0.925399  0
H  H21  1  0.74438220  0.57050682  0.88724054  1  0.68067  0  0.302923  0.408419  0  0.925313  0
H  H22  1  0.36981503  0.40625345  0.97725322  1  0.621598  0  0.335679  0.413874  0  0.86726  0
H  H23  1  0.63018492  0.59374310  0.02274199  1  0.621608  0  0.335685  0.413908  0  0.867235  0
H  H24  1  0.35364670  0.53581572  0.72235506  1  0.618953  0  0.322247  0.402564  0  0.882829  0
H  H25  1  0.64635748  0.46418567  0.27764549  1  0.61914  0  0.322276  0.402597  0  0.882713  0
H  H26  1  0.52086750  0.50607095  0.63205912  1  0.68687  0  0.293752  0.400681  0  0.932457  0
H  H27  1  0.47913932  0.49392851  0.36794285  1  0.686872  0  0.293705  0.400597  0  0.932541  0
C  C28  1  0.56414245  0.17310030  0.44525632  1  0.489652  0  0.054572  0.093723  0  3.943527  0
C  C29  1  0.43585993  0.82690399  0.55474334  1  0.489699  0  0.054562  0.093717  0  3.943496  0
C  C30  1  0.68729574  0.07089995  0.42576964  1  -0.03063  0  -0.067528  -0.103154  0  3.920693  0
C  C31  1  0.31270580  0.92910336  0.57422950  1  -0.030405  0  -0.06749  -0.10306  0  3.920789  0
C  C32  1  0.72761246  0.00092553  0.53300779  1  -0.038666  0  -0.057033  -0.053554  0  3.901871  0
C  C33  1  0.27239017  0.99907779  0.46699378  1  -0.03876  0  -0.057054  -0.053658  0  3.901938  0
C  C34  1  0.64345660  0.03108289  0.65701660  1  -0.002209  0  0.016678  -0.030349  0  3.86148  0
C  C35  1  0.35654386  0.96892042  0.34298283  1  -0.002485  0  0.016672  -0.030297  0  3.861383  0
C  C36  1  0.52159377  0.13479900  0.66755939  1  0.519572  0  0.120466  0.08519  0  3.918893  0
C  C37  1  0.47840178  0.86520234  0.33244352  1  0.519587  0  0.120575  0.085328  0  3.918739  0
C  C38  1  0.69091585  0.95369666  0.77107520  1  1.636988  0  0.194754  0.588842  0  4.269917  0
C  C39  1  0.30908398  0.04630472  0.22892107  1  1.63717  0  0.194543  0.588415  0  4.270352  0
C  C40  1  0.41850905  0.17277675  0.79480755  1  1.578636  0  0.205135  0.534573  0  4.234189  0
C  C41  1  0.58148637  0.82722072  0.20519329  1  1.578656  0  0.205088  0.534541  0  4.234108  0
C  C42  1  0.10978552  0.35671837  0.45742691  1  0.477944  0  0.110999  0.057816  0  3.954726  0
C  C43  1  0.89021697  0.64328108  0.54257351  1  0.477908  0  0.110994  0.0578  0  3.954757  0
C  C44  1  0.98666489  0.34178411  0.42465220  1  -0.015623  0  0.006786  -0.067605  0  3.919662  0
C  C45  1  0.01333822  0.65821728  0.57534955  1  -0.015554  0  0.0068  -0.067553  0  3.919554  0
C  C46  1  0.88627842  0.27570130  0.51569918  1  0.006186  0  -0.062407  -0.051646  0  3.919965  0
C  C47  1  0.11372253  0.72430008  0.48430134  1  0.006093  0  -0.062412  -0.051647  0  3.920022  0
C  C48  1  0.91237752  0.22397553  0.63349836  1  -0.059035  0  -0.069422  -0.096577  0  3.907427  0
C  C49  1  0.08762343  0.77602585  0.36650307  1  -0.059026  0  -0.069413  -0.096618  0  3.9075  0
C  C50  1  0.03848454  0.24125191  0.65836276  1  0.50994  0  0.061446  0.114793  0  3.895171  0
C  C51  1  0.96151317  0.75874945  0.34163956  1  0.509929  0  0.061477  0.114838  0  3.895065  0
C  C52  1  0.22346876  0.43051090  0.36957677  1  1.612179  0  0.218761  0.559325  0  4.214097  0
C  C53  1  0.77653626  0.56949147  0.63042249  1  1.612142  0  0.218776  0.559359  0  4.214081  0
C  C54  1  0.96220851  0.38696079  0.29420375  1  1.646835  0  0.238904  0.646619  0  4.178858  0
C  C55  1  0.03779614  0.61303867  0.70579517  1  1.646518  0  0.238985  0.646722  0  4.178829  0
C  C56  1  0.06082943  0.98062653  0.93720344  1  1.575022  0  0.217761  0.502598  0  4.233276  0
C  C57  1  0.93916564  0.01936802  0.06280070  1  1.595448  0  0.217738  0.502515  0  4.233269  0
N  N58  1  0.48538652  0.20472744  0.56332125  1  -1.242958  0  -0.318  -0.263803  0  3.57173  0
N  N59  1  0.51461334  0.79527393  0.43667957  1  -1.242958  0  -0.318005  -0.263761  0  3.571585  0
N  N60  1  0.13262624  0.30681378  0.57256802  1  -1.268741  0  -0.328191  -0.270953  0  3.613218  0
N  N61  1  0.86737195  0.69318563  0.42743448  1  -1.268719  0  -0.328219  -0.270953  0  3.613229  0
O  O62  1  0.76820120  0.00159328  0.81910253  1  -1.178536  0  -0.374368  -0.620649  0  2.181877  0
O  O63  1  0.23179686  0.99840227  0.18089790  1  -1.178492  0  -0.374282  -0.620496  0  2.182103  0
O  O64  1  0.66327977  0.84181956  0.80640052  1  -1.167874  0  -0.364766  -0.618307  0  2.141101  0
O  O65  1  0.33672031  0.15818085  0.19359676  1  -1.167883  0  -0.36463  -0.618071  0  2.141138  0
O  O66  1  0.44012596  0.11268188  0.89787053  1  -1.141253  0  -0.320129  -0.533967  0  2.198838  0
O  O67  1  0.55986933  0.88731172  0.10212824  1  -1.141257  0  -0.320119  -0.53396  0  2.198782  0
O  O68  1  0.30509758  0.26631327  0.79327059  1  -1.18417  0  -0.355264  -0.609508  0  2.3875  0
O  O69  1  0.69489721  0.73368228  0.20672527  1  -1.18405  0  -0.355291  -0.609566  0  2.387384  0
O  O70  1  0.32173330  0.44587842  0.41983077  1  -1.183734  0  -0.311281  -0.562709  0  2.381109  0
O  O71  1  0.67827053  0.55412006  0.58017127  1  -1.18371  0  -0.311295  -0.56273  0  2.381102  0
O  O72  1  0.21464644  0.47393546  0.25879606  1  -1.172914  0  -0.300556  -0.523186  0  2.215405  0
O  O73  1  0.78535784  0.52606109  0.74120251  1  -1.172889  0  -0.30057  -0.523228  0  2.215373  0
O  O74  1  0.02496279  0.30924532  0.21045116  1  -1.194063  0  -0.401734  -0.635832  0  2.343262  0
O  O75  1  0.97503443  0.69074926  0.78955057  1  -1.193912  0  -0.401745  -0.635875  0  2.343216  0
O  O76  1  0.87498531  0.49425441  0.27610596  1  -1.192886  0  -0.299257  -0.556107  0  2.328196  0
O  O77  1  0.12502019  0.50574602  0.72389439  1  -1.192596  0  -0.299297  -0.556155  0  2.328269  0
O  O78  1  0.16152453  0.04577713  0.89625592  1  -1.184728  0  -0.380942  -0.612232  0  2.286176  0
O  O79  1  0.83847139  0.95421839  0.10374874  1  -1.184863  0  -0.380963  -0.612231  0  2.286143  0
O  O80  1  0.04995000  0.88857660  0.88492778  1  -1.170566  0  -0.374273  -0.585524  0  2.254221  0
O  O81  1  0.95004507  0.11141796  0.11507545  1  -1.170484  0  -0.374203  -0.585429  0  2.254199  0
O  O82  1  0.00258720  0.36329125  0.93620663  1  -1.262206  0  -0.641209  -0.850743  0  2.05309  0
O  O83  1  0.99741157  0.63671011  0.06379358  1  -1.26172  0  -0.641216  -0.850795  0  2.05305  0
O  O84  1  0.26577629  0.41286546  0.02284508  1  -1.279679  0  -0.597912  -0.828099  0  2.014808  0
O  O85  1  0.73422403  0.58713399  0.97715047  1  -1.27966  0  -0.597911  -0.828208  0  2.0147  0
O  O86  1  0.41662492  0.49749796  0.64481898  1  -1.278615  0  -0.575454  -0.751706  0  2.120872  0
O  O87  1  0.58338204  0.50249665  0.35518647  1  -1.278842  0  -0.575433  -0.751649  0  2.120878  0
