# generated using pymatgen
data_CdP4H20C6(NO6)2
_symmetry_space_group_name_H-M   'P 1'
_cell_length_a   6.53384600
_cell_length_b   9.01539967
_cell_length_c   13.96153238
_cell_angle_alpha   89.99998139
_cell_angle_beta   90.00002091
_cell_angle_gamma   96.42938794
_symmetry_Int_Tables_number   1
_chemical_formula_structural   CdP4H20C6(NO6)2
_chemical_formula_sum   'Cd2 P8 H40 C12 N4 O24'
_cell_volume   817.23488152
_cell_formula_units_Z   2
loop_
 _symmetry_equiv_pos_site_id
 _symmetry_equiv_pos_as_xyz
  1  'x, y, z'
loop_
 _atom_site_type_symbol
 _atom_site_label
 _atom_site_symmetry_multiplicity
 _atom_site_fract_x
 _atom_site_fract_y
 _atom_site_fract_z
 _atom_site_occupancy
 _atom_site_hle17_bader_spin_density
 _atom_site_hle17_ddec_charge
 _atom_site_hle17_ddec_spin_density
 _atom_site_hle17_ddec_sum_bond_order
 _atom_site_hle17_magmom
 _atom_site_hse06_10hf_bader_spin_density
 _atom_site_hse06_10hf_ddec_charge
 _atom_site_hse06_10hf_ddec_spin_density
 _atom_site_hse06_10hf_ddec_sum_bond_order
 _atom_site_hse06_10hf_magmom
 _atom_site_hse06_bader_spin_density
 _atom_site_hse06_ddec_charge
 _atom_site_hse06_ddec_spin_density
 _atom_site_hse06_ddec_sum_bond_order
 _atom_site_hse06_magmom
 _atom_site_pbe_bader_spin_density
 _atom_site_pbe_cm5_charge
 _atom_site_pbe_ddec_charge
 _atom_site_pbe_ddec_spin_density
 _atom_site_pbe_ddec_sum_bond_order
 _atom_site_pbe_magmom
Cd  Cd0  1  0.09327251  0.49325290  0.40727044  1  0  1.402822  0  1.6503  0  0  1.238252  0  2.117102  0  0  1.285711  0  2.057103  0  0  0.824909  1.202903  0  2.160142  0
Cd  Cd1  1  0.90673069  0.50674856  0.90727149  1  0  1.402807  0  1.650322  0  0  1.238246  0  2.11712  0  0  1.285707  0  2.05712  0  0  0.824883  1.202893  0  2.160166  0
P  P2  1  0.13756166  0.87747815  0.47382255  1  0  1.509628  0  4.786325  0  0  1.339715  0  5.300694  0  0  1.390596  0  5.26071  0  0  0.367089  1.304338  0  5.327619  0
P  P3  1  0.86243990  0.12252216  0.97382368  1  0  1.509515  0  4.786425  0  0  1.339569  0  5.300766  0  0  1.390451  0  5.260785  0  0  0.367043  1.304194  0  5.327693  0
P  P4  1  0.83671084  0.12425965  0.45553816  1  0  1.552896  0  4.734204  0  0  1.385784  0  5.24095  0  0  1.437199  0  5.199889  0  0  0.393734  1.349216  0  5.269851  0
P  P5  1  0.16329529  0.87574068  0.95553901  1  0  1.552968  0  4.734195  0  0  1.385846  0  5.240909  0  0  1.437257  0  5.199851  0  0  0.393771  1.349279  0  5.26981  0
P  P6  1  0.07874795  0.45316028  0.67645149  1  0  1.499171  0  4.862172  0  0  1.327514  0  5.376272  0  0  1.378655  0  5.338401  0  0  0.345821  1.29173  0  5.402193  0
P  P7  1  0.92125339  0.54684017  0.17645056  1  0  1.499234  0  4.862094  0  0  1.327575  0  5.376198  0  0  1.378727  0  5.33832  0  0  0.345801  1.291791  0  5.402115  0
P  P8  1  0.39771042  0.43522412  0.84723149  1  0  1.498686  0  4.842232  0  0  1.33084  0  5.35267  0  0  1.382318  0  5.313966  0  0  0.350823  1.29528  0  5.378665  0
P  P9  1  0.60228950  0.56477625  0.34722978  1  0  1.498635  0  4.842383  0  0  1.330788  0  5.352846  0  0  1.382273  0  5.314138  0  0  0.350803  1.295235  0  5.378829  0
H  H10  1  0.98359779  0.85250672  0.27677262  1  0  0.283118  0  0.852944  0  0  0.266943  0  0.909749  0  0  0.274258  0  0.904895  0  0  0.32036  0.26184  0  0.913085  0
H  H11  1  0.01640039  0.14749256  0.77677360  1  0  0.283136  0  0.852945  0  0  0.266966  0  0.909741  0  0  0.274278  0  0.90489  0  0  0.320356  0.261863  0  0.913076  0
H  H12  1  0.65436490  0.52575115  0.70826251  1  0  0.275151  0  0.880623  0  0  0.260399  0  0.938145  0  0  0.26774  0  0.933249  0  0  0.313732  0.254773  0  0.942078  0
H  H13  1  0.34563442  0.47424593  0.20826293  1  0  0.275183  0  0.880609  0  0  0.260428  0  0.938134  0  0  0.267771  0  0.933237  0  0  0.313755  0.254801  0  0.942068  0
H  H14  1  0.79580689  0.86269154  0.41285938  1  0  0.168041  0  0.947399  0  0  0.170694  0  1.007161  0  0  0.175017  0  1.00512  0  0  0.136873  0.16676  0  1.010206  0
H  H15  1  0.20419309  0.13730880  0.91285968  1  0  0.168051  0  0.947457  0  0  0.170682  0  1.007196  0  0  0.175007  0  1.005153  0  0  0.136875  0.166748  0  1.010243  0
H  H16  1  0.65785875  0.94578747  0.26344381  1  0  0.126471  0  0.954207  0  0  0.143416  0  1.013516  0  0  0.145169  0  1.012631  0  0  0.111628  0.142034  0  1.01438  0
H  H17  1  0.34214265  0.05421294  0.76344487  1  0  0.126475  0  0.954174  0  0  0.143413  0  1.013483  0  0  0.145166  0  1.012601  0  0  0.11162  0.142033  0  1.014348  0
H  H18  1  0.83338379  0.99380301  0.16720510  1  0  0.137421  0  0.957272  0  0  0.15015  0  1.022875  0  0  0.152368  0  1.021834  0  0  0.115227  0.148339  0  1.02389  0
H  H19  1  0.16661413  0.00619520  0.66720686  1  0  0.137414  0  0.957302  0  0  0.150144  0  1.022906  0  0  0.152361  0  1.021865  0  0  0.115236  0.148332  0  1.023924  0
H  H20  1  0.79437292  0.13101963  0.25612452  1  0  0.111075  0  0.946323  0  0  0.129987  0  1.00777  0  0  0.131273  0  1.007003  0  0  0.110253  0.129008  0  1.008398  0
H  H21  1  0.20562831  0.86897967  0.75612609  1  0  0.111068  0  0.94631  0  0  0.129972  0  1.007761  0  0  0.131258  0  1.006996  0  0  0.110231  0.128992  0  1.00839  0
H  H22  1  0.19531712  0.03768298  0.19838511  1  0  0.131992  0  0.950176  0  0  0.147835  0  1.012253  0  0  0.149879  0  1.011105  0  0  0.113983  0.14624  0  1.013192  0
H  H23  1  0.80468219  0.96231410  0.69838677  1  0  0.132  0  0.950148  0  0  0.147833  0  1.012232  0  0  0.149877  0  1.011084  0  0  0.113985  0.146239  0  1.013173  0
H  H24  1  0.29754754  0.01508050  0.31629267  1  0  0.116093  0  0.956096  0  0  0.134344  0  1.01686  0  0  0.135911  0  1.016062  0  0  0.113076  0.133037  0  1.017702  0
H  H25  1  0.70245356  0.98491765  0.81629430  1  0  0.116141  0  0.956033  0  0  0.134354  0  1.016833  0  0  0.135919  0  1.016039  0  0  0.113076  0.133046  0  1.017677  0
H  H26  1  0.15673108  0.16988414  0.29210475  1  0  0.138773  0  0.939109  0  0  0.156511  0  0.995914  0  0  0.158601  0  0.995094  0  0  0.115597  0.154927  0  0.996622  0
H  H27  1  0.84327017  0.83011514  0.79210644  1  0  0.138754  0  0.939114  0  0  0.156493  0  0.995902  0  0  0.158579  0  0.995089  0  0  0.115605  0.154909  0  0.996607  0
H  H28  1  0.32096769  0.63473214  0.75149985  1  0  0.150306  0  0.928713  0  0  0.160214  0  0.9817  0  0  0.163302  0  0.980666  0  0  0.136543  0.157976  0  0.982806  0
H  H29  1  0.67903353  0.36526715  0.25150035  1  0  0.150282  0  0.928708  0  0  0.160198  0  0.981681  0  0  0.163288  0  0.980645  0  0  0.136517  0.157938  0  0.982819  0
H  H30  1  0.67188789  0.39910842  0.56646147  1  0  0.121456  0  0.93874  0  0  0.137138  0  1.004053  0  0  0.139035  0  1.002623  0  0  0.114211  0.135486  0  1.005631  0
H  H31  1  0.32810792  0.60088648  0.06646187  1  0  0.121416  0  0.938756  0  0  0.137116  0  1.004043  0  0  0.139012  0  1.002616  0  0  0.114207  0.135462  0  1.005621  0
H  H32  1  0.39943769  0.37948275  0.55285621  1  0  0.130003  0  0.947681  0  0  0.147233  0  1.006574  0  0  0.149332  0  1.005279  0  0  0.11476  0.145677  0  1.007566  0
H  H33  1  0.60055726  0.62051661  0.05285593  1  0  0.130043  0  0.947772  0  0  0.147226  0  1.006715  0  0  0.149326  0  1.00542  0  0  0.114733  0.14567  0  1.007707  0
H  H34  1  0.51238327  0.28801334  0.65101308  1  0  0.132258  0  0.931482  0  0  0.148748  0  0.98922  0  0  0.150847  0  0.987935  0  0  0.114571  0.147235  0  0.990189  0
H  H35  1  0.48761312  0.71198488  0.15101276  1  0  0.132273  0  0.931445  0  0  0.148762  0  0.989179  0  0  0.150864  0  0.98789  0  0  0.114565  0.147247  0  0.990149  0
H  H36  1  0.68606287  0.66238039  0.56512850  1  0  0.137586  0  0.953082  0  0  0.15224  0  1.014606  0  0  0.154576  0  1.013578  0  0  0.115428  0.150488  0  1.015469  0
H  H37  1  0.31393924  0.33761564  0.06512680  1  0  0.137624  0  0.953069  0  0  0.152339  0  1.01451  0  0  0.154675  0  1.013481  0  0  0.115484  0.150586  0  1.015376  0
H  H38  1  0.55529413  0.75735679  0.65559491  1  0  0.113088  0  0.921909  0  0  0.137299  0  0.972773  0  0  0.137858  0  0.97341  0  0  0.114519  0.136864  0  0.972413  0
H  H39  1  0.44471161  0.24264255  0.15559468  1  0  0.113108  0  0.921938  0  0  0.137328  0  0.972787  0  0  0.137886  0  0.973425  0  0  0.114546  0.136893  0  0.972426  0
H  H40  1  0.41167262  0.66159180  0.56017057  1  0  0.1161  0  0.969448  0  0  0.13011  0  1.037314  0  0  0.13216  0  1.035978  0  0  0.109892  0.128592  0  1.038289  0
H  H41  1  0.58833135  0.33840647  0.06017177  1  0  0.116149  0  0.969375  0  0  0.130148  0  1.037259  0  0  0.132198  0  1.035923  0  0  0.109902  0.128629  0  1.038236  0
H  H42  1  0.04189891  0.68680134  0.57016872  1  0  0.43496  0  0.875464  0  0  0.398545  0  0.948194  0  0  0.410549  0  0.931051  0  0  0.305317  0.390194  0  0.960101  0
H  H43  1  0.95810574  0.31320139  0.07016928  1  0  0.434985  0  0.87542  0  0  0.398594  0  0.94812  0  0  0.410597  0  0.930976  0  0  0.305339  0.390247  0  0.960016  0
H  H44  1  0.48051990  0.06821913  0.46274293  1  0  0.46856  0  0.828143  0  0  0.430836  0  0.900173  0  0  0.443461  0  0.882362  0  0  0.305889  0.422037  0  0.912538  0
H  H45  1  0.51947568  0.93178229  0.96274455  1  0  0.46861  0  0.828063  0  0  0.430897  0  0.900073  0  0  0.443522  0  0.882262  0  0  0.305927  0.422098  0  0.912439  0
H  H46  1  0.94417494  0.19271259  0.60764109  1  0  0.456464  0  0.847903  0  0  0.414856  0  0.927406  0  0  0.42795  0  0.909004  0  0  0.304918  0.405847  0  0.940028  0
H  H47  1  0.05582634  0.80728789  0.10764355  1  0  0.4564  0  0.848001  0  0  0.414845  0  0.927411  0  0  0.427941  0  0.909006  0  0  0.304926  0.405836  0  0.940032  0
H  H48  1  0.59701476  0.25350994  0.85502508  1  0  0.444018  0  0.86488  0  0  0.407241  0  0.937572  0  0  0.419273  0  0.920275  0  0  0.305971  0.398839  0  0.949593  0
H  H49  1  0.40298534  0.74649154  0.35502259  1  0  0.444013  0  0.864883  0  0  0.407234  0  0.937573  0  0  0.41927  0  0.920272  0  0  0.305994  0.398833  0  0.949592  0
C  C50  1  0.92512498  0.95138838  0.40719596  1  0  -0.517754  0  3.441257  0  0  -0.50425  0  3.686706  0  0  -0.516676  0  3.691542  0  0  -0.010202  -0.495167  0  3.684318  0
C  C51  1  0.07487499  0.04861196  0.90719770  1  0  -0.517658  0  3.441312  0  0  -0.504037  0  3.686618  0  0  -0.516448  0  3.691415  0  0  -0.010137  -0.494961  0  3.684237  0
C  C52  1  0.80054124  0.01231216  0.24257301  1  0  -0.187328  0  3.488801  0  0  -0.286361  0  3.733359  0  0  -0.283722  0  3.738641  0  0  -0.143671  -0.287745  0  3.729797  0
C  C53  1  0.19945997  0.98768714  0.74257384  1  0  -0.18734  0  3.488825  0  0  -0.286347  0  3.733357  0  0  -0.283709  0  3.738642  0  0  -0.143672  -0.287729  0  3.729793  0
C  C54  1  0.17132943  0.05329774  0.27509016  1  0  -0.19211  0  3.475312  0  0  -0.286822  0  3.710625  0  0  -0.284949  0  3.716329  0  0  -0.13993  -0.287796  0  3.706903  0
C  C55  1  0.82867147  0.94669931  0.77509110  1  0  -0.192113  0  3.475178  0  0  -0.286773  0  3.71048  0  0  -0.284897  0  3.716186  0  0  -0.139926  -0.287747  0  3.706759  0
C  C56  1  0.33374000  0.51778955  0.73180216  1  0  -0.499393  0  3.454469  0  0  -0.483998  0  3.697981  0  0  -0.495832  0  3.70373  0  0  -0.010867  -0.476257  0  3.694599  0
C  C57  1  0.66626120  0.48220976  0.23180049  1  0  -0.499325  0  3.454504  0  0  -0.483948  0  3.698043  0  0  -0.495783  0  3.703788  0  0  -0.010796  -0.47619  0  3.694665  0
C  C58  1  0.52488604  0.38605514  0.60469509  1  0  -0.181116  0  3.481247  0  0  -0.275965  0  3.720094  0  0  -0.27338  0  3.724965  0  0  -0.139366  -0.277476  0  3.716887  0
C  C59  1  0.47511320  0.61394199  0.10469335  1  0  -0.181111  0  3.481382  0  0  -0.275938  0  3.720198  0  0  -0.273355  0  3.725068  0  0  -0.139329  -0.27745  0  3.716989  0
C  C60  1  0.54499571  0.66139825  0.60718404  1  0  -0.174114  0  3.478119  0  0  -0.266728  0  3.712746  0  0  -0.264423  0  3.718687  0  0  -0.137051  -0.267964  0  3.708624  0
C  C61  1  0.45500507  0.33859888  0.10718308  1  0  -0.174191  0  3.478033  0  0  -0.266856  0  3.712657  0  0  -0.264552  0  3.718604  0  0  -0.137149  -0.268092  0  3.708539  0
N  N62  1  0.97282843  0.96163300  0.30075923  1  0  0.036982  0  3.370803  0  0  0.125005  0  3.577679  0  0  0.114683  0  3.597813  0  0  -0.335187  0.131823  0  3.563855  0
N  N63  1  0.02717146  0.03836738  0.80076095  1  0  0.036871  0  3.370893  0  0  0.124848  0  3.577763  0  0  0.114524  0  3.5979  0  0  -0.335214  0.131666  0  3.563942  0
N  N64  1  0.51961242  0.52212999  0.66603719  1  0  0.024078  0  3.387463  0  0  0.109914  0  3.594453  0  0  0.099356  0  3.614653  0  0  -0.338193  0.117466  0  3.580662  0
N  N65  1  0.48038704  0.47786822  0.16603764  1  0  0.023935  0  3.387525  0  0  0.109797  0  3.594473  0  0  0.099238  0  3.614672  0  0  -0.338234  0.117351  0  3.580678  0
O  O66  1  0.29698962  0.00159929  0.50604906  1  0  -0.815433  0  1.917924  0  0  -0.737163  0  2.153138  0  0  -0.762546  0  2.133451  0  0  -0.363485  -0.7194  0  2.166467  0
O  O67  1  0.70301312  0.99840123  0.00605301  1  0  -0.815445  0  1.917925  0  0  -0.73714  0  2.153094  0  0  -0.762523  0  2.133408  0  0  -0.363499  -0.71938  0  2.166423  0
O  O68  1  0.21259374  0.75956593  0.40709852  1  0  -0.893325  0  2.053976  0  0  -0.806418  0  2.325255  0  0  -0.833404  0  2.302537  0  0  -0.37494  -0.78666  0  2.339824  0
O  O69  1  0.78740657  0.24043664  0.90709889  1  0  -0.893274  0  2.053903  0  0  -0.806415  0  2.325275  0  0  -0.833404  0  2.302564  0  0  -0.374921  -0.786634  0  2.339796  0
O  O70  1  0.02412017  0.79929845  0.56298253  1  0  -0.74867  0  2.039749  0  0  -0.674656  0  2.276851  0  0  -0.696936  0  2.253573  0  0  -0.381816  -0.65891  0  2.292698  0
O  O71  1  0.97588022  0.20070651  0.06298312  1  0  -0.74863  0  2.039697  0  0  -0.674657  0  2.276819  0  0  -0.696939  0  2.253541  0  0  -0.381818  -0.658915  0  2.292663  0
O  O72  1  0.84716078  0.11013267  0.56624091  1  0  -0.776975  0  2.028093  0  0  -0.697578  0  2.262686  0  0  -0.720628  0  2.237542  0  0  -0.370426  -0.681138  0  2.27963  0
O  O73  1  0.15283707  0.88986559  0.06624050  1  0  -0.777003  0  2.028119  0  0  -0.69763  0  2.262686  0  0  -0.720679  0  2.237544  0  0  -0.37048  -0.681191  0  2.279619  0
O  O74  1  0.60775223  0.12232680  0.42430446  1  0  -0.76982  0  2.002407  0  0  -0.696547  0  2.237849  0  0  -0.719776  0  2.213368  0  0  -0.377813  -0.680003  0  2.254486  0
O  O75  1  0.39224469  0.87767352  0.92430392  1  0  -0.769883  0  2.002492  0  0  -0.696624  0  2.237924  0  0  -0.719853  0  2.213443  0  0  -0.377849  -0.680085  0  2.254567  0
O  O76  1  0.96799236  0.25343181  0.41173065  1  0  -0.8718  0  2.013582  0  0  -0.789132  0  2.301765  0  0  -0.816321  0  2.278059  0  0  -0.374988  -0.769313  0  2.319067  0
O  O77  1  0.03201220  0.74656853  0.91173079  1  0  -0.871774  0  2.013521  0  0  -0.789138  0  2.301732  0  0  -0.816325  0  2.278025  0  0  -0.374977  -0.769321  0  2.319033  0
O  O78  1  0.08208137  0.52468711  0.57579205  1  0  -0.892975  0  2.040112  0  0  -0.800746  0  2.316758  0  0  -0.829768  0  2.29531  0  0  -0.377946  -0.780074  0  2.331339  0
O  O79  1  0.91791835  0.47531338  0.07579256  1  0  -0.893027  0  2.040059  0  0  -0.80081  0  2.31671  0  0  -0.829832  0  2.295258  0  0  -0.377978  -0.780143  0  2.331287  0
O  O80  1  0.05653403  0.28187635  0.67347906  1  0  -0.825906  0  1.972073  0  0  -0.740255  0  2.215862  0  0  -0.76664  0  2.196984  0  0  -0.36509  -0.721863  0  2.228507  0
O  O81  1  0.94346117  0.71812408  0.17347809  1  0  -0.825916  0  1.972085  0  0  -0.740286  0  2.215842  0  0  -0.766689  0  2.196973  0  0  -0.365127  -0.721895  0  2.228485  0
O  O82  1  0.92137563  0.51868946  0.74056414  1  0  -0.874137  0  1.964868  0  0  -0.789982  0  2.238497  0  0  -0.817307  0  2.217361  0  0  -0.383655  -0.770268  0  2.25309  0
O  O83  1  0.07862642  0.48131542  0.24056452  1  0  -0.87411  0  1.964894  0  0  -0.789958  0  2.238531  0  0  -0.817284  0  2.217392  0  0  -0.383592  -0.770242  0  2.253121  0
O  O84  1  0.46511181  0.27695940  0.81910494  1  0  -0.759703  0  2.021044  0  0  -0.681167  0  2.2487  0  0  -0.703647  0  2.224851  0  0  -0.387083  -0.666046  0  2.265608  0
O  O85  1  0.53488946  0.72303986  0.31910391  1  0  -0.759676  0  2.021081  0  0  -0.681142  0  2.248763  0  0  -0.703634  0  2.224918  0  0  -0.387095  -0.666022  0  2.265671  0
O  O86  1  0.20723968  0.41346664  0.90888373  1  0  -0.872589  0  2.040477  0  0  -0.786218  0  2.326186  0  0  -0.815042  0  2.305368  0  0  -0.378284  -0.765291  0  2.341261  0
O  O87  1  0.79276046  0.58653481  0.40888277  1  0  -0.87258  0  2.040475  0  0  -0.78618  0  2.326129  0  0  -0.815  0  2.305308  0  0  -0.378287  -0.765253  0  2.341204  0
O  O88  1  0.57816701  0.53751774  0.88668919  1  0  -0.864063  0  1.968368  0  0  -0.777769  0  2.247354  0  0  -0.806074  0  2.225886  0  0  -0.385113  -0.75757  0  2.261384  0
O  O89  1  0.42183311  0.46248373  0.38668963  1  0  -0.864017  0  1.96843  0  0  -0.777767  0  2.247474  0  0  -0.806072  0  2.226005  0  0  -0.385118  -0.757567  0  2.261501  0
