# generated using pymatgen
data_Zn3H32C42SN4O15
_symmetry_space_group_name_H-M   'P 1'
_cell_length_a   21.30208141
_cell_length_b   21.28683427
_cell_length_c   24.19986762
_cell_angle_alpha   64.47270394
_cell_angle_beta   64.20653786
_cell_angle_gamma   90.21642709
_symmetry_Int_Tables_number   1
_chemical_formula_structural   Zn3H32C42SN4O15
_chemical_formula_sum   'Zn6 H64 C84 S2 N8 O30'
_cell_volume   8665.07012743
_cell_formula_units_Z   2
loop_
 _symmetry_equiv_pos_site_id
 _symmetry_equiv_pos_as_xyz
  1  'x, y, z'
loop_
 _atom_site_type_symbol
 _atom_site_label
 _atom_site_symmetry_multiplicity
 _atom_site_fract_x
 _atom_site_fract_y
 _atom_site_fract_z
 _atom_site_occupancy
 _atom_site_pbe_bader_charge
 _atom_site_pbe_bader_spin_density
 _atom_site_pbe_cm5_charge
 _atom_site_pbe_ddec_charge
 _atom_site_pbe_ddec_spin_density
 _atom_site_pbe_ddec_sum_bond_order
 _atom_site_pbe_magmom
Zn  Zn0  1  0.57283219  0.00246640  0.49675164  1  1.288433  0  0.717283  0.945676  0  2.111842  0
Zn  Zn1  1  0.99952583  0.43239736  0.50284425  1  1.292281  0  0.718873  0.94846  0  2.121796  0
Zn  Zn2  1  0.44546622  0.99952201  0.49906288  1  1.305498  0  0.716452  0.950867  0  2.178172  0
Zn  Zn3  1  0.00143447  0.55967490  0.50136116  1  1.306469  0  0.716064  0.950425  0  2.171505  0
Zn  Zn4  1  0.53286555  0.53434748  0.43128812  1  1.299102  0  0.710515  0.942523  0  2.176379  0
Zn  Zn5  1  0.46611458  0.46650858  0.57214518  1  1.296819  0  0.709453  0.942033  0  2.175696  0
H  H6  1  0.52178871  0.17259744  0.28859085  1  0.093051  0  0.113253  0.115642  0  0.994921  0
H  H7  1  0.83202023  0.49616101  0.71449648  1  0.11465  0  0.115681  0.121763  0  0.982013  0
H  H8  1  0.28184435  0.85483375  0.71877654  1  0.089449  0  0.110451  0.116408  0  0.985175  0
H  H9  1  0.14855246  0.72090117  0.28045679  1  0.08659  0  0.110434  0.116534  0  0.9855  0
H  H10  1  0.22010259  0.78849803  0.84998815  1  0.107526  0  0.107256  0.106657  0  1.007488  0
H  H11  1  0.21397528  0.78161697  0.14931136  1  0.105451  0  0.107907  0.107225  0  1.007635  0
H  H12  1  0.40294454  0.88178893  0.84555501  1  0.10864  0  0.10764  0.106626  0  1.010292  0
H  H13  1  0.11673980  0.59939551  0.15555222  1  0.092078  0  0.107712  0.106631  0  1.009074  0
H  H14  1  0.46666372  0.94317127  0.71436590  1  0.130614  0  0.109794  0.117533  0  0.98597  0
H  H15  1  0.05658941  0.53642593  0.28663250  1  0.098225  0  0.109717  0.117071  0  0.984698  0
H  H16  1  0.40641814  0.70171744  0.53386098  1  0.073133  0  0.098513  0.084743  0  0.991426  0
H  H17  1  0.30180235  0.59427032  0.46839810  1  0.072975  0  0.100165  0.087907  0  0.988746  0
H  H18  1  0.47974172  0.84443861  0.42270342  1  0.081122  0  0.099899  0.095832  0  0.988387  0
H  H19  1  0.15791725  0.52761246  0.57985035  1  0.075079  0  0.097389  0.092189  0  0.992038  0
H  H20  1  0.59795696  0.79167654  0.36019528  1  0.07773  0  0.094229  0.089137  0  1.000047  0
H  H21  1  0.20687233  0.40685671  0.64593916  1  0.053377  0  0.090985  0.076164  0  1.006274  0
H  H22  1  0.65844816  0.81344644  0.43670994  1  0.073819  0  0.09865  0.089898  0  0.990831  0
H  H23  1  0.17975012  0.34387646  0.57345158  1  0.086905  0  0.100615  0.093753  0  0.987787  0
H  H24  1  0.58343391  0.67154354  0.54844080  1  0.056481  0  0.096829  0.081983  0  0.996044  0
H  H25  1  0.32305918  0.41235905  0.46132936  1  0.076003  0  0.098609  0.084362  0  0.993879  0
H  H26  1  0.58048196  0.24554006  0.15864028  1  0.096428  0  0.113073  0.10905  0  1.008032  0
H  H27  1  0.74966025  0.42482769  0.84385888  1  0.095367  0  0.113964  0.111936  0  0.994948  0
H  H28  1  0.46665113  0.72693749  0.60899106  1  0.07328  0  0.099623  0.085292  0  0.990271  0
H  H29  1  0.27240937  0.53125621  0.39704885  1  0.035458  0  0.100722  0.086819  0  0.988525  0
H  H30  1  0.44025101  0.30504015  0.44716882  1  0.046212  0  0.098545  0.086244  0  0.994922  0
H  H31  1  0.69395004  0.55860287  0.55915366  1  0.058354  0  0.098455  0.086002  0  0.994757  0
H  H32  1  0.41599599  0.17694778  0.56902037  1  0.04779  0  0.100764  0.089824  0  0.987727  0
H  H33  1  0.82282018  0.58926647  0.43473585  1  0.062523  0  0.100369  0.089934  0  0.988641  0
H  H34  1  0.50320667  0.25548218  0.59083799  1  0.074157  0  0.099171  0.090261  0  0.992346  0
H  H35  1  0.74664394  0.50554328  0.40792610  1  0.05393  0  0.098967  0.089794  0  0.99134  0
H  H36  1  0.62562734  0.21870794  0.50972399  1  0.072897  0  0.097989  0.087104  0  0.99478  0
H  H37  1  0.78614726  0.38235969  0.48355181  1  0.073801  0  0.098494  0.087682  0  0.994829  0
H  H38  1  0.64876220  0.34553741  0.38711939  1  0.073595  0  0.098706  0.089133  0  0.994653  0
H  H39  1  0.65851880  0.35282598  0.60857308  1  0.090614  0  0.09922  0.089515  0  0.994104  0
H  H40  1  0.64102974  0.32483649  0.20257884  1  0.011033  0  0.082967  0.108632  0  1.01002  0
H  H41  1  0.54841019  0.31586123  0.22762294  1  0.016154  0  0.080864  0.103443  0  1.015219  0
H  H42  1  0.60607628  0.40225073  0.18051895  1  0.032401  0  0.087372  0.114455  0  1.00096  0
H  H43  1  0.53177195  0.36602063  0.30879120  1  0.03455  0  0.088725  0.075847  0  0.976119  0
H  H44  1  0.62385778  0.37855480  0.28264307  1  0.027832  0  0.089575  0.076969  0  0.976769  0
H  H45  1  0.61289447  0.24579146  0.33114020  1  0.028179  0  0.09333  0.096266  0  0.969993  0
H  H46  1  0.52044910  0.23207335  0.35672896  1  0.022308  0  0.089978  0.089871  0  0.987996  0
H  H47  1  0.67283331  0.35080169  0.79883997  1  0.008939  0  0.081859  0.107668  0  1.010449  0
H  H48  1  0.67801786  0.44209800  0.77816630  1  0.014237  0  0.079738  0.101831  0  1.020252  0
H  H49  1  0.59318031  0.38265318  0.82180712  1  0.030359  0  0.086388  0.112509  0  1.003033  0
H  H50  1  0.63221571  0.46152209  0.69375208  1  0.026153  0  0.088969  0.076358  0  0.977456  0
H  H51  1  0.62281382  0.37061088  0.71567012  1  -0.003282  0  0.08953  0.076507  0  0.977576  0
H  H52  1  0.75569174  0.38447345  0.66820419  1  0.028493  0  0.093714  0.096866  0  0.969035  0
H  H53  1  0.76664345  0.47553665  0.64780333  1  0.034211  0  0.089596  0.089547  0  0.986361  0
H  H54  1  0.79938507  0.03573634  0.02673084  1  0.045785  0  0.087946  0.115691  0  1.008288  0
H  H55  1  0.76892731  0.96354315  0.11174185  1  -0.014076  0  0.080958  0.092936  0  1.019617  0
H  H56  1  0.73016520  0.96154828  0.06077831  1  0.041705  0  0.095375  0.127782  0  0.985535  0
H  H57  1  0.64608030  0.99459446  0.14947573  1  0.038405  0  0.08867  0.086298  0  0.999279  0
H  H58  1  0.67831767  0.06658885  0.06472480  1  0.063376  0  0.091131  0.08624  0  1.023792  0
H  H59  1  0.76108365  0.13204004  0.07449733  1  0.02887  0  0.097569  0.099974  0  0.995253  0
H  H60  1  0.75488251  0.05920106  0.14831920  1  0.029973  0  0.092917  0.082994  0  1.022069  0
H  H61  1  0.88220253  0.13791137  0.98828585  1  2.3e-05  0  0.082061  0.105298  0  1.032465  0
H  H62  1  0.97194157  0.17988128  0.92007444  1  0.030925  0  0.0906  0.122876  0  0.991403  0
H  H63  1  0.93936827  0.19106283  0.99573660  1  0.028353  0  0.089668  0.117856  0  0.995396  0
H  H64  1  0.94513662  0.30095097  0.89400489  1  0.036387  0  0.086004  0.076835  0  0.992046  0
H  H65  1  0.85607015  0.26157228  0.96203181  1  -0.000105  0  0.080682  0.064146  0  0.998842  0
H  H66  1  0.83069814  0.20564421  0.90090250  1  0.048068  0  0.099803  0.105616  0  1.005909  0
H  H67  1  0.92139922  0.22984094  0.83856494  1  0.066645  0  0.101011  0.114281  0  1.000165  0
H  H68  1  0.70794544  0.95265926  0.21056751  1  0.638214  0  0.337987  0.387854  0  0.880058  0
H  H69  1  0.06206880  0.36488173  0.75425468  1  0.623497  0  0.354931  0.400312  0  0.842873  0
C  C70  1  0.53442372  0.12331122  0.48984858  1  1.512209  0  0.219875  0.612875  0  4.136559  0
C  C71  1  0.87907038  0.47023734  0.50859915  1  1.524114  0  0.219531  0.606449  0  4.137765  0
C  C72  1  0.58101375  0.09149665  0.28640888  1  -0.012368  0  0.009415  0.00869  0  3.906716  0
C  C73  1  0.90143761  0.42346334  0.71360759  1  -0.02232  0  0.003906  0.000292  0  3.929677  0
C  C74  1  0.75150853  0.29775185  0.93076447  1  0.988316  0  0.247648  0.252729  0  4.019635  0
C  C75  1  0.67521474  0.21762132  0.06404710  1  0.918563  0  0.245478  0.250939  0  4.000302  0
C  C76  1  0.46761640  0.21516106  0.52908261  1  0.002329  0  -0.073729  -0.058012  0  3.644684  0
C  C77  1  0.78552218  0.53685192  0.47288624  1  -0.026267  0  -0.074636  -0.064012  0  3.645838  0
C  C78  1  0.48088116  0.28434158  0.46160488  1  -0.016963  0  -0.071477  -0.101785  0  3.610434  0
C  C79  1  0.71583763  0.52002052  0.54178574  1  -0.037457  0  -0.071587  -0.101363  0  3.612533  0
C  C80  1  0.53013280  0.32692435  0.47380892  1  0.01301  0  -0.007763  -0.003127  0  3.626992  0
C  C81  1  0.67461397  0.47280765  0.52672348  1  0.025031  0  -0.007991  -0.021527  0  3.658858  0
C  C82  1  0.51651544  0.25723724  0.54109883  1  -0.028831  0  -0.077728  -0.07007  0  3.636485  0
C  C83  1  0.74477304  0.48991650  0.45806621  1  0.005176  0  -0.077741  -0.066275  0  3.637775  0
C  C84  1  0.58428178  0.23793187  0.49594004  1  -0.031771  0  -0.078064  -0.067418  0  3.655965  0
C  C85  1  0.76565425  0.42173986  0.50014610  1  -0.037539  0  -0.07808  -0.071433  0  3.652378  0
C  C86  1  0.59731037  0.30741327  0.42819527  1  -0.054172  0  -0.075189  -0.106976  0  3.618052  0
C  C87  1  0.69570889  0.40515001  0.56926368  1  -0.073301  0  -0.074756  -0.106027  0  3.622713  0
C  C88  1  0.54830431  0.26505761  0.41618379  1  0.023589  0  0.008078  0.113537  0  3.626364  0
C  C89  1  0.73664396  0.45214315  0.58412215  1  0.045786  0  0.008147  0.122118  0  3.605353  0
C  C90  1  0.53534817  0.19478786  0.48515645  1  -0.001814  0  -0.009177  -0.06487  0  3.645835  0
C  C91  1  0.80752875  0.46891146  0.51358762  1  0.001206  0  -0.00915  -0.046929  0  3.613373  0
C  C92  1  0.54733831  0.05714194  0.36515930  1  1.591654  0  0.218713  0.597527  0  4.183845  0
C  C93  1  0.93983575  0.46033578  0.63485868  1  1.613474  0  0.216456  0.595868  0  4.176144  0
C  C94  1  0.30810658  0.85971595  0.74707183  1  0.08669  0  -0.078062  -0.088477  0  3.961721  0
C  C95  1  0.14259151  0.69447585  0.25261705  1  -0.042235  0  -0.077776  -0.08882  0  3.962651  0
C  C96  1  0.27370976  0.82326191  0.81983821  1  -0.101851  0  -0.079567  -0.107089  0  3.963282  0
C  C97  1  0.17854867  0.72836192  0.17985492  1  0.015462  0  -0.080062  -0.106577  0  3.963069  0
C  C98  1  0.30775877  0.83146226  0.85555662  1  -0.012847  0  -0.003447  0.019088  0  3.997646  0
C  C99  1  0.16913673  0.69418944  0.14461471  1  -0.005069  0  -0.003338  0.017511  0  3.998259  0
C  C100  1  0.37720046  0.87567180  0.81733094  1  0.047388  0  -0.079578  -0.106903  0  3.970311  0
C  C101  1  0.12394527  0.62522952  0.18335407  1  -0.018537  0  -0.080087  -0.106273  0  3.96693  0
C  C102  1  0.41224884  0.91005158  0.74471182  1  -0.097515  0  -0.079263  -0.087016  0  3.964979  0
C  C103  1  0.09022367  0.59057574  0.25596492  1  0.017033  0  -0.079194  -0.087225  0  3.960825  0
C  C104  1  0.37781350  0.90283865  0.70908188  1  -0.021234  0  -0.010366  -0.015453  0  3.946087  0
C  C105  1  0.09889748  0.62505582  0.29109130  1  0.001672  0  -0.009815  -0.015012  0  3.946854  0
C  C106  1  0.20649961  0.72999708  0.06779064  1  0.932342  0  0.241979  0.251042  0  3.974226  0
C  C107  1  0.27136123  0.79422175  0.93237619  1  0.930475  0  0.241734  0.251244  0  3.974413  0
C  C108  1  0.50292228  0.80518547  0.45007638  1  -0.025908  0  -0.077188  -0.061403  0  3.642122  0
C  C109  1  0.19532173  0.50172127  0.55417301  1  -0.015201  0  -0.078714  -0.064382  0  3.647193  0
C  C110  1  0.46214490  0.72791353  0.51218690  1  -0.030268  0  -0.073047  -0.062281  0  3.635462  0
C  C111  1  0.27333397  0.53896374  0.49181004  1  -0.035538  0  -0.072409  -0.062179  0  3.632947  0
C  C112  1  0.52839920  0.69922179  0.47706303  1  -0.000401  0  -0.009251  -0.029649  0  3.649179  0
C  C113  1  0.29943003  0.47180621  0.52888345  1  -0.00477  0  -0.008918  -0.027986  0  3.647177  0
C  C114  1  0.53592208  0.88375514  0.49852211  1  1.521213  0  0.220036  0.615473  0  4.134452  0
C  C115  1  0.11536963  0.46839291  0.50656225  1  1.550316  0  0.220352  0.615578  0  4.134841  0
C  C116  1  0.56892947  0.77683544  0.41564276  1  -0.019319  0  -0.080604  -0.070992  0  3.639037  0
C  C117  1  0.22118759  0.43463656  0.59058324  1  -0.02285  0  -0.082572  -0.07517  0  3.659093  0
C  C118  1  0.60242785  0.78871093  0.45786884  1  -0.019986  0  -0.07721  -0.06899  0  3.640486  0
C  C119  1  0.20692327  0.39951235  0.55050919  1  -0.026665  0  -0.076752  -0.068638  0  3.636595  0
C  C120  1  0.56107285  0.71113860  0.52008710  1  -0.021117  0  -0.072715  -0.059836  0  3.632277  0
C  C121  1  0.28518553  0.43731461  0.48804587  1  -0.046108  0  -0.071933  -0.059294  0  3.626949  0
C  C122  1  0.49547863  0.73991775  0.55396364  1  -0.043255  0  -0.07046  -0.059053  0  3.624598  0
C  C123  1  0.25911500  0.50397581  0.45210849  1  0.002625  0  -0.069115  -0.057699  0  3.61888  0
C  C124  1  0.53720558  0.81838370  0.49096899  1  0.039634  0  -0.008026  -0.032375  0  3.654278  0
C  C125  1  0.17990922  0.46589576  0.51538700  1  0.008042  0  -0.008343  -0.030457  0  3.652887  0
C  C126  1  0.36802423  0.47932374  0.52971116  1  1.539794  0  0.218386  0.608165  0  4.145923  0
C  C127  1  0.51942622  0.63113383  0.47563436  1  1.515676  0  0.218143  0.607149  0  4.147652  0
C  C128  1  0.52219285  0.39684615  0.47168575  1  1.531645  0  0.214586  0.596026  0  4.150299  0
C  C129  1  0.60405372  0.47959436  0.53018007  1  1.512145  0  0.215025  0.600145  0  4.151698  0
C  C130  1  0.41684533  0.94053754  0.63092175  1  1.497624  0  0.21836  0.597491  0  4.144222  0
C  C131  1  0.06230732  0.58640139  0.36921641  1  1.487606  0  0.21964  0.59882  0  4.144132  0
C  C132  1  0.56185842  0.15500385  0.25516914  1  -0.108048  0  -0.076829  -0.094388  0  3.968418  0
C  C133  1  0.84241818  0.44724511  0.74634606  1  -0.023684  0  -0.076178  -0.095307  0  3.968531  0
C  C134  1  0.59420258  0.19530804  0.18307357  1  0.1034  0  -0.069075  -0.082016  0  3.975622  0
C  C135  1  0.79632944  0.40718223  0.81787248  1  -0.004465  0  -0.067426  -0.083857  0  3.972458  0
C  C136  1  0.64490218  0.17193841  0.14008040  1  0.000532  0  -0.000506  -0.034092  0  3.944503  0
C  C137  1  0.80674476  0.34118743  0.85700312  1  -0.00311  0  0.000951  -0.028047  0  3.943049  0
C  C138  1  0.66555266  0.10761986  0.16939997  1  -0.032564  0  0.016435  0.111618  0  3.865472  0
C  C139  1  0.86788578  0.31671708  0.82660984  1  -0.008678  0  0.017406  0.111894  0  3.879008  0
C  C140  1  0.63254623  0.06831389  0.24323858  1  -0.034917  0  -0.007525  -0.165434  0  3.852311  0
C  C141  1  0.91592890  0.36092626  0.75500925  1  -0.108891  0  -0.008777  -0.1701  0  3.884669  0
C  C142  1  0.56533686  0.26777953  0.34814543  1  -0.013587  0  -0.162364  -0.206184  0  3.987304  0
C  C143  1  0.57874411  0.34389928  0.29068961  1  -0.019762  0  -0.163108  -0.082622  0  3.970287  0
C  C144  1  0.59450647  0.34703611  0.22153879  1  -0.065344  0  -0.245129  -0.356457  0  3.989745  0
C  C145  1  0.73273703  0.43159343  0.65322490  1  -0.036493  0  -0.162051  -0.207366  0  3.982754  0
C  C146  1  0.65535598  0.41514990  0.71052820  1  0.010327  0  -0.162439  -0.082179  0  3.97158  0
C  C147  1  0.64936463  0.39656428  0.78127896  1  -0.057344  0  -0.246407  -0.354866  0  3.993114  0
C  C148  1  0.72277071  0.08428294  0.12300524  1  8.1e-05  0  -0.163525  -0.21416  0  3.960236  0
C  C149  1  0.69463251  0.03432082  0.10344793  1  -0.006337  0  -0.176479  -0.118496  0  3.965326  0
C  C150  1  0.75103448  0.99690762  0.07424801  1  -0.093948  0  -0.240095  -0.344472  0  3.967646  0
C  C151  1  0.88025023  0.24765059  0.87139091  1  -0.007342  0  -0.166997  -0.224639  0  3.943963  0
C  C152  1  0.90136496  0.25312157  0.92274259  1  0.005363  0  -0.165978  -0.080481  0  3.960787  0
C  C153  1  0.92491866  0.18686567  0.95885019  1  -0.043692  0  -0.243338  -0.354507  0  3.966708  0
S  S154  1  0.65854456  0.98882098  0.28648859  1  3.053423  0  0.550215  1.160719  0  5.942975  0
S  S155  1  0.00041675  0.34074637  0.71366032  1  3.036382  0  0.550099  1.15433  0  5.937408  0
N  N156  1  0.68254090  0.18803521  0.02285039  1  -0.547842  0  -0.147292  -0.131208  0  3.224617  0
N  N157  1  0.72231701  0.22897551  0.95445141  1  -0.587729  0  -0.15736  -0.153427  0  3.212896  0
N  N158  1  0.72396555  0.33067521  0.97019175  1  -0.547342  0  -0.15419  -0.15119  0  3.19322  0
N  N159  1  0.68542858  0.28958777  0.03839546  1  -0.545118  0  -0.15022  -0.141076  0  3.197687  0
N  N160  1  0.29674853  0.81832418  0.96401773  1  -0.555256  0  -0.155797  -0.149822  0  3.215505  0
N  N161  1  0.18161206  0.70534585  0.03618041  1  -0.521623  0  -0.156173  -0.150166  0  3.211878  0
N  N162  1  0.26440885  0.78510599  0.03281556  1  -0.569824  0  -0.156199  -0.14978  0  3.212832  0
N  N163  1  0.21515864  0.73737263  0.96733987  1  -0.614402  0  -0.157099  -0.151559  0  3.210151  0
O  O164  1  0.58733899  0.09481377  0.49182374  1  -1.130173  0  -0.320419  -0.529326  0  2.239274  0
O  O165  1  0.90747966  0.41698076  0.50748002  1  -1.125157  0  -0.320734  -0.530472  0  2.236242  0
O  O166  1  0.36747050  0.45259805  0.58899363  1  -1.130149  0  -0.32315  -0.535506  0  2.229132  0
O  O167  1  0.54573989  0.63225403  0.41598042  1  -1.121531  0  -0.321672  -0.533177  0  2.234467  0
O  O168  1  0.54956713  0.45414334  0.41156653  1  -1.136033  0  -0.32756  -0.54257  0  2.219276  0
O  O169  1  0.54704372  0.45123227  0.59079057  1  -1.136744  0  -0.328117  -0.542779  0  2.214532  0
O  O170  1  0.48715956  0.39523631  0.53042352  1  -1.180235  0  -0.314766  -0.57562  0  2.327909  0
O  O171  1  0.60473802  0.51456847  0.47206062  1  -1.173549  0  -0.314082  -0.574328  0  2.32904  0
O  O172  1  0.48082839  0.09510652  0.49080726  1  -1.17096  0  -0.317453  -0.57691  0  2.317389  0
O  O173  1  0.90739651  0.52434221  0.50687989  1  -1.18065  0  -0.317887  -0.577072  0  2.320356  0
O  O174  1  0.58820740  0.05469724  0.39079176  1  -1.151907  0  -0.302545  -0.556536  0  2.307262  0
O  O175  1  0.94750141  0.41990969  0.60765915  1  -1.162304  0  -0.301792  -0.561918  0  2.322963  0
O  O176  1  0.47835610  0.03900682  0.39858349  1  -1.102261  0  -0.317284  -0.526764  0  2.231995  0
O  O177  1  0.95650440  0.52918857  0.60214532  1  -1.123593  0  -0.317049  -0.52606  0  2.223007  0
O  O178  1  0.58970969  0.91293781  0.49791519  1  -1.127735  0  -0.320308  -0.528222  0  2.223731  0
O  O179  1  0.08719959  0.41512194  0.50575483  1  -1.128756  0  -0.319714  -0.528079  0  2.226342  0
O  O180  1  0.47982520  0.90763836  0.50541668  1  -1.179491  0  -0.316238  -0.573569  0  2.337095  0
O  O181  1  0.09204647  0.52483094  0.49913386  1  -1.178918  0  -0.316785  -0.572528  0  2.329382  0
O  O182  1  0.48485150  0.95837002  0.60051803  1  -1.178839  0  -0.312747  -0.574833  0  2.309319  0
O  O183  1  0.04562042  0.51840885  0.39959289  1  -1.168287  0  -0.31303  -0.574593  0  2.314179  0
O  O184  1  0.37879509  0.95261212  0.59955372  1  -1.131246  0  -0.320895  -0.533997  0  2.232013  0
O  O185  1  0.05002744  0.62467088  0.40049770  1  -1.132746  0  -0.320169  -0.533474  0  2.234554  0
O  O186  1  0.42361686  0.51305982  0.46979567  1  -1.17866  0  -0.320402  -0.579715  0  2.320296  0
O  O187  1  0.48500575  0.57532844  0.53520189  1  -1.179756  0  -0.322481  -0.581774  0  2.319713  0
O  O188  1  0.73049003  0.00904393  0.27279990  1  -1.273308  0  -0.315504  -0.528733  0  2.084638  0
O  O189  1  0.59992651  0.94665273  0.35563845  1  -1.296722  0  -0.265373  -0.478497  0  2.286354  0
O  O190  1  0.65975532  0.94067489  0.24974332  1  -1.195177  0  -0.354012  -0.52832  0  2.193398  0
O  O191  1  0.98962859  0.27616906  0.71056709  1  -1.267259  0  -0.29624  -0.489467  0  2.093056  0
O  O192  1  0.04996777  0.40625025  0.65378874  1  -1.304404  0  -0.283558  -0.517721  0  2.260524  0
O  O193  1  0.02867281  0.32128358  0.77051614  1  -1.167498  0  -0.35754  -0.538198  0  2.170496  0
