# generated using pymatgen
data_MnH16C24(NO2)2
_symmetry_space_group_name_H-M   'P 1'
_cell_length_a   8.38995913
_cell_length_b   11.97135767
_cell_length_c   11.97276723
_cell_angle_alpha   77.50043683
_cell_angle_beta   75.50077656
_cell_angle_gamma   75.50053852
_symmetry_Int_Tables_number   1
_chemical_formula_structural   MnH16C24(NO2)2
_chemical_formula_sum   'Mn2 H32 C48 N4 O8'
_cell_volume   1111.88790107
_cell_formula_units_Z   2
loop_
 _symmetry_equiv_pos_site_id
 _symmetry_equiv_pos_as_xyz
  1  'x, y, z'
loop_
 _atom_site_type_symbol
 _atom_site_label
 _atom_site_symmetry_multiplicity
 _atom_site_fract_x
 _atom_site_fract_y
 _atom_site_fract_z
 _atom_site_occupancy
 _atom_site_hle17_ddec_charge
 _atom_site_hle17_ddec_spin_density
 _atom_site_hle17_ddec_sum_bond_order
 _atom_site_hle17_magmom
 _atom_site_hse06_10hf_ddec_charge
 _atom_site_hse06_10hf_ddec_spin_density
 _atom_site_hse06_10hf_ddec_sum_bond_order
 _atom_site_hse06_10hf_magmom
 _atom_site_hse06_ddec_charge
 _atom_site_hse06_ddec_spin_density
 _atom_site_hse06_ddec_sum_bond_order
 _atom_site_hse06_magmom
 _atom_site_pbe_cm5_charge
 _atom_site_pbe_ddec_charge
 _atom_site_pbe_ddec_spin_density
 _atom_site_pbe_ddec_sum_bond_order
 _atom_site_pbe_magmom
Mn  Mn0  1  0.25005423  0.42252381  0.57751798  1  1.150078  4.791352  1.984386  4.658  0.987652  4.650063  2.519714  4.493  1.039332  4.722397  2.445954  4.573  0.635272  0.951102  4.567105  2.573915  4.4
Mn  Mn1  1  0.75003670  0.58846519  0.41153231  1  0.937415  1.254685  2.657507  1.239  0.868658  1.247255  3.191023  1.209  0.891136  1.130054  3.139517  1.1  0.715383  0.850506  1.318265  3.22243  1.275
H  H2  1  0.76558667  0.44829276  0.13082971  1  0.099292  -0.000164  0.968878  0.0  0.105923  -0.000242  1.03843  0.0  0.109615  -0.000176  1.035939  0.0  0.104485  0.103046  -0.000227  1.040455  0.0
H  H3  1  0.73442559  0.86910692  0.55168367  1  0.099052  -0.000162  0.968762  0.0  0.105698  -0.000241  1.03837  0.0  0.109395  -0.000175  1.035871  0.0  0.104294  0.102823  -0.000225  1.040418  0.0
H  H4  1  0.23524517  0.55533843  0.86329718  1  0.096004  3.6e-05  0.972135  0.0  0.102803  -0.000244  1.042368  0.0  0.106401  -0.000251  1.039997  0.0  0.101415  0.10011  -0.000225  1.04419  0.0
H  H5  1  0.26468780  0.13679828  0.44467647  1  0.095769  3.6e-05  0.972395  0.0  0.102737  -0.000244  1.042414  0.0  0.106334  -0.000251  1.04005  0.0  0.101411  0.100083  -0.000225  1.044181  0.0
H  H6  1  0.54981025  0.23707035  0.98327905  1  0.091069  6.7e-05  0.94122  0.0  0.104087  3e-05  0.996878  0.0  0.10786  2.4e-05  0.994062  0.0  0.1013  0.101122  3.8e-05  0.999481  0.0
H  H7  1  0.95022032  0.01672699  0.76284794  1  0.091331  6.8e-05  0.940954  0.0  0.104343  3e-05  0.996606  0.0  0.108093  2.3e-05  0.993814  0.0  0.10145  0.10136  3.7e-05  0.999222  0.0
H  H8  1  0.43072339  0.76094969  0.03163046  1  0.088276  0.000256  0.948232  0.0  0.101144  -6.9e-05  1.004999  0.0  0.10457  -3.9e-05  1.002708  0.0  0.099414  0.098635  -6.4e-05  1.006704  0.0
H  H9  1  0.06933355  0.96836559  0.23907543  1  0.088301  0.000257  0.948313  0.0  0.101176  -6.9e-05  1.005071  0.0  0.104607  -3.9e-05  1.002781  0.0  0.099392  0.098662  -6.4e-05  1.006766  0.0
H  H10  1  0.32275278  0.22747533  0.16303913  1  0.088639  -7.5e-05  0.961428  0.0  0.099809  -1.2e-05  1.01854  0.0  0.10181  -1.1e-05  1.019394  0.0  0.098111  0.098252  -2e-05  1.018212  0.0
H  H11  1  0.17724277  0.83694367  0.77249502  1  0.088371  -7.6e-05  0.961517  0.0  0.099574  -1.2e-05  1.018614  0.0  0.101558  -1.1e-05  1.019488  0.0  0.098018  0.098049  -2.1e-05  1.018245  0.0
H  H12  1  0.66595935  0.77612798  0.85878679  1  0.086653  -0.000141  0.953495  0.0  0.098443  8.4e-05  1.009469  0.0  0.101167  6e-05  1.009286  0.0  0.096944  0.096644  9.8e-05  1.009559  0.0
H  H13  1  0.83406618  0.14124810  0.22382807  1  0.08659  -0.000141  0.953379  0.0  0.098386  8.4e-05  1.009379  0.0  0.101112  6e-05  1.009197  0.0  0.096887  0.096603  9.9e-05  1.00945  0.0
H  H14  1  0.31799295  0.33094633  0.32457313  1  0.101056  -0.000612  0.997129  0.0  0.106307  -0.000835  1.067153  0.0  0.109785  -0.000744  1.064906  0.0  0.104693  0.103466  -0.000886  1.069245  0.0
H  H15  1  0.18197209  0.67535465  0.66905202  1  0.101259  -0.000611  0.997006  0.0  0.10639  -0.000835  1.067182  0.0  0.109872  -0.000744  1.064933  0.0  0.104676  0.103538  -0.000887  1.069276  0.0
H  H16  1  0.68395026  0.67994628  0.68844317  1  0.101126  5.1e-05  0.997469  0.0  0.107169  -9.1e-05  1.06575  0.0  0.11112  -5.9e-05  1.063046  0.0  0.101947  0.104215  -6.2e-05  1.067908  0.0
H  H17  1  0.81608387  0.31167944  0.31999853  1  0.100909  5.2e-05  0.997716  0.0  0.106978  -9e-05  1.065984  0.0  0.110942  -5.8e-05  1.063258  0.0  0.101843  0.104019  -5.9e-05  1.068164  0.0
H  H18  1  0.22410807  0.36442882  0.85020791  1  0.080068  1.3e-05  0.939675  0.0  0.088307  0.000512  1.002031  0.0  0.091213  0.000307  0.999283  0.0  0.116853  0.08616  0.000712  1.00412  0.001
H  H19  1  0.27586338  0.14978299  0.63557656  1  0.080275  1.3e-05  0.939661  0.0  0.088453  0.000512  1.002083  0.0  0.091366  0.000308  0.999324  0.0  0.116882  0.086306  0.000712  1.004174  0.001
H  H20  1  0.75451762  0.64665381  0.15159409  1  0.084927  0.00012  0.939777  0.001  0.093104  -0.000886  1.002836  0.0  0.095701  -0.000659  0.999041  0.0  0.120165  0.091467  -0.000942  1.005209  0.0
H  H21  1  0.74541686  0.84843937  0.35346629  1  0.084693  0.000119  0.94003  0.001  0.092878  -0.000886  1.003096  0.0  0.095423  -0.000659  0.99937  0.0  0.120153  0.091302  -0.000941  1.005408  0.0
H  H22  1  0.00702938  0.33310533  0.03436834  1  0.107799  0.000243  0.951878  0.0  0.119019  0.000284  1.009613  0.0  0.121646  0.000235  1.010002  0.0  0.1077  0.11721  0.000323  1.009463  0.0
H  H23  1  0.49291617  0.96561215  0.66688038  1  0.107756  0.000242  0.952368  0.0  0.118974  0.000284  1.010081  0.0  0.121597  0.000235  1.010471  0.0  0.107704  0.117175  0.000322  1.009925  0.0
H  H24  1  0.97445185  0.66711075  0.97057086  1  0.102861  -0.000286  0.954649  -0.001  0.114004  0.000119  1.013425  0.0  0.116321  5.4e-05  1.014013  0.0  0.104053  0.112612  0.000128  1.012914  0.0
H  H25  1  0.52550356  0.02949819  0.33300675  1  0.103065  -0.000287  0.95457  -0.001  0.114274  0.00012  1.013218  0.0  0.116604  5.5e-05  1.013784  0.0  0.104061  0.112883  0.00013  1.012713  0.0
H  H26  1  0.64807649  0.37653430  0.81694682  1  0.105795  0.00019  0.958364  0.0  0.114608  0.000274  1.021706  0.0  0.117282  0.000185  1.021709  0.0  0.106401  0.112684  0.000368  1.021889  0.0
H  H27  1  0.85191248  0.18305191  0.62343769  1  0.105869  0.00019  0.95834  0.0  0.114683  0.000274  1.021673  0.0  0.117356  0.000185  1.021673  0.0  0.106465  0.112762  0.000367  1.021856  0.0
H  H28  1  0.33059416  0.62311878  0.18990050  1  0.100222  -0.001032  0.965241  -0.001  0.10869  -0.000245  1.029902  0.0  0.111135  -0.000122  1.029827  0.0  0.102878  0.107057  -0.000311  1.030044  0.0
H  H29  1  0.16941678  0.81010351  0.37682363  1  0.100308  -0.001032  0.965289  -0.001  0.108837  -0.000246  1.029923  0.0  0.111283  -0.000122  1.029843  0.0  0.102917  0.107203  -0.000312  1.030059  0.0
H  H30  1  0.87721016  0.41112233  0.64315155  1  0.093556  8.5e-05  0.963962  0.0  0.096922  0.000555  1.033186  0.001  0.101091  0.000373  1.029462  0.0  0.123019  0.093709  0.000727  1.036121  0.001
H  H31  1  0.62276423  0.35688678  0.58887184  1  0.093449  8.8e-05  0.963898  0.0  0.096898  0.000559  1.033066  0.001  0.101072  0.000376  1.029336  0.0  0.122954  0.093674  0.000732  1.036013  0.001
H  H32  1  0.10426718  0.59393088  0.36053222  1  0.097523  0.000203  1.000851  0.001  0.101835  -0.000773  1.067652  0.0  0.105222  -0.000659  1.063688  0.0  0.124283  0.099389  -0.000789  1.070535  0.0
H  H33  1  0.39573329  0.63947723  0.40604144  1  0.097338  0.000204  1.001123  0.001  0.101719  -0.000772  1.067776  0.0  0.105091  -0.000658  1.063833  0.0  0.124231  0.099329  -0.000787  1.070587  0.0
C  C34  1  0.53306819  0.46021597  0.33287908  1  0.645467  -0.001124  3.861081  0.003  0.592601  0.007349  4.159031  0.01  0.630804  0.007153  4.150092  0.009  0.225206  0.565034  0.009176  4.165162  0.011
C  C35  1  0.96692209  0.66707027  0.53973111  1  0.645359  -0.001187  3.862992  0.003  0.592516  0.007301  4.160564  0.01  0.630733  0.007135  4.151603  0.009  0.225298  0.564937  0.0091  4.166686  0.011
C  C36  1  0.47563748  0.55008327  0.66579233  1  0.64369  -0.000517  3.889058  0.0  0.597376  0.003794  4.180658  0.004  0.631072  0.00214  4.174637  0.003  0.22335  0.57406  0.006478  4.183367  0.006
C  C37  1  0.02438730  0.33425352  0.44993780  1  0.643977  -0.000568  3.888506  0.0  0.597708  0.003758  4.180033  0.004  0.63141  0.002104  4.174027  0.003  0.223256  0.574409  0.006441  4.182757  0.006
C  C38  1  0.54089832  0.39586994  0.23700323  1  -0.070149  -0.001226  3.785342  0.0  -0.046461  -0.001753  4.02014  -0.001  -0.054657  -0.001564  4.041484  -0.001  -0.019258  -0.041848  -0.002452  4.007453  -0.001
C  C39  1  0.95910965  0.76296471  0.60409054  1  -0.070893  -0.001208  3.786847  0.0  -0.046793  -0.001748  4.021008  -0.001  -0.054998  -0.001558  4.042362  -0.001  -0.019393  -0.042194  -0.00245  4.008331  -0.001
C  C40  1  0.46168066  0.61188323  0.76631915  1  -0.069935  0.006664  3.766497  0.007  -0.046711  0.002176  4.000678  0.002  -0.053754  0.002077  4.021167  0.002  -0.021321  -0.042473  0.001991  3.987241  0.002
C  C41  1  0.03828961  0.23373950  0.38812486  1  -0.070578  0.006672  3.766107  0.007  -0.04744  0.002181  4.000351  0.002  -0.054479  0.002085  4.020826  0.002  -0.02154  -0.043271  0.001994  3.987031  0.002
C  C42  1  0.66969526  0.39907818  0.13730977  1  -0.107189  -0.000979  3.710567  -0.001  -0.138163  0.001685  3.956447  0.001  -0.137634  0.001673  3.975057  0.001  -0.082476  -0.138544  0.002649  3.944755  0.002
C  C43  1  0.83033463  0.86265983  0.60087797  1  -0.106255  -0.001008  3.710672  -0.001  -0.137417  0.001673  3.956401  0.001  -0.136884  0.001667  3.975012  0.001  -0.082064  -0.137821  0.002629  3.944731  0.002
C  C44  1  0.32799070  0.60474427  0.86331370  1  -0.112093  -0.013808  3.700605  -0.009  -0.143163  -0.006861  3.947585  -0.004  -0.142063  -0.004885  3.965378  -0.003  -0.085014  -0.143425  -0.007032  3.93557  -0.004
C  C45  1  0.17196328  0.13673218  0.39527047  1  -0.111571  -0.013827  3.70023  -0.009  -0.142597  -0.006876  3.947248  -0.004  -0.141503  -0.0049  3.965048  -0.003  -0.084746  -0.142854  -0.007041  3.935236  -0.004
C  C46  1  0.67363653  0.34282301  0.04547925  1  0.035512  0.000851  3.804938  0.001  0.053351  -0.000671  4.03868  -0.001  0.050812  -0.000926  4.062277  -0.001  -0.010846  0.054717  -0.000972  4.023299  -0.001
C  C47  1  0.82636155  0.95449759  0.65714116  1  0.034697  0.000866  3.804758  0.001  0.052535  -0.000665  4.038573  -0.001  0.049993  -0.000922  4.062166  -0.001  -0.011385  0.053911  -0.000966  4.023172  -0.001
C  C48  1  0.31431050  0.65784234  0.95986670  1  0.038725  0.006573  3.791542  0.008  0.058078  0.000865  4.025339  0.003  0.055085  0.001435  4.047535  0.002  -0.009757  0.059587  -0.000299  4.010151  0.002
C  C49  1  0.18566727  0.04016502  0.34218214  1  0.03913  0.006588  3.790952  0.008  0.057976  0.000871  4.025261  0.003  0.054978  0.001441  4.047456  0.002  -0.010027  0.059482  -0.000296  4.010091  0.002
C  C50  1  0.54669519  0.28183346  0.05438002  1  -0.102309  -0.004178  3.73357  -0.003  -0.125801  -0.000821  3.979582  -0.001  -0.124945  0.000826  3.997243  0.001  -0.088706  -0.127342  -0.00242  3.969023  -0.001
C  C51  1  0.95331964  0.94559927  0.71811526  1  -0.102185  -0.004222  3.733367  -0.003  -0.125685  -0.000851  3.97936  -0.001  -0.124798  0.000815  3.997019  0.001  -0.088576  -0.127224  -0.002472  3.968801  -0.002
C  C52  1  0.43939152  0.71861458  0.95756467  1  -0.108162  -0.013377  3.743776  -0.009  -0.131031  -0.00611  3.989265  -0.004  -0.130536  -0.004347  4.007684  -0.003  -0.092559  -0.131108  -0.005656  3.976801  -0.004
C  C53  1  0.06063128  0.04247055  0.28138251  1  -0.108674  -0.013408  3.743395  -0.009  -0.131411  -0.006128  3.98899  -0.004  -0.130923  -0.004365  4.007421  -0.003  -0.092745  -0.131464  -0.005672  3.976499  -0.004
C  C54  1  0.41969505  0.27648326  0.15490883  1  -0.077327  0.001404  3.787545  0.001  -0.086254  -1.4e-05  4.037964  0.0  -0.090373  -0.00061  4.060148  0.0  -0.09561  -0.083666  0.00018  4.024101  0.0
C  C55  1  0.08032808  0.84506159  0.72345680  1  -0.07694  0.001423  3.787726  0.001  -0.085865  -8e-06  4.038084  0.0  -0.089965  -0.000603  4.060264  0.0  -0.095415  -0.083311  0.000186  4.024183  0.0
C  C56  1  0.57136851  0.72730792  0.86051752  1  -0.079923  0.006442  3.800269  0.006  -0.088434  0.001481  4.050857  0.002  -0.0921  0.001407  4.071325  0.001  -0.095551  -0.086051  0.001012  4.036835  0.001
C  C57  1  0.92865810  0.13954064  0.27265259  1  -0.079813  0.00646  3.799045  0.006  -0.088385  0.001486  4.049654  0.002  -0.092058  0.001414  4.070128  0.001  -0.095456  -0.086006  0.001017  4.035615  0.001
C  C58  1  0.41615702  0.33354514  0.24575696  1  -0.061853  -0.003711  3.707999  -0.002  -0.090259  -0.001047  3.95791  0.0  -0.088871  0.000459  3.97722  0.001  -0.084067  -0.091953  -0.00264  3.946503  -0.001
C  C59  1  0.08384302  0.75419760  0.66641802  1  -0.062247  -0.003751  3.708718  -0.002  -0.090758  -0.001073  3.958547  0.0  -0.089362  0.000449  3.977852  0.001  -0.084397  -0.092461  -0.002685  3.947163  -0.001
C  C60  1  0.58256947  0.67433790  0.76503233  1  -0.065407  -0.012747  3.728145  -0.008  -0.093679  -0.005491  3.978096  -0.003  -0.090603  -0.003554  3.994537  -0.002  -0.087533  -0.095658  -0.00551  3.967234  -0.003
C  C61  1  0.91743087  0.23506227  0.32562130  1  -0.064803  -0.012781  3.726956  -0.008  -0.093018  -0.005507  3.976714  -0.003  -0.089933  -0.00357  3.993139  -0.002  -0.08722  -0.094987  -0.005521  3.965902  -0.003
C  C62  1  0.09434651  0.36617028  0.84764962  1  0.124771  0.002586  3.739688  0.003  0.097328  0.004952  3.990258  0.004  0.104002  0.004376  4.008426  0.004  0.047028  0.092926  0.005456  3.977974  0.005
C  C63  1  0.40564376  0.15233633  0.63381871  1  0.124473  0.002596  3.739796  0.003  0.096966  0.004964  3.99041  0.004  0.103644  0.004387  4.008578  0.004  0.046987  0.092558  0.005469  3.978139  0.005
C  C64  1  0.88413799  0.64168127  0.15617598  1  0.110146  -0.031038  3.686719  -0.019  0.076842  -0.02252  3.947512  -0.012  0.090274  -0.017967  3.957478  -0.01  0.034477  0.068028  -0.021599  3.940194  -0.011
C  C65  1  0.61583303  0.84385188  0.35839039  1  0.110533  -0.031019  3.686584  -0.019  0.077341  -0.022506  3.947266  -0.012  0.090737  -0.017964  3.95736  -0.009  0.034505  0.068485  -0.021575  3.939938  -0.011
C  C66  1  0.97340224  0.34934211  0.94915744  1  -0.184823  -0.001185  3.740693  -0.001  -0.198558  -0.001435  3.979773  -0.001  -0.207832  -0.002111  4.003083  -0.001  -0.091606  -0.192532  -0.00107  3.964007  -0.001
C  C67  1  0.52657957  0.05080767  0.65064950  1  -0.184764  -0.00119  3.740382  -0.001  -0.198511  -0.00144  3.979545  -0.001  -0.207778  -0.002118  4.002847  -0.001  -0.091663  -0.192497  -0.001074  3.963794  -0.001
C  C68  1  0.00869483  0.65269050  0.05541876  1  -0.176296  0.017182  3.740639  0.017  -0.190735  0.004509  3.985383  0.006  -0.200094  0.005486  4.003984  0.006  -0.091375  -0.184726  0.002009  3.972136  0.004
C  C69  1  0.49127668  0.94463005  0.34741613  1  -0.176535  0.01719  3.740261  0.017  -0.191171  0.004519  3.984951  0.006  -0.20051  0.005497  4.0035  0.006  -0.091419  -0.185163  0.002016  3.971743  0.004
C  C70  1  0.80826209  0.35254819  0.94059197  1  0.106686  0.00208  3.791939  0.002  0.118044  0.004026  4.017897  0.003  0.122504  0.003794  4.041868  0.003  0.011677  0.115359  0.004094  4.001429  0.003
C  C71  1  0.69173707  0.05938555  0.64742698  1  0.106993  0.002089  3.791362  0.002  0.118374  0.004039  4.017316  0.003  0.122838  0.003805  4.041278  0.003  0.011963  0.115688  0.004109  4.000856  0.003
C  C72  1  0.17525244  0.64804273  0.06270656  1  0.089955  -0.044232  3.784189  -0.03  0.097888  -0.032157  4.014494  -0.02  0.107665  -0.022559  4.034339  -0.014  -0.001345  0.092297  -0.033685  4.00033  -0.021
C  C73  1  0.32472207  0.93731441  0.35201179  1  0.089412  -0.044251  3.78384  -0.03  0.097814  -0.032184  4.013806  -0.02  0.107607  -0.022584  4.033635  -0.014  -0.001207  0.092214  -0.033705  3.999656  -0.021
C  C74  1  0.77464761  0.37124656  0.82839840  1  -0.167156  -0.001384  3.717894  -0.001  -0.183931  -0.001548  3.964716  -0.001  -0.19293  -0.002202  3.987695  -0.001  -0.085216  -0.178029  -0.001189  3.949278  -0.001
C  C75  1  0.72534081  0.17159845  0.62873618  1  -0.167248  -0.001392  3.718108  -0.001  -0.184041  -0.001557  3.964959  -0.001  -0.193038  -0.002212  3.987937  -0.001  -0.085257  -0.178143  -0.001196  3.949526  -0.001
C  C76  1  0.20460827  0.63068339  0.17622877  1  -0.16077  0.013619  3.738754  0.014  -0.176742  0.003054  3.988763  0.005  -0.18605  0.004931  4.008053  0.006  -0.088622  -0.170915  6.1e-05  3.975457  0.003
C  C77  1  0.29541187  0.82376942  0.36932050  1  -0.160768  0.013628  3.73879  0.014  -0.176958  0.003056  3.988626  0.005  -0.186274  0.004935  4.007911  0.006  -0.088722  -0.171121  5.9e-05  3.97532  0.003
C  C78  1  0.90176464  0.39019179  0.73137929  1  0.136595  0.002442  3.682734  0.003  0.107333  0.004984  3.935819  0.004  0.114913  0.004444  3.95168  0.004  0.049933  0.102086  0.005406  3.925557  0.005
C  C79  1  0.59824723  0.26862495  0.60979463  1  0.13687  0.002453  3.682643  0.003  0.107501  0.005  3.935693  0.004  0.115081  0.004459  3.951552  0.004  0.050034  0.102266  0.005424  3.925429  0.005
C  C80  1  0.07704969  0.61568624  0.27328740  1  0.113131  -0.034353  3.649467  -0.022  0.078254  -0.019044  3.909037  -0.01  0.091873  -0.014431  3.917818  -0.008  0.03504  0.069492  -0.018487  3.90273  -0.01
C  C81  1  0.42300745  0.72671045  0.38428756  1  0.112998  -0.03435  3.649694  -0.022  0.078209  -0.019053  3.909226  -0.01  0.091844  -0.014443  3.917983  -0.008  0.034927  0.069421  -0.018488  3.902874  -0.01
N  N82  1  0.05953950  0.38758791  0.74033137  1  -0.327933  0.028728  3.246159  0.015  -0.262593  0.032305  3.523163  0.014  -0.280191  0.02921  3.536515  0.012  -0.321859  -0.250276  0.034638  3.514513  0.017
N  N83  1  0.44046691  0.25966066  0.61238913  1  -0.328059  0.028733  3.246411  0.015  -0.262532  0.032296  3.52329  0.014  -0.280136  0.0292  3.53664  0.012  -0.321955  -0.250215  0.034628  3.514648  0.017
N  N84  1  0.91534467  0.62202291  0.26585645  1  -0.275779  -0.018798  3.322847  -0.017  -0.219008  -0.021688  3.610186  -0.019  -0.238869  -0.009856  3.626086  -0.009  -0.345973  -0.20468  -0.029327  3.59719  -0.026
N  N85  1  0.58471011  0.73414186  0.37797406  1  -0.275552  -0.018742  3.322781  -0.017  -0.218926  -0.021627  3.610202  -0.019  -0.238735  -0.009804  3.626033  -0.009  -0.34582  -0.204615  -0.029256  3.597264  -0.026
O  O86  1  0.40333504  0.46784988  0.41407359  1  -0.62495  0.027411  2.142344  0.012  -0.559272  0.035786  2.420045  0.017  -0.587555  0.033574  2.403277  0.015  -0.304016  -0.53882  0.039199  2.431915  0.021
O  O87  1  0.09664417  0.58585714  0.53212393  1  -0.624873  0.027412  2.142871  0.012  -0.559078  0.03578  2.420415  0.017  -0.587329  0.033571  2.403597  0.015  -0.304199  -0.538619  0.039195  2.432273  0.021
O  O88  1  0.59726838  0.55686457  0.57855291  1  -0.590162  0.005131  2.131797  0.005  -0.542194  0.012114  2.407682  0.012  -0.567599  0.00927  2.397981  0.009  -0.298218  -0.52299  0.016002  2.41266  0.015
O  O89  1  0.90273602  0.42151080  0.44308715  1  -0.590378  0.005183  2.13152  0.005  -0.542281  0.012179  2.407357  0.012  -0.567735  0.009317  2.397683  0.009  -0.298244  -0.523029  0.016099  2.412322  0.015
O  O90  1  0.65895373  0.50744132  0.32251378  1  -0.590424  0.007247  2.219252  0.004  -0.543468  0.017064  2.510228  0.013  -0.577998  0.013341  2.503758  0.009  -0.300247  -0.517493  0.021084  2.511437  0.016
O  O91  1  0.84109521  0.67744224  0.49251033  1  -0.590006  0.007309  2.221684  0.004  -0.54311  0.017132  2.51268  0.013  -0.577635  0.013398  2.506182  0.009  -0.300189  -0.517134  0.02116  2.513896  0.016
O  O92  1  0.36307454  0.49096645  0.67958634  1  -0.66057  0.032349  2.130083  0.018  -0.601011  0.037899  2.413825  0.02  -0.631595  0.034661  2.399981  0.017  -0.314353  -0.577696  0.041352  2.421965  0.024
O  O93  1  0.13690569  0.32045469  0.50906215  1  -0.660466  0.032294  2.13055  0.018  -0.601072  0.037859  2.414296  0.02  -0.631659  0.034626  2.400471  0.017  -0.314162  -0.577761  0.041305  2.422438  0.024
