# generated using pymatgen
data_ZnH16C16N6O5
_symmetry_space_group_name_H-M   'P 1'
_cell_length_a   9.04306124
_cell_length_b   10.38976513
_cell_length_c   12.66504879
_cell_angle_alpha   112.25851720
_cell_angle_beta   93.89436010
_cell_angle_gamma   113.18827517
_symmetry_Int_Tables_number   1
_chemical_formula_structural   ZnH16C16N6O5
_chemical_formula_sum   'Zn2 H32 C32 N12 O10'
_cell_volume   978.80512511
_cell_formula_units_Z   2
loop_
 _symmetry_equiv_pos_site_id
 _symmetry_equiv_pos_as_xyz
  1  'x, y, z'
loop_
 _atom_site_type_symbol
 _atom_site_label
 _atom_site_symmetry_multiplicity
 _atom_site_fract_x
 _atom_site_fract_y
 _atom_site_fract_z
 _atom_site_occupancy
 _atom_site_hle17_bader_spin_density
 _atom_site_hle17_ddec_charge
 _atom_site_hle17_ddec_spin_density
 _atom_site_hle17_ddec_sum_bond_order
 _atom_site_hle17_magmom
 _atom_site_hse06_10hf_bader_spin_density
 _atom_site_hse06_10hf_ddec_charge
 _atom_site_hse06_10hf_ddec_spin_density
 _atom_site_hse06_10hf_ddec_sum_bond_order
 _atom_site_hse06_10hf_magmom
 _atom_site_hse06_bader_spin_density
 _atom_site_hse06_ddec_charge
 _atom_site_hse06_ddec_spin_density
 _atom_site_hse06_ddec_sum_bond_order
 _atom_site_hse06_magmom
 _atom_site_pbe_bader_spin_density
 _atom_site_pbe_cm5_charge
 _atom_site_pbe_ddec_charge
 _atom_site_pbe_ddec_spin_density
 _atom_site_pbe_ddec_sum_bond_order
 _atom_site_pbe_magmom
Zn  Zn0  1  0.12200856  0.08702037  0.17364498  1  0  1.02543  0  1.851185  0  0  0.840562  0  2.32368  0  0  0.886719  0  2.269352  0  0  0.700522  0.804503  0  2.364457  0
Zn  Zn1  1  0.87799261  0.91298203  0.82635584  1  0  1.025404  0  1.851243  0  0  0.840545  0  2.323745  0  0  0.886693  0  2.26941  0  0  0.70053  0.804475  0  2.364516  0
H  H2  1  0.08828276  0.59052570  0.21257708  1  0  0.108468  0  0.947048  0  0  0.116286  0  1.010653  0  0  0.121197  0  1.00629  0  0  0.102076  0.112719  0  1.014092  0
H  H3  1  0.91171507  0.40947197  0.78741899  1  0  0.108444  0  0.947063  0  0  0.116317  0  1.010601  0  0  0.121226  0  1.006241  0  0  0.102113  0.11275  0  1.014041  0
H  H4  1  0.28605809  0.33558393  0.96038570  1  0  0.115759  0  0.953653  0  0  0.123817  0  1.019901  0  0  0.127746  0  1.017137  0  0  0.106262  0.121126  0  1.021691  0
H  H5  1  0.71393749  0.66441602  0.03961095  1  0  0.115726  0  0.953696  0  0  0.123812  0  1.019917  0  0  0.12774  0  1.017152  0  0  0.106275  0.121119  0  1.021711  0
H  H6  1  0.30507702  0.76477518  0.97414065  1  0  0.110146  0  0.966796  0  0  0.118731  0  1.034197  0  0  0.122519  0  1.031253  0  0  0.104155  0.116094  0  1.036129  0
H  H7  1  0.69492583  0.23522844  0.02586220  1  0  0.110211  0  0.966712  0  0  0.118776  0  1.034143  0  0  0.122564  0  1.031199  0  0  0.10416  0.116138  0  1.036075  0
H  H8  1  0.31498483  0.64477841  0.78368506  1  0  0.073005  0  0.93609  0  0  0.091823  0  0.998887  0  0  0.092226  0  0.998137  0  0  0.093485  0.091477  0  0.999433  0
H  H9  1  0.68501854  0.35522634  0.21631578  1  0  0.07307  0  0.936058  0  0  0.091892  0  0.998849  0  0  0.092296  0  0.998099  0  0  0.093517  0.091546  0  0.999392  0
H  H10  1  0.47282057  0.58725233  0.74212690  1  0  0.092483  0  0.970406  0  0  0.101333  0  1.048246  0  0  0.10285  0  1.047415  0  0  0.096983  0.100244  0  1.048798  0
H  H11  1  0.52718617  0.41275249  0.25787491  1  0  0.092446  0  0.970463  0  0  0.101311  0  1.048282  0  0  0.102828  0  1.04745  0  0  0.096984  0.100223  0  1.048834  0
H  H12  1  0.51876232  0.74556260  0.88388373  1  0  0.088852  0  0.932692  0  0  0.106769  0  0.994716  0  0  0.107642  0  0.993874  0  0  0.098174  0.106028  0  0.995505  0
H  H13  1  0.48124219  0.25444219  0.11611876  1  0  0.088843  0  0.932717  0  0  0.10677  0  0.994729  0  0  0.107641  0  0.993888  0  0  0.098173  0.10603  0  0.995517  0
H  H14  1  0.89154143  0.84076108  0.25941408  1  0  0.134712  0  0.946797  0  0  0.142426  0  1.008071  0  0  0.1462  0  1.003016  0  0  0.147883  0.139627  0  1.011474  0
H  H15  1  0.10845976  0.15923901  0.74058604  1  0  0.134683  0  0.946752  0  0  0.142387  0  1.008055  0  0  0.146162  0  1.002997  0  0  0.147877  0.139591  0  1.011456  0
H  H16  1  0.79454177  0.15989752  0.17750414  1  0  0.103124  0  0.935425  0  0  0.112873  0  0.995146  0  0  0.114899  0  0.992689  0  0  0.138781  0.111204  0  0.997129  0
H  H17  1  0.20545887  0.84010141  0.82249560  1  0  0.103117  0  0.935441  0  0  0.112864  0  0.995165  0  0  0.11489  0  0.992709  0  0  0.138775  0.111195  0  0.997149  0
H  H18  1  0.62984489  0.71677949  0.31076694  1  0  0.087811  0  0.949629  0  0  0.097468  0  1.019577  0  0  0.099589  0  1.016785  0  0  0.117254  0.09619  0  1.020774  0
H  H19  1  0.37015467  0.28321945  0.68923512  1  0  0.087782  0  0.949631  0  0  0.097426  0  1.019585  0  0  0.099549  0  1.016789  0  0  0.117228  0.096148  0  1.020781  0
H  H20  1  0.46361264  0.68054719  0.20406525  1  0  0.082261  0  0.970145  0  0  0.093786  0  1.040434  0  0  0.09293  0  1.043013  0  0  0.110409  0.094495  0  1.037941  0
H  H21  1  0.53638747  0.31945058  0.79593490  1  0  0.082258  0  0.970168  0  0  0.093778  0  1.040454  0  0  0.092923  0  1.043032  0  0  0.110418  0.094488  0  1.037962  0
H  H22  1  0.39134719  0.86506871  0.34753686  1  0  0.095578  0  0.946774  0  0  0.109393  0  1.013812  0  0  0.110013  0  1.014382  0  0  0.100343  0.108824  0  1.013454  0
H  H23  1  0.60864901  0.13492783  0.65246194  1  0  0.095611  0  0.946818  0  0  0.109414  0  1.013848  0  0  0.110035  0  1.014416  0  0  0.100358  0.108846  0  1.013492  0
H  H24  1  0.58339551  0.94837183  0.45306876  1  0  0.076652  0  0.94079  0  0  0.09366  0  1.003369  0  0  0.094477  0  1.003671  0  0  0.09898  0.093153  0  1.002926  0
H  H25  1  0.41660011  0.05162586  0.54693036  1  0  0.076678  0  0.940806  0  0  0.093678  0  1.003389  0  0  0.094497  0  1.003689  0  0  0.098999  0.093171  0  1.002943  0
H  H26  1  0.32550478  0.76819143  0.49072361  1  0  0.085355  0  0.904387  0  0  0.104305  0  0.959286  0  0  0.104866  0  0.959265  0  0  0.121136  0.103766  0  0.959507  0
H  H27  1  0.67449256  0.23180048  0.50927305  1  0  0.085329  0  0.904356  0  0  0.104294  0  0.959235  0  0  0.104848  0  0.959223  0  0  0.121143  0.103757  0  0.959454  0
H  H28  1  0.31813482  0.60789834  0.36734329  1  0  0.106207  0  0.931547  0  0  0.120463  0  0.993916  0  0  0.121817  0  0.993225  0  0  0.119767  0.119243  0  0.994704  0
H  H29  1  0.68186918  0.39210064  0.63265662  1  0  0.106224  0  0.931504  0  0  0.120485  0  0.993867  0  0  0.121841  0  0.993171  0  0  0.119766  0.119266  0  0.994654  0
H  H30  1  0.53516440  0.88040588  0.68574546  1  0  0.109673  0  0.947958  0  0  0.111791  0  1.024882  0  0  0.11529  0  1.020695  0  0  0.141592  0.109215  0  1.027811  0
H  H31  1  0.46483178  0.11959063  0.31425176  1  0  0.109702  0  0.947978  0  0  0.111805  0  1.024913  0  0  0.115304  0  1.020726  0  0  0.141604  0.109229  0  1.02784  0
H  H32  1  0.80921325  0.63297858  0.56181506  1  0  0.106906  0  0.90899  0  0  0.11997  0  0.962025  0  0  0.122051  0  0.959774  0  0  0.14319  0.118237  0  0.963914  0
H  H33  1  0.19078910  0.36702393  0.43819058  1  0  0.106833  0  0.908962  0  0  0.119893  0  0.962014  0  0  0.121981  0  0.959754  0  0  0.14316  0.118158  0  0.963907  0
C  C34  1  0.19431652  0.69017031  0.09800720  1  0  -0.044653  0  3.786921  0  0  -0.01812  0  4.020092  0  0  -0.025227  0  4.044029  0  0  -0.020978  -0.013483  0  4.004606  0
C  C35  1  0.80568186  0.30983088  0.90199233  1  0  -0.044609  0  3.786799  0  0  -0.018062  0  4.020008  0  0  -0.025167  0  4.043943  0  0  -0.02095  -0.013427  0  4.004524  0
C  C36  1  0.14796227  0.57760923  0.14010383  1  0  -0.102707  0  3.731111  0  0  -0.140382  0  3.981084  0  0  -0.140228  0  4.001487  0  0  -0.090546  -0.140933  0  3.968533  0
C  C37  1  0.85203277  0.42238724  0.85989174  1  0  -0.102615  0  3.731141  0  0  -0.14033  0  3.981123  0  0  -0.140179  0  4.001528  0  0  -0.090551  -0.140883  0  3.968575  0
C  C38  1  0.18040563  0.44911188  0.08993882  1  0  -0.051862  0  3.781534  0  0  -0.024237  0  4.013047  0  0  -0.031101  0  4.035151  0  0  -0.02139  -0.019871  0  3.998978  0
C  C39  1  0.81959224  0.55088350  0.91005813  1  0  -0.052061  0  3.78175  0  0  -0.024444  0  4.013315  0  0  -0.031307  0  4.035418  0  0  -0.021485  -0.020077  0  3.999244  0
C  C40  1  0.25726669  0.43335737  0.99712755  1  0  -0.159284  0  3.68422  0  0  -0.200038  0  3.947155  0  0  -0.200148  0  3.962408  0  0  -0.092447  -0.199132  0  3.93659  0
C  C41  1  0.74273001  0.56664261  0.00286995  1  0  -0.159164  0  3.684227  0  0  -0.199954  0  3.947169  0  0  -0.200063  0  3.962421  0  0  -0.092421  -0.199047  0  3.936596  0
C  C42  1  0.30042241  0.54475735  0.95306388  1  0  0.256467  0  3.814518  0  0  0.252877  0  4.074905  0  0  0.261946  0  4.091218  0  0  0.07968  0.246282  0  4.063533  0
C  C43  1  0.69957655  0.45524271  0.04693612  1  0  0.256391  0  3.814613  0  0  0.252803  0  4.074983  0  0  0.26187  0  4.091298  0  0  0.079637  0.246228  0  4.063608  0
C  C44  1  0.27049492  0.67428709  0.00418183  1  0  -0.190307  0  3.716004  0  0  -0.227277  0  3.971418  0  0  -0.228991  0  3.989521  0  0  -0.100601  -0.225206  0  3.958608  0
C  C45  1  0.72950404  0.32571531  0.99582046  1  0  -0.190358  0  3.715918  0  0  -0.227324  0  3.97135  0  0  -0.229039  0  3.989452  0  0  -0.100586  -0.225257  0  3.958551  0
C  C46  1  0.16476952  0.83020964  0.15585662  1  0  0.632132  0  3.921439  0  0  0.584604  0  4.214685  0  0  0.617588  0  4.208959  0  0  0.196652  0.561801  0  4.218159  0
C  C47  1  0.83522997  0.16979156  0.84414218  1  0  0.632183  0  3.921353  0  0  0.584608  0  4.214675  0  0  0.617591  0  4.20895  0  0  0.196644  0.561805  0  4.218151  0
C  C48  1  0.13970964  0.33410174  0.14084517  1  0  0.642986  0  3.904842  0  0  0.596878  0  4.191719  0  0  0.630509  0  4.185106  0  0  0.199363  0.573641  0  4.19572  0
C  C49  1  0.86028709  0.66589595  0.85915322  1  0  0.643033  0  3.904752  0  0  0.59691  0  4.191634  0  0  0.630539  0  4.185023  0  0  0.1994  0.573671  0  4.195634  0
C  C50  1  0.42232298  0.63196855  0.81596986  1  0  -0.079834  0  3.65198  0  0  -0.174901  0  3.916356  0  0  -0.168231  0  3.920098  0  0  -0.146474  -0.179223  0  3.913444  0
C  C51  1  0.57768319  0.36803741  0.18403227  1  0  -0.079828  0  3.651949  0  0  -0.174942  0  3.916314  0  0  -0.168268  0  3.920048  0  0  -0.146488  -0.179246  0  3.913407  0
C  C52  1  0.83039873  0.90607281  0.24439111  1  0  0.171247  0  3.619442  0  0  0.092552  0  3.879558  0  0  0.115129  0  3.894774  0  0  0.169769  0.083177  0  3.872366  0
C  C53  1  0.16959971  0.09392612  0.75561089  1  0  0.171356  0  3.619291  0  0  0.09266  0  3.879457  0  0  0.115249  0  3.894664  0  0  0.169829  0.083282  0  3.872266  0
C  C54  1  0.77774521  0.06723186  0.20266511  1  0  0.210967  0  3.694461  0  0  0.159369  0  3.975368  0  0  0.172489  0  3.984926  0  0  0.153265  0.151423  0  3.966632  0
C  C55  1  0.22225767  0.93276711  0.79733553  1  0  0.210941  0  3.694536  0  0  0.159346  0  3.975442  0  0  0.172469  0  3.984995  0  0  0.153271  0.1514  0  3.966706  0
C  C56  1  0.56063091  0.77083709  0.28506378  1  0  -0.018119  0  3.620792  0  0  -0.092801  0  3.87848  0  0  -0.081658  0  3.893495  0  0  -0.052021  -0.094898  0  3.870709  0
C  C57  1  0.43936918  0.22916067  0.71493557  1  0  -0.018013  0  3.620741  0  0  -0.092665  0  3.878424  0  0  -0.081511  0  3.893425  0  0  -0.051979  -0.094764  0  3.870651  0
C  C58  1  0.48514473  0.83897459  0.38231510  1  0  -0.149736  0  3.66729  0  0  -0.197479  0  3.9413  0  0  -0.198663  0  3.952208  0  0  -0.160512  -0.195879  0  3.932088  0
C  C59  1  0.51485481  0.16102199  0.61768308  1  0  -0.149871  0  3.667467  0  0  -0.197603  0  3.941467  0  0  -0.198782  0  3.952362  0  0  -0.160573  -0.196002  0  3.932253  0
C  C60  1  0.40076986  0.72716652  0.43531488  1  0  -0.01234  0  3.597061  0  0  -0.085378  0  3.853048  0  0  -0.081575  0  3.863395  0  0  -0.041548  -0.087636  0  3.846066  0
C  C61  1  0.59923136  0.27283127  0.56468532  1  0  -0.012357  0  3.597016  0  0  -0.085389  0  3.852977  0  0  -0.081579  0  3.86332  0  0  -0.041539  -0.087646  0  3.845996  0
C  C62  1  0.58219174  0.80445538  0.62991991  1  0  0.182968  0  3.623307  0  0  0.107278  0  3.883723  0  0  0.121405  0  3.895297  0  0  0.171763  0.098257  0  3.875519  0
C  C63  1  0.41780780  0.19554354  0.37008056  1  0  0.182888  0  3.623412  0  0  0.107227  0  3.883826  0  0  0.121355  0  3.8954  0  0  0.171761  0.098213  0  3.875613  0
C  C64  1  0.71935092  0.67813430  0.56316833  1  0  0.204639  0  3.704164  0  0  0.145049  0  4.000927  0  0  0.157032  0  4.013038  0  0  0.149898  0.137278  0  3.992433  0
C  C65  1  0.28065082  0.32186695  0.43683217  1  0  0.204712  0  3.70417  0  0  0.145122  0  4.000941  0  0  0.1571  0  4.013053  0  0  0.149904  0.137352  0  3.992448  0
N  N66  1  0.89655596  0.01853040  0.20961999  1  0  -0.399162  0  3.262719  0  0  -0.319753  0  3.571799  0  0  -0.340611  0  3.576669  0  0  -0.345033  -0.304571  0  3.565434  0
N  N67  1  0.10344416  0.98146505  0.79037945  1  0  -0.399138  0  3.26275  0  0  -0.31973  0  3.571839  0  0  -0.340583  0  3.576698  0  0  -0.345065  -0.304545  0  3.56547  0
N  N68  1  0.67899779  0.88888114  0.25714843  1  0  0.051007  0  3.554625  0  0  0.170626  0  3.745027  0  0  0.133555  0  3.806721  0  0  -0.132521  0.176186  0  3.73103  0
N  N69  1  0.32100341  0.11111896  0.74285248  1  0  0.050875  0  3.554547  0  0  0.170483  0  3.744961  0  0  0.133365  0  3.806729  0  0  -0.132587  0.176043  0  3.730963  0
N  N70  1  0.64255159  0.99115723  0.23122944  1  0  -0.282442  0  2.837776  0  0  -0.280107  0  3.102414  0  0  -0.28193  0  3.123522  0  0  -0.222783  -0.273434  0  3.092813  0
N  N71  1  0.35745071  0.00884286  0.76876994  1  0  -0.282401  0  2.837739  0  0  -0.280057  0  3.102377  0  0  -0.281868  0  3.123486  0  0  -0.222755  -0.273384  0  3.092776  0
N  N72  1  0.52330372  0.72132112  0.51227764  1  0  0.038272  0  3.552325  0  0  0.157438  0  3.742783  0  0  0.146006  0  3.768859  0  0  -0.133151  0.164  0  3.726798  0
N  N73  1  0.47669693  0.27867780  0.48772209  1  0  0.03846  0  3.552281  0  0  0.157568  0  3.742781  0  0  0.146137  0  3.768858  0  0  -0.133114  0.164107  0  3.726835  0
N  N74  1  0.61030754  0.64043315  0.46772772  1  0  -0.268438  0  2.857671  0  0  -0.264897  0  3.127621  0  0  -0.273448  0  3.141681  0  0  -0.216953  -0.259087  0  3.118204  0
N  N75  1  0.38969310  0.35956577  0.53227201  1  0  -0.268498  0  2.85762  0  0  -0.264938  0  3.127579  0  0  -0.273492  0  3.141645  0  0  -0.216952  -0.259124  0  3.118163  0
N  N76  1  0.70631909  0.77871108  0.66480171  1  0  -0.406934  0  3.277421  0  0  -0.328642  0  3.581157  0  0  -0.350407  0  3.591708  0  0  -0.343537  -0.313722  0  3.573469  0
N  N77  1  0.29368043  0.22129017  0.33520026  1  0  -0.406944  0  3.277494  0  0  -0.328645  0  3.581206  0  0  -0.350412  0  3.591766  0  0  -0.343545  -0.313725  0  3.573518  0
O  O78  1  0.12726638  0.85839906  0.25313690  1  0  -0.637091  0  1.912875  0  0  -0.594672  0  2.131332  0  0  -0.615915  0  2.121936  0  0  -0.340427  -0.579159  0  2.137062  0
O  O79  1  0.87273311  0.14160213  0.74686189  1  0  -0.637124  0  1.912876  0  0  -0.59469  0  2.131362  0  0  -0.615932  0  2.121967  0  0  -0.340434  -0.579177  0  2.137094  0
O  O80  1  0.18237264  0.91581856  0.10030756  1  0  -0.644516  0  2.011027  0  0  -0.570121  0  2.276324  0  0  -0.598439  0  2.261632  0  0  -0.337406  -0.549014  0  2.287123  0
O  O81  1  0.81762908  0.08418268  0.89969135  1  0  -0.644526  0  2.010995  0  0  -0.570122  0  2.27632  0  0  -0.598439  0  2.261625  0  0  -0.337392  -0.549009  0  2.287114  0
O  O82  1  0.09569350  0.36343401  0.23583837  1  0  -0.642022  0  1.89553  0  0  -0.600151  0  2.117684  0  0  -0.621984  0  2.107753  0  0  -0.338317  -0.5841  0  2.123637  0
O  O83  1  0.90430656  0.63656605  0.76416089  1  0  -0.642022  0  1.895502  0  0  -0.600147  0  2.117668  0  0  -0.62198  0  2.107739  0  0  -0.338307  -0.584096  0  2.123622  0
O  O84  1  0.15731884  0.20966273  0.08334765  1  0  -0.647396  0  2.022656  0  0  -0.574298  0  2.293973  0  0  -0.602915  0  2.279092  0  0  -0.335094  -0.553042  0  2.305138  0
O  O85  1  0.84267344  0.79033256  0.91664901  1  0  -0.647389  0  2.022622  0  0  -0.57429  0  2.293968  0  0  -0.602905  0  2.279085  0  0  -0.335131  -0.553029  0  2.305127  0
O  O86  1  0.37168781  0.51760093  0.86029253  1  0  -0.256266  0  2.349129  0  0  -0.17887  0  2.585773  0  0  -0.19722  0  2.590338  0  0  -0.18965  -0.165791  0  2.581996  0
O  O87  1  0.62831609  0.48240730  0.13970939  1  0  -0.256279  0  2.349011  0  0  -0.178839  0  2.585638  0  0  -0.197189  0  2.590206  0  0  -0.189665  -0.165806  0  2.581885  0
