# generated using pymatgen
data_Cu3H8C8S(IN2)3
_symmetry_space_group_name_H-M   'P 1'
_cell_length_a   7.16475010
_cell_length_b   10.70465488
_cell_length_c   12.12245966
_cell_angle_alpha   114.35253916
_cell_angle_beta   98.77007951
_cell_angle_gamma   100.70959086
_symmetry_Int_Tables_number   1
_chemical_formula_structural   Cu3H8C8S(IN2)3
_chemical_formula_sum   'Cu6 H16 C16 S2 I6 N12'
_cell_volume   804.55058019
_cell_formula_units_Z   2
loop_
 _symmetry_equiv_pos_site_id
 _symmetry_equiv_pos_as_xyz
  1  'x, y, z'
loop_
 _atom_site_type_symbol
 _atom_site_label
 _atom_site_symmetry_multiplicity
 _atom_site_fract_x
 _atom_site_fract_y
 _atom_site_fract_z
 _atom_site_occupancy
 _atom_site_pbe_bader_spin_density
 _atom_site_pbe_cm5_charge
 _atom_site_pbe_ddec_charge
 _atom_site_pbe_ddec_spin_density
 _atom_site_pbe_ddec_sum_bond_order
 _atom_site_pbe_magmom
Cu  Cu0  1  0.62818860  0.97785503  0.93705209  1  0  0.126256  0.061767  0  2.857016  0
Cu  Cu1  1  0.37175463  0.02215088  0.06295517  1  0  0.126244  0.061828  0  2.857049  0
Cu  Cu2  1  0.38829319  0.16686392  0.94139233  1  0  0.234112  0.150319  0  2.672736  0
Cu  Cu3  1  0.61171320  0.83313416  0.05860512  1  0  0.234106  0.15035  0  2.672704  0
Cu  Cu4  1  0.75191813  0.24148161  0.06751389  1  0  0.24408  0.164561  0  2.737032  0
Cu  Cu5  1  0.24809228  0.75851965  0.93248176  1  0  0.244079  0.164421  0  2.737137  0
H  H6  1  0.34449584  0.43918102  0.07788077  1  0  0.277332  0.287954  0  1.013553  0
H  H7  1  0.65550778  0.56081708  0.92211975  1  0  0.277337  0.28791  0  1.013627  0
H  H8  1  0.26845089  0.57823333  0.05899184  1  0  0.282464  0.293747  0  0.996494  0
H  H9  1  0.73155366  0.42176369  0.94100424  1  0  0.282457  0.29373  0  0.996497  0
H  H10  1  0.89698650  0.60059001  0.69277718  1  0  0.121316  0.102844  0  1.059194  0
H  H11  1  0.10302158  0.39941235  0.30722362  1  0  0.121327  0.102932  0  1.059132  0
H  H12  1  0.76637957  0.40197229  0.48144737  1  0  0.109798  0.105716  0  1.009592  0
H  H13  1  0.23361579  0.59802265  0.51855376  1  0  0.109774  0.105699  0  1.009608  0
H  H14  1  0.93551025  0.29841889  0.43990692  1  0  0.10568  0.103356  0  1.010639  0
H  H15  1  0.06448809  0.70158030  0.56008942  1  0  0.105685  0.103387  0  1.010683  0
H  H16  1  0.60450912  0.13657734  0.35896494  1  0  0.084241  0.110372  0  1.056076  0
H  H17  1  0.39548526  0.86341867  0.64103732  1  0  0.084249  0.110364  0  1.056132  0
H  H18  1  0.74176684  0.10952742  0.47925537  1  0  0.10372  0.125518  0  1.00851  0
H  H19  1  0.25823480  0.89047283  0.52074659  1  0  0.103722  0.125532  0  1.0084  0
H  H20  1  0.19496811  0.06683597  0.69115188  1  0  0.105933  0.062444  0  1.034646  0
H  H21  1  0.80503182  0.93316001  0.30884507  1  0  0.105931  0.062438  0  1.034685  0
C  C22  1  0.21820163  0.39272136  0.89789413  1  0  0.239319  0.416587  0  4.071732  0
C  C23  1  0.78180294  0.60727567  0.10210360  1  0  0.239288  0.416545  0  4.071768  0
C  C24  1  0.37055745  0.29785211  0.49848345  1  0  0.158139  0.192933  0  4.116261  0
C  C25  1  0.62944449  0.70214495  0.50152645  1  0  0.158214  0.192975  0  4.116973  0
C  C26  1  0.95977073  0.52717191  0.71642354  1  0  0.146796  0.122247  0  3.86978  0
C  C27  1  0.04023934  0.47282830  0.28357747  1  0  0.146797  0.12219  0  3.8697  0
C  C28  1  0.83039942  0.32368877  0.49778854  1  0  -0.055685  -0.048903  0  3.865229  0
C  C29  1  0.16959549  0.67630510  0.50220969  1  0  -0.055661  -0.048814  0  3.865144  0
C  C30  1  0.67562326  0.18531749  0.45948195  1  0  -0.146985  -0.207237  0  3.871912  0
C  C31  1  0.32436833  0.81467855  0.54052174  1  0  -0.147017  -0.207285  0  3.872084  0
C  C32  1  0.16756611  0.17134327  0.72378436  1  0  0.145944  0.230242  0  4.036998  0
C  C33  1  0.83243508  0.82865591  0.27621469  1  0  0.145946  0.230325  0  4.03703  0
C  C34  1  0.11772008  0.43314101  0.81350251  1  0  0.065674  -0.057259  0  4.034662  0
C  C35  1  0.88228752  0.56686027  0.18649373  1  0  0.065716  -0.057171  0  4.034735  0
C  C36  1  0.04028517  0.32904618  0.68903872  1  0  0.208801  0.238976  0  4.096847  0
C  C37  1  0.95972264  0.67095189  0.31095967  1  0  0.208799  0.239047  0  4.096795  0
S  S38  1  0.48601439  0.19960098  0.54581628  1  0  0.070622  0.09826  0  2.873579  0
S  S39  1  0.51398599  0.80040677  0.45419243  1  0  0.07067  0.098278  0  2.873237  0
I  I40  1  0.68749431  0.13709147  0.82242912  1  0  -0.146373  -0.223538  0  2.165806  0
I  I41  1  0.31250833  0.86290771  0.17757335  1  0  -0.146392  -0.223567  0  2.165764  0
I  I42  1  0.89426525  0.08092086  0.15606831  1  0  -0.144541  -0.207811  0  2.223968  0
I  I43  1  0.10573186  0.91907513  0.84392758  1  0  -0.144516  -0.20776  0  2.224067  0
I  I44  1  0.53902081  0.70254095  0.80837540  1  0  -0.136037  -0.19905  0  2.128605  0
I  I45  1  0.46098695  0.29746782  0.19162854  1  0  -0.136052  -0.199102  0  2.128557  0
N  N46  1  0.28336651  0.47736391  0.02092638  1  0  -0.565122  -0.559593  0  3.391371  0
N  N47  1  0.71663510  0.52263633  0.97907310  1  0  -0.565112  -0.559513  0  3.39149  0
N  N48  1  0.93796146  0.39067377  0.62922325  1  0  -0.23336  -0.033418  0  3.692777  0
N  N49  1  0.06204252  0.60932539  0.37077356  1  0  -0.233301  -0.033362  0  3.69285  0
N  N50  1  0.06235151  0.19665286  0.63903525  1  0  -0.340346  -0.376589  0  3.314935  0
N  N51  1  0.93764602  0.80334420  0.36096190  1  0  -0.34036  -0.376703  0  3.314949  0
N  N52  1  0.28486177  0.36790599  0.47017364  1  0  -0.305223  -0.351312  0  2.891026  0
N  N53  1  0.71514276  0.63210919  0.52982659  1  0  -0.305339  -0.351323  0  2.892096  0
N  N54  1  0.24472166  0.25917621  0.84796252  1  0  -0.372208  -0.343149  0  3.521643  0
N  N55  1  0.75527912  0.74082191  0.15203611  1  0  -0.372164  -0.343164  0  3.521599  0
N  N56  1  0.06901041  0.55789727  0.82848138  1  0  -0.384336  -0.259958  0  3.589486  0
N  N57  1  0.93099803  0.44210615  0.17151654  1  0  -0.384437  -0.260217  0  3.589534  0
