# generated using pymatgen
data_AlH7C16I2N4O9
_symmetry_space_group_name_H-M   'P 1'
_cell_length_a   6.61345388
_cell_length_b   25.64828558
_cell_length_c   28.11051447
_cell_angle_alpha   89.99989636
_cell_angle_beta   90.00022692
_cell_angle_gamma   89.99944045
_symmetry_Int_Tables_number   1
_chemical_formula_structural   AlH7C16I2N4O9
_chemical_formula_sum   'Al4 H28 C64 I8 N16 O36'
_cell_volume   4768.21098494
_cell_formula_units_Z   4
loop_
 _symmetry_equiv_pos_site_id
 _symmetry_equiv_pos_as_xyz
  1  'x, y, z'
loop_
 _atom_site_type_symbol
 _atom_site_label
 _atom_site_symmetry_multiplicity
 _atom_site_fract_x
 _atom_site_fract_y
 _atom_site_fract_z
 _atom_site_occupancy
 _atom_site_pbe_bader_charge
 _atom_site_pbe_bader_spin_density
 _atom_site_pbe_cm5_charge
 _atom_site_pbe_ddec_charge
 _atom_site_pbe_ddec_spin_density
 _atom_site_pbe_ddec_sum_bond_order
 _atom_site_pbe_magmom
Al  Al0  1  0.81045049  0.74885709  0.74999920  1  2.480928  0  0.400978  1.649558  0  2.584847  0
Al  Al1  1  0.18954928  0.25114228  0.24999815  1  2.480985  0  0.400931  1.649535  0  2.584978  0
Al  Al2  1  0.31044846  0.75114117  0.74999931  1  2.480966  0  0.400886  1.649635  0  2.584973  0
Al  Al3  1  0.68955433  0.24885898  0.24999626  1  2.481035  0  0.400997  1.649611  0  2.584836  0
H  H4  1  0.77217320  0.67136513  0.62347043  1  0.122609  0  0.124964  0.155084  0  0.96019  0
H  H5  1  0.22784471  0.32863697  0.37652656  1  0.122622  0  0.124976  0.155136  0  0.960106  0
H  H6  1  0.22784264  0.32862981  0.12346716  1  0.122497  0  0.124917  0.155036  0  0.960122  0
H  H7  1  0.77216620  0.67136527  0.87652913  1  0.122593  0  0.124986  0.155124  0  0.960182  0
H  H8  1  0.27215154  0.82863515  0.87652875  1  0.122538  0  0.124963  0.155096  0  0.960083  0
H  H9  1  0.72784067  0.17136539  0.12346575  1  0.122547  0  0.124978  0.155147  0  0.96014  0
H  H10  1  0.72784576  0.17136358  0.37653191  1  0.122615  0  0.124964  0.155107  0  0.960156  0
H  H11  1  0.27214947  0.82863501  0.62346828  1  0.12251  0  0.124982  0.15516  0  0.960052  0
H  H12  1  0.70130401  0.57515028  0.53624013  1  0.63266  0  0.296175  0.304618  0  1.043464  0
H  H13  1  0.29868517  0.42485104  0.46375864  1  0.632592  0  0.296192  0.304634  0  1.043464  0
H  H14  1  0.29867714  0.42484600  0.03623641  1  0.632668  0  0.296191  0.304573  0  1.04354  0
H  H15  1  0.70130297  0.57514791  0.96375739  1  0.632596  0  0.296174  0.304637  0  1.043479  0
H  H16  1  0.20130053  0.92485170  0.96376006  1  0.632538  0  0.296155  0.304562  0  1.043518  0
H  H17  1  0.79869621  0.07514922  0.03623587  1  0.632513  0  0.296131  0.304477  0  1.043537  0
H  H18  1  0.79869517  0.07514724  0.46376131  1  0.632498  0  0.296161  0.304519  0  1.043577  0
H  H19  1  0.20130309  0.92485017  0.53623533  1  0.632589  0  0.296159  0.304503  0  1.043495  0
H  H20  1  0.46252811  0.57890736  0.66826712  1  0.572596  0  0.283552  0.308811  0  1.004949  0
H  H21  1  0.53747620  0.42109434  0.33173307  1  0.572562  0  0.283558  0.308796  0  1.004957  0
H  H22  1  0.53748847  0.42109450  0.16826435  1  0.572595  0  0.28355  0.308839  0  1.004997  0
H  H23  1  0.46252188  0.57890370  0.83173621  1  0.572586  0  0.283502  0.308783  0  1.004998  0
H  H24  1  0.96250845  0.92109371  0.83173438  1  0.572616  0  0.283546  0.308814  0  1.005015  0
H  H25  1  0.03750039  0.07890683  0.16826510  1  0.572766  0  0.283525  0.3088  0  1.005021  0
H  H26  1  0.03748963  0.07890784  0.33173205  1  0.572627  0  0.283604  0.308901  0  1.004934  0
H  H27  1  0.96250560  0.92109075  0.66826566  1  0.572694  0  0.28349  0.308793  0  1.005133  0
H  H28  1  0.55231008  0.68088243  0.75000056  1  0.615244  0  0.359565  0.447293  0  0.829233  0
H  H29  1  0.44769422  0.31911577  0.25000000  1  0.615286  0  0.359604  0.447341  0  0.829211  0
H  H30  1  0.05229435  0.81911790  0.75000091  1  0.61521  0  0.359555  0.447287  0  0.829343  0
H  H31  1  0.94770542  0.18088030  0.24999929  1  0.615179  0  0.359572  0.447356  0  0.829302  0
C  C32  1  0.56360015  0.81419432  0.68658076  1  1.593897  0  0.27237  0.657654  0  4.083023  0
C  C33  1  0.43641928  0.18580739  0.31341943  1  1.593793  0  0.272252  0.657626  0  4.083033  0
C  C34  1  0.43641975  0.18580751  0.18657971  1  1.593761  0  0.272247  0.657668  0  4.082985  0
C  C35  1  0.56360572  0.81419497  0.81342085  1  1.593808  0  0.27228  0.657508  0  4.082992  0
C  C36  1  0.06357191  0.68580950  0.81342071  1  1.593786  0  0.272322  0.657882  0  4.082771  0
C  C37  1  0.93640215  0.31418870  0.18658019  1  1.593753  0  0.272379  0.657788  0  4.083005  0
C  C38  1  0.93639562  0.31418818  0.31341850  1  1.594475  0  0.272254  0.657596  0  4.083247  0
C  C39  1  0.06356029  0.68580846  0.68658170  1  1.593473  0  0.272285  0.657705  0  4.083265  0
C  C40  1  0.89461360  0.64352573  0.61825290  1  0.013775  0  -0.08871  -0.193294  0  3.941471  0
C  C41  1  0.10539070  0.35647871  0.38174410  1  0.013885  0  -0.088626  -0.193205  0  3.941296  0
C  C42  1  0.10539309  0.35647000  0.11825124  1  0.013893  0  -0.088631  -0.193154  0  3.941187  0
C  C43  1  0.89461424  0.64352547  0.88174647  1  0.013821  0  -0.08869  -0.193303  0  3.941353  0
C  C44  1  0.39460738  0.85647470  0.88174605  1  0.014107  0  -0.088659  -0.193247  0  3.941168  0
C  C45  1  0.60540448  0.14352739  0.11825130  1  0.013843  0  -0.088774  -0.19342  0  3.941427  0
C  C46  1  0.60539605  0.14352402  0.38174914  1  0.014032  0  -0.088704  -0.193389  0  3.941181  0
C  C47  1  0.39459616  0.85647301  0.61825141  1  0.01398  0  -0.088736  -0.193366  0  3.941213  0
C  C48  1  0.87666590  0.60612211  0.58235816  1  0.552067  0  0.085428  0.287617  0  4.064183  0
C  C49  1  0.12333084  0.39388233  0.41764203  1  0.552092  0  0.085375  0.287519  0  4.064092  0
C  C50  1  0.12333717  0.39387681  0.08235859  1  0.552215  0  0.085374  0.287296  0  4.064345  0
C  C51  1  0.87666713  0.60611944  0.91764196  1  0.552154  0  0.085398  0.287551  0  4.064127  0
C  C52  1  0.37666309  0.89387992  0.91764397  1  0.552011  0  0.085367  0.287526  0  4.063941  0
C  C53  1  0.62334272  0.10612101  0.08235694  1  0.552056  0  0.085451  0.287539  0  4.064009  0
C  C54  1  0.62333941  0.10611679  0.41764429  1  0.552018  0  0.085442  0.287624  0  4.063758  0
C  C55  1  0.37666035  0.89387868  0.58235591  1  0.552024  0  0.085419  0.287508  0  4.063958  0
C  C56  1  0.03350064  0.56822725  0.57605090  1  0.033636  0  -0.031397  -0.145072  0  4.012771  0
C  C57  1  0.96648854  0.43177485  0.42394788  1  0.03344  0  -0.031417  -0.145083  0  4.013221  0
C  C58  1  0.96648721  0.43176818  0.07604460  1  0.033446  0  -0.031292  -0.144692  0  4.012786  0
C  C59  1  0.03350953  0.56822651  0.92394990  1  0.033551  0  -0.031343  -0.144968  0  4.012929  0
C  C60  1  0.53350165  0.93177273  0.92394913  1  0.033206  0  -0.031386  -0.144931  0  4.01288  0
C  C61  1  0.46649811  0.06822975  0.07604716  1  0.033835  0  -0.031303  -0.144792  0  4.012675  0
C  C62  1  0.46648886  0.06822629  0.42395043  1  0.033176  0  -0.031372  -0.144997  0  4.012907  0
C  C63  1  0.53350184  0.93177152  0.57604763  1  0.033543  0  -0.031296  -0.144732  0  4.012535  0
C  C64  1  0.19846310  0.56905362  0.60853313  1  -0.162785  0  -0.060696  -0.091643  0  3.878062  0
C  C65  1  0.80152759  0.43095082  0.39146991  1  -0.162896  0  -0.060751  -0.091702  0  3.878154  0
C  C66  1  0.80153133  0.43095032  0.10852703  1  -0.16316  0  -0.060767  -0.091749  0  3.877996  0
C  C67  1  0.19846239  0.56905217  0.89146783  1  -0.162792  0  -0.060697  -0.09159  0  3.878073  0
C  C68  1  0.69845757  0.93094760  0.89146919  1  -0.162969  0  -0.060704  -0.091693  0  3.877975  0
C  C69  1  0.30153615  0.06905216  0.10852745  1  -0.1632  0  -0.060704  -0.09168  0  3.877912  0
C  C70  1  0.30153997  0.06905267  0.39146820  1  -0.162955  0  -0.060712  -0.091686  0  3.877799  0
C  C71  1  0.69845677  0.93094748  0.60853164  1  -0.163131  0  -0.06071  -0.091796  0  3.877932  0
C  C72  1  0.21869701  0.60775868  0.64352535  1  0.541443  0  0.077353  0.248025  0  4.068335  0
C  C73  1  0.78130125  0.39224420  0.35647556  1  0.541284  0  0.077319  0.247936  0  4.068235  0
C  C74  1  0.78129497  0.39224128  0.14351965  1  0.541259  0  0.077307  0.247825  0  4.067942  0
C  C75  1  0.21869724  0.60775925  0.85647485  1  0.541505  0  0.077295  0.24785  0  4.068138  0
C  C76  1  0.71868966  0.89224132  0.85647414  1  0.541387  0  0.077326  0.247982  0  4.067975  0
C  C77  1  0.28131464  0.10775922  0.14352321  1  0.541107  0  0.077263  0.247839  0  4.068008  0
C  C78  1  0.28130882  0.10775979  0.35647449  1  0.541321  0  0.077357  0.248049  0  4.067922  0
C  C79  1  0.71867885  0.89224075  0.64352464  1  0.541316  0  0.077346  0.248101  0  4.068108  0
C  C80  1  0.06211839  0.64537850  0.64801787  1  0.053687  0  -0.005824  -0.08877  0  3.917575  0
C  C81  1  0.93788894  0.35462710  0.35198091  1  0.053913  0  -0.005944  -0.088849  0  3.917468  0
C  C82  1  0.93788576  0.35462419  0.14801701  1  0.053845  0  -0.005828  -0.088572  0  3.91704  0
C  C83  1  0.06211703  0.64537752  0.85198141  1  0.053636  0  -0.00587  -0.088713  0  3.917493  0
C  C84  1  0.56210967  0.85462376  0.85198147  1  0.053578  0  -0.005816  -0.088645  0  3.917632  0
C  C85  1  0.43789917  0.14537600  0.14801766  1  0.053901  0  -0.005819  -0.088639  0  3.91741  0
C  C86  1  0.43789781  0.14537385  0.35198191  1  0.05372  0  -0.005798  -0.088547  0  3.917385  0
C  C87  1  0.56210347  0.85462318  0.64801900  1  0.053672  0  -0.005811  -0.088673  0  3.917426  0
C  C88  1  0.98081036  0.46799593  0.46374577  1  0.960176  0  0.231792  0.263015  0  3.974859  0
C  C89  1  0.01918336  0.53200344  0.53625194  1  0.960066  0  0.23177  0.263084  0  3.974749  0
C  C90  1  0.01918534  0.53200458  0.96374891  1  0.959826  0  0.231729  0.262934  0  3.974745  0
C  C91  1  0.98080989  0.46799245  0.03624951  1  0.960673  0  0.23159  0.262723  0  3.975056  0
C  C92  1  0.48081943  0.03200825  0.03624963  1  0.959886  0  0.231556  0.2627  0  3.974969  0
C  C93  1  0.51916824  0.96799735  0.96374523  1  0.960284  0  0.231662  0.262861  0  3.974658  0
C  C94  1  0.51917685  0.96799348  0.53624968  1  0.960241  0  0.231608  0.262724  0  3.975051  0
C  C95  1  0.48082141  0.03200199  0.46374590  1  0.960439  0  0.231657  0.262796  0  3.974898  0
I  I96  1  0.41048691  0.50734479  0.61415431  1  0.145909  0  0.113063  -0.010727  0  1.594476  0
I  I97  1  0.58950228  0.49265770  0.38584553  1  0.145789  0  0.113089  -0.010677  0  1.59464  0
I  I98  1  0.58950610  0.49265250  0.11414933  1  0.145925  0  0.113148  -0.010629  0  1.594802  0
I  I99  1  0.41049064  0.50734258  0.88584660  1  0.145851  0  0.113075  -0.010698  0  1.59453  0
I  I100  1  0.91045578  0.99265717  0.88584394  1  0.146004  0  0.113129  -0.010634  0  1.594611  0
I  I101  1  0.08954399  0.00734532  0.11415376  1  0.146098  0  0.113139  -0.010645  0  1.594755  0
I  I102  1  0.08952353  0.00734700  0.38584392  1  0.146019  0  0.11306  -0.010733  0  1.594665  0
I  I103  1  0.91047019  0.99265354  0.61415379  1  0.146056  0  0.11309  -0.01066  0  1.594646  0
N  N104  1  0.18788985  0.50873545  0.51891546  1  -0.539432  0  -0.152391  -0.115377  0  3.254354  0
N  N105  1  0.81210538  0.49126392  0.48108047  1  -0.539604  0  -0.152473  -0.115461  0  3.254446  0
N  N106  1  0.81210765  0.49125813  0.01891532  1  -0.539725  0  -0.152473  -0.115486  0  3.254555  0
N  N107  1  0.18790270  0.50873344  0.98108239  1  -0.539318  0  -0.152448  -0.115514  0  3.254469  0
N  N108  1  0.68788756  0.99126266  0.98108044  1  -0.539421  0  -0.152305  -0.11536  0  3.254537  0
N  N109  1  0.31211523  0.00874100  0.01891904  1  -0.539635  0  -0.152338  -0.115299  0  3.254664  0
N  N110  1  0.31211145  0.00873664  0.48107814  1  -0.539705  0  -0.152351  -0.115327  0  3.254535  0
N  N111  1  0.68788681  0.99125961  0.51891779  1  -0.539519  0  -0.152345  -0.115322  0  3.254691  0
N  N112  1  0.16728079  0.47664603  0.48304954  1  -0.614066  0  -0.149546  -0.141881  0  3.331286  0
N  N113  1  0.83271595  0.52335256  0.51694674  1  -0.613912  0  -0.149484  -0.141843  0  3.331255  0
N  N114  1  0.83271674  0.52335054  0.98304992  1  -0.613797  0  -0.149429  -0.141694  0  3.331222  0
N  N115  1  0.16729210  0.47664337  0.01694601  1  -0.614236  0  -0.149437  -0.141692  0  3.331264  0
N  N116  1  0.66728633  0.02335137  0.01694521  1  -0.613697  0  -0.149477  -0.141708  0  3.331348  0
N  N117  1  0.33270890  0.97664995  0.98305321  1  -0.613741  0  -0.149521  -0.141818  0  3.331277  0
N  N118  1  0.33271265  0.97664651  0.51694328  1  -0.613848  0  -0.149518  -0.141802  0  3.331235  0
N  N119  1  0.66729014  0.02334935  0.48305194  1  -0.613756  0  -0.149473  -0.141719  0  3.331297  0
O  O120  1  0.39057530  0.80031314  0.79814393  1  -1.244919  0  -0.232706  -0.590579  0  2.33741  0
O  O121  1  0.60943354  0.19968818  0.20185484  1  -1.244683  0  -0.23262  -0.590573  0  2.337796  0
O  O122  1  0.60943433  0.19968691  0.29814515  1  -1.244577  0  -0.232652  -0.590595  0  2.337755  0
O  O123  1  0.39055788  0.80031051  0.70185469  1  -1.24512  0  -0.23269  -0.590646  0  2.337511  0
O  O124  1  0.89056216  0.69969081  0.70185786  1  -1.244561  0  -0.232603  -0.590551  0  2.33822  0
O  O125  1  0.10943609  0.30031441  0.29814518  1  -1.245166  0  -0.23263  -0.590518  0  2.337606  0
O  O126  1  0.10943833  0.30031177  0.20185345  1  -1.244602  0  -0.232652  -0.590623  0  2.337655  0
O  O127  1  0.89057353  0.69968526  0.79814176  1  -1.244671  0  -0.232637  -0.590628  0  2.337984  0
O  O128  1  0.73268780  0.79718520  0.70086840  1  -1.240609  0  -0.225788  -0.568642  0  2.355965  0
O  O129  1  0.26731651  0.20281456  0.29913109  1  -1.240957  0  -0.225775  -0.568751  0  2.355856  0
O  O130  1  0.26731571  0.20281465  0.20086430  1  -1.240956  0  -0.225711  -0.568675  0  2.355781  0
O  O131  1  0.73269313  0.79718238  0.79913447  1  -1.24066  0  -0.225768  -0.568646  0  2.355982  0
O  O132  1  0.23269484  0.70281516  0.79913574  1  -1.240983  0  -0.22576  -0.568828  0  2.355524  0
O  O133  1  0.76731249  0.29718772  0.20086090  1  -1.241028  0  -0.225753  -0.568722  0  2.35617  0
O  O134  1  0.76731178  0.29718684  0.29913445  1  -1.241102  0  -0.225694  -0.568597  0  2.356289  0
O  O135  1  0.23268496  0.70281058  0.70086646  1  -1.240802  0  -0.225762  -0.568722  0  2.355654  0
O  O136  1  0.55870980  0.71862140  0.75000017  1  -1.413123  0  -0.447836  -1.005956  0  2.220869  0
O  O137  1  0.44127636  0.28137797  0.25000003  1  -1.413186  0  -0.447864  -1.005994  0  2.220846  0
O  O138  1  0.05873965  0.78137931  0.75000024  1  -1.413139  0  -0.447849  -1.005956  0  2.221059  0
O  O139  1  0.94127675  0.21862006  0.25000032  1  -1.413098  0  -0.44782  -1.005978  0  2.220955  0
O  O140  1  0.70919942  0.60859616  0.55488260  1  -1.141588  0  -0.353609  -0.429401  0  2.310248  0
O  O141  1  0.29079732  0.39140516  0.44511582  1  -1.141443  0  -0.353591  -0.429367  0  2.310252  0
O  O142  1  0.29079262  0.39140048  0.05487928  1  -1.141647  0  -0.353629  -0.429323  0  2.310266  0
O  O143  1  0.70920110  0.60859499  0.94511594  1  -1.141454  0  -0.353573  -0.429379  0  2.310307  0
O  O144  1  0.20919415  0.89140582  0.94511724  1  -1.141489  0  -0.353542  -0.429346  0  2.310106  0
O  O145  1  0.79081016  0.10859550  0.05487940  1  -1.14156  0  -0.353552  -0.42926  0  2.309991  0
O  O146  1  0.79080730  0.10859317  0.44511950  1  -1.14151  0  -0.353606  -0.429327  0  2.31011  0
O  O147  1  0.20919398  0.89140425  0.55487928  1  -1.141576  0  -0.353613  -0.429313  0  2.310016  0
O  O148  1  0.37389300  0.60897885  0.67501364  1  -1.119902  0  -0.340371  -0.394919  0  2.342342  0
O  O149  1  0.62612340  0.39102598  0.32498549  1  -1.120579  0  -0.340345  -0.394842  0  2.342556  0
O  O150  1  0.62611462  0.39102222  0.17501349  1  -1.119764  0  -0.340356  -0.39493  0  2.342381  0
O  O151  1  0.37389422  0.60897520  0.82498457  1  -1.120675  0  -0.340298  -0.39486  0  2.342244  0
O  O152  1  0.87388368  0.89102318  0.82498280  1  -1.120644  0  -0.340349  -0.394947  0  2.342345  0
O  O153  1  0.12612062  0.10897892  0.17501562  1  -1.11989  0  -0.340342  -0.394917  0  2.342317  0
O  O154  1  0.12612034  0.10897799  0.32498228  1  -1.120666  0  -0.340416  -0.39503  0  2.342284  0
O  O155  1  0.87387641  0.89101982  0.67501471  1  -1.119794  0  -0.34029  -0.394982  0  2.342451  0
