# generated using pymatgen
data_Cd3H44C36(N14O3)2
_symmetry_space_group_name_H-M   'P 1'
_cell_length_a   11.77182128
_cell_length_b   12.14085388
_cell_length_c   13.94899953
_cell_angle_alpha   93.21729725
_cell_angle_beta   113.73993481
_cell_angle_gamma   108.53679553
_symmetry_Int_Tables_number   1
_chemical_formula_structural   Cd3H44C36(N14O3)2
_chemical_formula_sum   'Cd3 H44 C36 N28 O6'
_cell_volume   1690.84174938
_cell_formula_units_Z   1
loop_
 _symmetry_equiv_pos_site_id
 _symmetry_equiv_pos_as_xyz
  1  'x, y, z'
loop_
 _atom_site_type_symbol
 _atom_site_label
 _atom_site_symmetry_multiplicity
 _atom_site_fract_x
 _atom_site_fract_y
 _atom_site_fract_z
 _atom_site_occupancy
 _atom_site_hle17_bader_spin_density
 _atom_site_hle17_ddec_charge
 _atom_site_hle17_ddec_spin_density
 _atom_site_hle17_ddec_sum_bond_order
 _atom_site_hle17_magmom
 _atom_site_hse06_10hf_bader_spin_density
 _atom_site_hse06_10hf_ddec_charge
 _atom_site_hse06_10hf_ddec_spin_density
 _atom_site_hse06_10hf_ddec_sum_bond_order
 _atom_site_hse06_10hf_magmom
 _atom_site_hse06_bader_spin_density
 _atom_site_hse06_ddec_charge
 _atom_site_hse06_ddec_spin_density
 _atom_site_hse06_ddec_sum_bond_order
 _atom_site_hse06_magmom
 _atom_site_pbe_bader_spin_density
 _atom_site_pbe_cm5_charge
 _atom_site_pbe_ddec_charge
 _atom_site_pbe_ddec_spin_density
 _atom_site_pbe_ddec_sum_bond_order
 _atom_site_pbe_magmom
Cd  Cd0  1  0.99999947  0.49999908  0.50000017  1  0  0.870055  0  1.965088  0  0  0.623786  0  2.45676  0  0  0.6725  0  2.415656  0  0  0.821483  0.589417  0  2.48517  0
Cd  Cd1  1  0.89071788  0.77154477  0.55311952  1  0  1.070261  0  1.776938  0  0  0.866313  0  2.246209  0  0  0.916816  0  2.197926  0  0  0.801692  0.830599  0  2.279194  0
Cd  Cd2  1  0.10928212  0.22845607  0.44688028  1  0  1.070316  0  1.776902  0  0  0.866385  0  2.24617  0  0  0.916887  0  2.197886  0  0  0.801743  0.830701  0  2.279185  0
H  H3  1  0.50701942  0.66060767  0.12375919  1  0  0.101574  0  0.937521  0  0  0.112323  0  0.993911  0  0  0.115888  0  0.991865  0  0  0.10578  0.109719  0  0.995496  0
H  H4  1  0.49297945  0.33939049  0.87623868  1  0  0.101554  0  0.937535  0  0  0.1123  0  0.993927  0  0  0.115865  0  0.991883  0  0  0.105775  0.1097  0  0.995519  0
H  H5  1  0.64791795  0.38695096  0.07149543  1  0  0.108093  0  0.937973  0  0  0.118292  0  0.994582  0  0  0.121873  0  0.992508  0  0  0.109058  0.115613  0  0.996343  0
H  H6  1  0.35208387  0.61304985  0.92850212  1  0  0.108083  0  0.937988  0  0  0.118281  0  0.994594  0  0  0.121862  0  0.992523  0  0  0.109057  0.115598  0  0.996355  0
H  H7  1  0.12895021  0.46237798  0.90695135  1  0  0.094361  0  0.964918  0  0  0.103077  0  1.031377  0  0  0.105606  0  1.030735  0  0  0.101309  0.101262  0  1.031974  0
H  H8  1  0.87104942  0.53762198  0.09304901  1  0  0.094344  0  0.964912  0  0  0.103059  0  1.031373  0  0  0.105586  0  1.030737  0  0  0.101306  0.101245  0  1.031967  0
H  H9  1  0.82076607  0.57805520  0.90977652  1  0  0.091191  0  0.955347  0  0  0.100901  0  1.018645  0  0  0.104119  0  1.016956  0  0  0.098698  0.098672  0  1.019839  0
H  H10  1  0.17923504  0.42194386  0.09022430  1  0  0.091174  0  0.955339  0  0  0.100874  0  1.018648  0  0  0.104092  0  1.01696  0  0  0.098676  0.098645  0  1.019836  0
H  H11  1  0.62426544  0.89910558  0.44441520  1  0  0.098065  0  0.964864  0  0  0.108146  0  1.027648  0  0  0.111526  0  1.025268  0  0  0.101699  0.105653  0  1.029494  0
H  H12  1  0.37573289  0.10089349  0.55558468  1  0  0.098077  0  0.964848  0  0  0.108138  0  1.027659  0  0  0.111519  0  1.025278  0  0  0.101705  0.105657  0  1.029497  0
H  H13  1  0.56679180  0.21912100  0.52531593  1  0  0.107151  0  0.951172  0  0  0.116968  0  1.011795  0  0  0.120327  0  1.009874  0  0  0.108088  0.114505  0  1.013282  0
H  H14  1  0.43320615  0.78087718  0.47468379  1  0  0.107139  0  0.951162  0  0  0.116955  0  1.011785  0  0  0.120315  0  1.009865  0  0  0.108079  0.114489  0  1.013264  0
H  H15  1  0.87409660  0.02576922  0.62043241  1  0  0.037975  0  0.951335  0  0  0.045552  0  1.024552  0  0  0.046443  0  1.021398  0  0  0.12177  0.044692  0  1.026988  0
H  H16  1  0.12590377  0.97423252  0.37956828  1  0  0.037948  0  0.951362  0  0  0.045537  0  1.024563  0  0  0.046423  0  1.021411  0  0  0.121753  0.044668  0  1.026991  0
H  H17  1  0.89791489  0.20263570  0.67855064  1  0  0.107216  0  0.952186  0  0  0.12518  0  1.018023  0  0  0.125432  0  1.018989  0  0  0.108951  0.124851  0  1.01747  0
H  H18  1  0.10208789  0.79736514  0.32145082  1  0  0.107217  0  0.952148  0  0  0.125177  0  1.017998  0  0  0.125429  0  1.018963  0  0  0.10893  0.124833  0  1.017445  0
H  H19  1  0.06735616  0.30097591  0.75187291  1  0  0.108419  0  0.952934  0  0  0.119289  0  1.030161  0  0  0.119844  0  1.030839  0  0  0.102529  0.118842  0  1.02963  0
H  H20  1  0.93264533  0.69902405  0.24812952  1  0  0.108403  0  0.95289  0  0  0.119285  0  1.03011  0  0  0.119839  0  1.030787  0  0  0.102539  0.118826  0  1.029573  0
H  H21  1  0.96878473  0.24776012  0.82068340  1  0  0.098498  0  0.933279  0  0  0.120039  0  0.993022  0  0  0.12041  0  0.993394  0  0  0.103495  0.119727  0  0.99269  0
H  H22  1  0.03121637  0.75223894  0.17931670  1  0  0.098477  0  0.933292  0  0  0.120017  0  0.993037  0  0  0.120388  0  0.993409  0  0  0.103471  0.119686  0  0.992715  0
H  H23  1  0.16774239  0.05133004  0.85566787  1  0  0.119938  0  0.929443  0  0  0.138773  0  0.987083  0  0  0.140652  0  0.985752  0  0  0.116127  0.137309  0  0.988149  0
H  H24  1  0.83225797  0.94866724  0.14433190  1  0  0.119947  0  0.929462  0  0  0.138788  0  0.987089  0  0  0.140666  0  0.985759  0  0  0.116137  0.137318  0  0.988162  0
H  H25  1  0.13538478  0.15033694  0.93283420  1  0  0.091066  0  0.922856  0  0  0.11358  0  0.980021  0  0  0.113757  0  0.980396  0  0  0.104556  0.113372  0  0.979812  0
H  H26  1  0.86461632  0.84966212  0.06716590  1  0  0.091069  0  0.922851  0  0  0.113575  0  0.980026  0  0  0.113751  0  0.980404  0  0  0.104557  0.113357  0  0.979828  0
H  H27  1  0.23454530  0.20904267  0.86517635  1  0  0.097897  0  0.943707  0  0  0.116385  0  1.009786  0  0  0.116302  0  1.011064  0  0  0.103158  0.116344  0  1.008959  0
H  H28  1  0.76545710  0.79095727  0.13482423  1  0  0.097922  0  0.943689  0  0  0.116396  0  1.009781  0  0  0.116313  0  1.011058  0  0  0.103163  0.116347  0  1.008957  0
H  H29  1  0.77260072  0.79562900  0.72312490  1  0  0.033361  0  0.936381  0  0  0.03861  0  1.011652  0  0  0.041294  0  1.004999  0  0  0.116699  0.036436  0  1.016664  0
H  H30  1  0.22739945  0.20437006  0.27687489  1  0  0.033326  0  0.936412  0  0  0.03859  0  1.011669  0  0  0.041273  0  1.005016  0  0  0.116682  0.036411  0  1.016666  0
H  H31  1  0.68603494  0.75161290  0.83071955  1  0  0.095094  0  0.935986  0  0  0.116363  0  0.997783  0  0  0.117195  0  0.997059  0  0  0.107929  0.115633  0  0.998433  0
H  H32  1  0.31396506  0.24838793  0.16928026  1  0  0.095091  0  0.935979  0  0  0.116351  0  0.997786  0  0  0.117182  0  0.997063  0  0  0.107912  0.115607  0  0.998435  0
H  H33  1  0.58404455  0.59730909  0.79852927  1  0  0.096292  0  0.938852  0  0  0.11596  0  1.001849  0  0  0.116219  0  1.002935  0  0  0.101768  0.115628  0  1.00123  0
H  H34  1  0.41595507  0.40269085  0.20147037  1  0  0.096314  0  0.938838  0  0  0.115965  0  1.001844  0  0  0.116225  0  1.002929  0  0  0.101772  0.115628  0  1.001221  0
H  H35  1  0.50748723  0.70444429  0.77679735  1  0  0.110031  0  0.92158  0  0  0.130186  0  0.980068  0  0  0.131207  0  0.980016  0  0  0.108188  0.129359  0  0.98019  0
H  H36  1  0.49251145  0.29555565  0.22320126  1  0  0.110001  0  0.921527  0  0  0.130143  0  0.980033  0  0  0.131163  0  0.979982  0  0  0.108166  0.12931  0  0.980158  0
H  H37  1  0.46817623  0.58988369  0.50589897  1  0  0.11251  0  0.940317  0  0  0.133109  0  0.999094  0  0  0.134784  0  0.99778  0  0  0.110939  0.131821  0  1.000106  0
H  H38  1  0.53182282  0.41011713  0.49409908  1  0  0.112535  0  0.94029  0  0  0.133143  0  0.999074  0  0  0.134818  0  0.99776  0  0  0.110948  0.131848  0  1.000098  0
H  H39  1  0.37288273  0.61671105  0.57084794  1  0  0.106565  0  0.972746  0  0  0.11335  0  1.057754  0  0  0.114639  0  1.056947  0  0  0.100594  0.112382  0  1.058317  0
H  H40  1  0.62711632  0.38328978  0.42915012  1  0  0.106554  0  0.972755  0  0  0.113346  0  1.05777  0  0  0.114634  0  1.056963  0  0  0.100588  0.112375  0  1.058335  0
H  H41  1  0.43835223  0.50114479  0.59767707  1  0  0.103176  0  0.932764  0  0  0.121821  0  0.995852  0  0  0.122321  0  0.996142  0  0  0.103401  0.12133  0  0.995825  0
H  H42  1  0.56164646  0.49885515  0.40232154  1  0  0.103191  0  0.932758  0  0  0.121855  0  0.995836  0  0  0.122354  0  0.996125  0  0  0.103416  0.12136  0  0.995801  0
H  H43  1  0.82452231  0.96512668  0.42777897  1  0  0.393123  0  0.925708  0  0  0.350176  0  1.00884  0  0  0.36169  0  0.992497  0  0  0.278366  0.342049  0  1.020338  0
H  H44  1  0.17547546  0.03487327  0.57222004  1  0  0.393139  0  0.925687  0  0  0.350197  0  1.008812  0  0  0.361711  0  0.992468  0  0  0.278389  0.342077  0  1.020299  0
H  H45  1  0.77272578  0.83185176  0.35865961  1  0  0.405198  0  0.876179  0  0  0.372552  0  0.954988  0  0  0.383783  0  0.938344  0  0  0.294535  0.364472  0  0.966969  0
H  H46  1  0.22727234  0.16814906  0.64133814  1  0  0.405164  0  0.876232  0  0  0.372529  0  0.955017  0  0  0.383761  0  0.938372  0  0  0.294533  0.364455  0  0.966993  0
C  C47  1  0.67859531  0.55359850  0.22382546  1  0  0.232193  0  3.841037  0  0  0.212823  0  4.125662  0  0  0.220123  0  4.142363  0  0  0.202431  0.207905  0  4.114325  0
C  C48  1  0.32140210  0.44640057  0.77617483  1  0  0.232349  0  3.840948  0  0  0.212931  0  4.125615  0  0  0.220231  0  4.142314  0  0  0.202495  0.208013  0  4.114291  0
C  C49  1  0.58774351  0.52701049  0.10996053  1  0  0.005526  0  3.821178  0  0  0.02102  0  4.057168  0  0  0.019937  0  4.080996  0  0  -0.007548  0.021701  0  4.041062  0
C  C50  1  0.41225518  0.47298946  0.89003808  1  0  0.005413  0  3.821272  0  0  0.020938  0  4.057254  0  0  0.019856  0  4.081081  0  0  -0.007582  0.021611  0  4.041167  0
C  C51  1  0.50420716  0.59086853  0.06905819  1  0  -0.105347  0  3.760063  0  0  -0.126215  0  4.008937  0  0  -0.128394  0  4.029399  0  0  -0.089615  -0.124628  0  3.995124  0
C  C52  1  0.49579339  0.40913142  0.93094176  1  0  -0.105285  0  3.760059  0  0  -0.126151  0  4.00892  0  0  -0.128329  0  4.029383  0  0  -0.089601  -0.124569  0  3.995127  0
C  C53  1  0.58236179  0.43571907  0.03958062  1  0  -0.095006  0  3.740317  0  0  -0.113808  0  3.984612  0  0  -0.116165  0  4.005544  0  0  -0.085567  -0.112264  0  3.970632  0
C  C54  1  0.41763968  0.56428087  0.96041892  1  0  -0.094955  0  3.740353  0  0  -0.113757  0  3.984639  0  0  -0.116113  0  4.005569  0  0  -0.085562  -0.112212  0  3.97066  0
C  C55  1  0.94581755  0.54552750  0.78957795  1  0  0.240066  0  3.818236  0  0  0.228929  0  4.085358  0  0  0.235974  0  4.101663  0  0  0.202397  0.224148  0  4.074391  0
C  C56  1  0.05418430  0.45447335  0.21042320  1  0  0.239917  0  3.818308  0  0  0.228814  0  4.085384  0  0  0.23586  0  4.101689  0  0  0.202337  0.224033  0  4.074409  0
C  C57  1  0.97132669  0.52199893  0.89633797  1  0  0.019654  0  3.80604  0  0  0.036999  0  4.033163  0  0  0.03613  0  4.056499  0  0  -0.004961  0.037572  0  4.01722  0
C  C58  1  0.02867331  0.47800191  0.10366184  1  0  0.019683  0  3.806015  0  0  0.037021  0  4.033121  0  0  0.036152  0  4.056456  0  0  -0.004965  0.037596  0  4.017173  0
C  C59  1  0.07178877  0.47724962  0.94790724  1  0  -0.103842  0  3.756727  0  0  -0.124727  0  4.004118  0  0  -0.126971  0  4.025566  0  0  -0.090789  -0.123096  0  3.989553  0
C  C60  1  0.92821179  0.52275034  0.05209415  1  0  -0.103768  0  3.756685  0  0  -0.124651  0  4.004067  0  0  -0.126894  0  4.025513  0  0  -0.090745  -0.123016  0  3.989497  0
C  C61  1  0.89992214  0.54475952  0.94983068  1  0  -0.102639  0  3.763659  0  0  -0.124016  0  4.010864  0  0  -0.126395  0  4.03137  0  0  -0.092192  -0.122219  0  3.996766  0
C  C62  1  0.10007933  0.45524042  0.05016958  1  0  -0.102597  0  3.76362  0  0  -0.123966  0  4.010823  0  0  -0.126344  0  4.031331  0  0  -0.092146  -0.12217  0  3.996719  0
C  C63  1  0.72146619  0.14049495  0.46560100  1  0  0.245618  0  3.818729  0  0  0.222301  0  4.096129  0  0  0.230571  0  4.112218  0  0  0.207395  0.216674  0  4.085323  0
C  C64  1  0.27853158  0.85950500  0.53439874  1  0  0.245612  0  3.818645  0  0  0.222233  0  4.096147  0  0  0.230522  0  4.11221  0  0  0.207337  0.216632  0  4.085287  0
C  C65  1  0.60798551  0.06774645  0.48166042  1  0  0.00072  0  3.824236  0  0  0.018959  0  4.058379  0  0  0.017481  0  4.082142  0  0  -0.00926  0.019943  0  4.04227  0
C  C66  1  0.39201541  0.93225439  0.51834042  1  0  0.000774  0  3.824071  0  0  0.01899  0  4.05829  0  0  0.017506  0  4.082047  0  0  -0.009225  0.019969  0  4.042158  0
C  C67  1  0.56982533  0.94376092  0.46818650  1  0  -0.099958  0  3.750707  0  0  -0.121777  0  3.998491  0  0  -0.124509  0  4.019922  0  0  -0.092425  -0.119771  0  3.983881  0
C  C68  1  0.43017428  0.05623902  0.53181242  1  0  -0.099988  0  3.75071  0  0  -0.12178  0  3.998518  0  0  -0.124513  0  4.019949  0  0  -0.092442  -0.119782  0  3.983905  0
C  C69  1  0.53695560  0.12301211  0.51390474  1  0  -0.086324  0  3.728204  0  0  -0.10831  0  3.973764  0  0  -0.11013  0  3.994334  0  0  -0.087482  -0.106988  0  3.959803  0
C  C70  1  0.46304402  0.87698784  0.48609490  1  0  -0.086303  0  3.728139  0  0  -0.108273  0  3.973712  0  0  -0.110092  0  3.994282  0  0  -0.087465  -0.106947  0  3.95973  0
C  C71  1  0.96031670  0.02176307  0.68988090  1  0  0.4004  0  3.807086  0  0  0.325855  0  4.090159  0  0  0.354504  0  4.091414  0  0  0.17344  0.306667  0  4.088819  0
C  C72  1  0.03968423  0.97823776  0.31011922  1  0  0.400428  0  3.807156  0  0  0.325885  0  4.090228  0  0  0.354538  0  4.091478  0  0  0.173452  0.3067  0  4.088867  0
C  C73  1  0.98878623  0.22374474  0.75353520  1  0  -0.175441  0  3.659277  0  0  -0.278838  0  3.915421  0  0  -0.275125  0  3.925662  0  0  -0.133381  -0.280873  0  3.908075  0
C  C74  1  0.01121748  0.77625610  0.24646657  1  0  -0.175416  0  3.659169  0  0  -0.278823  0  3.915316  0  0  -0.275109  0  3.925555  0  0  -0.133409  -0.280851  0  3.907961  0
C  C75  1  0.14897143  0.13372355  0.86050270  1  0  -0.162835  0  3.657232  0  0  -0.257708  0  3.894172  0  0  -0.254187  0  3.904592  0  0  -0.127607  -0.25982  0  3.887069  0
C  C76  1  0.85103004  0.86627640  0.13949684  1  0  -0.162865  0  3.657216  0  0  -0.257723  0  3.894164  0  0  -0.2542  0  3.904584  0  0  -0.127641  -0.259833  0  3.887074  0
C  C77  1  0.68403902  0.73863752  0.64969096  1  0  0.39431  0  3.831277  0  0  0.315186  0  4.125124  0  0  0.343918  0  4.125769  0  0  0.169491  0.296008  0  4.124047  0
C  C78  1  0.31596245  0.26136241  0.35030787  1  0  0.394328  0  3.831179  0  0  0.315192  0  4.12502  0  0  0.343923  0  4.125667  0  0  0.169484  0.296018  0  4.123929  0
C  C79  1  0.59019361  0.68285774  0.77418491  1  0  -0.16897  0  3.676087  0  0  -0.270471  0  3.922915  0  0  -0.267415  0  3.934591  0  0  -0.127247  -0.2722  0  3.914889  0
C  C80  1  0.40980545  0.31714310  0.22581458  1  0  -0.168958  0  3.676089  0  0  -0.270425  0  3.922933  0  0  -0.267369  0  3.934609  0  0  -0.127239  -0.272152  0  3.9149  0
C  C81  1  0.45726014  0.59054565  0.58011505  1  0  -0.173805  0  3.623649  0  0  -0.272787  0  3.871848  0  0  -0.269516  0  3.88131  0  0  -0.13902  -0.274689  0  3.865402  0
C  C82  1  0.54273983  0.40945517  0.41988259  1  0  -0.173812  0  3.623605  0  0  -0.272841  0  3.871849  0  0  -0.26957  0  3.881311  0  0  -0.139036  -0.274738  0  3.865408  0
N  N83  1  0.74355201  0.48284710  0.27060254  1  0  -0.275632  0  2.922744  0  0  -0.2713  0  3.20895  0  0  -0.277217  0  3.220406  0  0  -0.217857  -0.267328  0  3.201365  0
N  N84  1  0.25644855  0.51715286  0.72939813  1  0  -0.275678  0  2.922736  0  0  -0.271318  0  3.208965  0  0  -0.277237  0  3.220426  0  0  -0.217878  -0.267329  0  3.20136  0
N  N85  1  0.81514676  0.53780373  0.37299079  1  0  -0.093991  0  3.194529  0  0  -0.045513  0  3.492668  0  0  -0.052208  0  3.509031  0  0  -0.110661  -0.040768  0  3.481627  0
N  N86  1  0.18485286  0.46219622  0.62700957  1  0  -0.094024  0  3.194398  0  0  -0.045583  0  3.492582  0  0  -0.052278  0  3.508943  0  0  -0.110693  -0.040828  0  3.481538  0
N  N87  1  0.79470164  0.63738442  0.38848326  1  0  -0.139317  0  3.216644  0  0  -0.089235  0  3.506986  0  0  -0.09857  0  3.525601  0  0  -0.123768  -0.082501  0  3.494071  0
N  N88  1  0.20529760  0.36261464  0.61151622  1  0  -0.139304  0  3.216585  0  0  -0.089209  0  3.506933  0  0  -0.098544  0  3.525547  0  0  -0.123761  -0.082486  0  3.494054  0
N  N89  1  0.70922190  0.65060584  0.29606376  1  0  -0.319218  0  2.972605  0  0  -0.295898  0  3.24362  0  0  -0.304076  0  3.256004  0  0  -0.224838  -0.289966  0  3.235077  0
N  N90  1  0.29077640  0.34939321  0.70393397  1  0  -0.31928  0  2.972577  0  0  -0.295951  0  3.243604  0  0  -0.304128  0  3.255987  0  0  -0.224829  -0.290017  0  3.235087  0
N  N91  1  0.90434203  0.63252744  0.75051696  1  0  -0.291152  0  2.921998  0  0  -0.281016  0  3.191766  0  0  -0.287767  0  3.205051  0  0  -0.227879  -0.276284  0  3.182803  0
N  N92  1  0.09565833  0.36747428  0.24948229  1  0  -0.290952  0  2.921967  0  0  -0.280817  0  3.191722  0  0  -0.287567  0  3.205007  0  0  -0.2278  -0.276075  0  3.182754  0
N  N93  1  0.90463582  0.62589632  0.65491469  1  0  -0.14416  0  3.214387  0  0  -0.091963  0  3.506944  0  0  -0.101692  0  3.524999  0  0  -0.126079  -0.085148  0  3.494333  0
N  N94  1  0.09536362  0.37410096  0.34508549  1  0  -0.144325  0  3.21429  0  0  -0.092151  0  3.506891  0  0  -0.101883  0  3.524944  0  0  -0.126134  -0.085344  0  3.494305  0
N  N95  1  0.94306135  0.53797672  0.63670411  1  0  -0.101817  0  3.225335  0  0  -0.050353  0  3.521715  0  0  -0.058095  0  3.53859  0  0  -0.122294  -0.044766  0  3.509882  0
N  N96  1  0.05693846  0.46202145  0.36329623  1  0  -0.101786  0  3.225266  0  0  -0.050306  0  3.521632  0  0  -0.058047  0  3.538506  0  0  -0.122311  -0.04472  0  3.509804  0
N  N97  1  0.96945789  0.48569501  0.71958433  1  0  -0.267721  0  2.936357  0  0  -0.256798  0  3.212227  0  0  -0.263353  0  3.22607  0  0  -0.213354  -0.252357  0  3.202678  0
N  N98  1  0.03054344  0.51430675  0.28041955  1  0  -0.267691  0  2.936352  0  0  -0.256786  0  3.212204  0  0  -0.263342  0  3.226047  0  0  -0.213295  -0.252327  0  3.202633  0
N  N99  1  0.75872522  0.25928515  0.47440876  1  0  -0.268706  0  2.936026  0  0  -0.253501  0  3.215124  0  0  -0.260652  0  3.227489  0  0  -0.208574  -0.248687  0  3.20681  0
N  N100  1  0.24127460  0.74071303  0.52559230  1  0  -0.268704  0  2.93601  0  0  -0.253475  0  3.215114  0  0  -0.260637  0  3.227482  0  0  -0.208538  -0.248687  0  3.206795  0
N  N101  1  0.86906764  0.29275270  0.46070446  1  0  -0.092312  0  3.186412  0  0  -0.047666  0  3.487267  0  0  -0.053874  0  3.502774  0  0  -0.109598  -0.043223  0  3.476696  0
N  N102  1  0.13093200  0.70724726  0.53929662  1  0  -0.092265  0  3.18639  0  0  -0.047604  0  3.487216  0  0  -0.053811  0  3.502724  0  0  -0.109606  -0.04317  0  3.476635  0
N  N103  1  0.89894708  0.19922077  0.44376861  1  0  -0.119284  0  3.167142  0  0  -0.07875  0  3.460289  0  0  -0.086403  0  3.476803  0  0  -0.115345  -0.073152  0  3.448716  0
N  N104  1  0.10105087  0.80077741  0.55623111  1  0  -0.119333  0  3.167117  0  0  -0.078803  0  3.460273  0  0  -0.086457  0  3.476787  0  0  -0.115357  -0.073207  0  3.448678  0
N  N105  1  0.80765668  0.10166442  0.44617605  1  0  -0.30061  0  3.037203  0  0  -0.258747  0  3.297796  0  0  -0.269697  0  3.311464  0  0  -0.205598  -0.250963  0  3.288348  0
N  N106  1  0.19234147  0.89833643  0.55382457  1  0  -0.300636  0  3.037173  0  0  -0.258752  0  3.297792  0  0  -0.269707  0  3.311452  0  0  -0.20563  -0.250992  0  3.288329  0
N  N107  1  0.02905679  0.12177773  0.76534551  1  0  -0.085677  0  3.505944  0  0  0.019214  0  3.738029  0  0  -0.000813  0  3.76284  0  0  -0.28009  0.03253  0  3.720852  0
N  N108  1  0.97094413  0.87822311  0.23465460  1  0  -0.085691  0  3.505892  0  0  0.019201  0  3.737967  0  0  -0.000826  0  3.762775  0  0  -0.280078  0.032517  0  3.720769  0
N  N109  1  0.58076687  0.67504596  0.66673649  1  0  -0.082023  0  3.497961  0  0  0.023994  0  3.728891  0  0  0.003858  0  3.754337  0  0  -0.279761  0.037464  0  3.711181  0
N  N110  1  0.41923237  0.32495310  0.33326226  1  0  -0.082052  0  3.49798  0  0  0.023984  0  3.728908  0  0  0.003848  0  3.754353  0  0  -0.27976  0.037452  0  3.711195  0
O  O111  1  0.98905884  0.93038501  0.69614714  1  0  -0.535923  0  2.077366  0  0  -0.472741  0  2.333418  0  0  -0.498525  0  2.323555  0  0  -0.314812  -0.455004  0  2.339712  0
O  O112  1  0.01094134  0.06961405  0.30385265  1  0  -0.53592  0  2.077369  0  0  -0.472756  0  2.333432  0  0  -0.498536  0  2.323564  0  0  -0.314832  -0.455037  0  2.339733  0
O  O113  1  0.68378950  0.73563535  0.55936943  1  0  -0.549643  0  2.07028  0  0  -0.489166  0  2.332037  0  0  -0.514773  0  2.32397  0  0  -0.31781  -0.471317  0  2.336903  0
O  O114  1  0.31621180  0.26436638  0.44063157  1  0  -0.549639  0  2.070176  0  0  -0.489152  0  2.331913  0  0  -0.51476  0  2.323847  0  0  -0.317804  -0.471317  0  2.336792  0
O  O115  1  0.84305505  0.89002305  0.42397464  1  0  -0.81926  0  1.907101  0  0  -0.752861  0  2.119563  0  0  -0.774395  0  2.084986  0  0  -0.589784  -0.737577  0  2.143761  0
O  O116  1  0.15694457  0.10997689  0.57602428  1  0  -0.81925  0  1.907151  0  0  -0.752868  0  2.119621  0  0  -0.774404  0  2.085041  0  0  -0.589807  -0.737585  0  2.143815  0
