# generated using pymatgen
data_Zn7H26C18(N4O)8
_symmetry_space_group_name_H-M   'P 1'
_cell_length_a   16.55834977
_cell_length_b   17.42655256
_cell_length_c   17.42657617
_cell_angle_alpha   81.50039685
_cell_angle_beta   84.32969188
_cell_angle_gamma   84.32965014
_symmetry_Int_Tables_number   1
_chemical_formula_structural   Zn7H26C18(N4O)8
_chemical_formula_sum   'Zn28 H104 C72 N128 O32'
_cell_volume   4930.81558267
_cell_formula_units_Z   4
loop_
 _symmetry_equiv_pos_site_id
 _symmetry_equiv_pos_as_xyz
  1  'x, y, z'
loop_
 _atom_site_type_symbol
 _atom_site_label
 _atom_site_symmetry_multiplicity
 _atom_site_fract_x
 _atom_site_fract_y
 _atom_site_fract_z
 _atom_site_occupancy
 _atom_site_pbe_bader_charge
 _atom_site_pbe_bader_spin_density
 _atom_site_pbe_cm5_charge
 _atom_site_pbe_ddec_charge
 _atom_site_pbe_ddec_spin_density
 _atom_site_pbe_ddec_sum_bond_order
 _atom_site_pbe_magmom
Zn  Zn0  1  0.95622452  0.51792954  0.24657490  1  1.232001  0  0.713883  0.731291  0  2.516666  0
Zn  Zn1  1  0.13775572  0.06758057  0.28801898  1  1.209595  0  0.709306  0.732363  0  2.527587  0
Zn  Zn2  1  0.22683928  0.24735071  0.25676984  1  1.261788  0  0.688522  0.569066  0  2.554749  0
Zn  Zn3  1  0.32043174  0.42716213  0.22709529  1  1.236751  0  0.726544  0.725704  0  2.50607  0
Zn  Zn4  1  0.95901454  0.78779790  0.41591999  1  1.242817  0  0.691566  0.827606  0  2.448634  0
Zn  Zn5  1  0.99244359  0.75962497  0.01478996  1  1.231361  0  0.712281  0.742802  0  2.440913  0
Zn  Zn6  1  0.98018332  0.95519291  0.27481663  1  1.243065  0  0.670707  0.85031  0  2.415843  0
Zn  Zn7  1  0.54377534  0.75342571  0.48206989  1  1.232059  0  0.713886  0.731278  0  2.516683  0
Zn  Zn8  1  0.36224392  0.71198021  0.93241903  1  1.209605  0  0.709265  0.732289  0  2.527691  0
Zn  Zn9  1  0.27316086  0.74322995  0.75264952  1  1.261782  0  0.6885  0.569052  0  2.554763  0
Zn  Zn10  1  0.17956909  0.77290481  0.57283720  1  1.236781  0  0.726528  0.725702  0  2.50606  0
Zn  Zn11  1  0.54098561  0.58408047  0.21220197  1  1.2428  0  0.691563  0.827603  0  2.448636  0
Zn  Zn12  1  0.50755649  0.98521043  0.24037510  1  1.231296  0  0.712274  0.742767  0  2.440935  0
Zn  Zn13  1  0.51981665  0.72518346  0.04480714  1  1.243101  0  0.670713  0.850324  0  2.415849  0
Zn  Zn14  1  0.04377418  0.48206982  0.75342537  1  1.232014  0  0.713867  0.731244  0  2.516728  0
Zn  Zn15  1  0.86224475  0.93241937  0.71198104  1  1.209585  0  0.709275  0.732329  0  2.527552  0
Zn  Zn16  1  0.77316058  0.75264923  0.74323081  1  1.261812  0  0.688501  0.569031  0  2.554819  0
Zn  Zn17  1  0.67956883  0.57283665  0.77290431  1  1.236808  0  0.726516  0.725711  0  2.506072  0
Zn  Zn18  1  0.04098400  0.21220321  0.58408005  1  1.242824  0  0.691557  0.827592  0  2.448632  0
Zn  Zn19  1  0.00755682  0.24037555  0.98521113  1  1.231372  0  0.712307  0.742787  0  2.440825  0
Zn  Zn20  1  0.01981704  0.04480820  0.72518209  1  1.243095  0  0.670735  0.850318  0  2.415914  0
Zn  Zn21  1  0.45622396  0.24657365  0.51793033  1  1.232038  0  0.713878  0.731248  0  2.516702  0
Zn  Zn22  1  0.63775538  0.28801915  0.06758119  1  1.209601  0  0.709289  0.732322  0  2.527608  0
Zn  Zn23  1  0.72683905  0.25676941  0.24735007  1  1.2618  0  0.688495  0.569009  0  2.554844  0
Zn  Zn24  1  0.82043072  0.22709572  0.42716223  1  1.236771  0  0.726515  0.725706  0  2.506058  0
Zn  Zn25  1  0.45901435  0.41591831  0.78779885  1  1.242914  0  0.691569  0.827597  0  2.448679  0
Zn  Zn26  1  0.49244403  0.01478893  0.75962557  1  1.231368  0  0.712291  0.742791  0  2.440939  0
Zn  Zn27  1  0.48018321  0.27481648  0.95519179  1  1.243112  0  0.670711  0.85028  0  2.415878  0
H  H28  1  0.11311807  0.93105980  0.33969062  1  0.623505  0  0.269848  0.362114  0  0.992524  0
H  H29  1  0.85802837  0.89531342  0.35085168  1  0.565768  0  0.295863  0.37919  0  0.920924  0
H  H30  1  0.18196848  0.34635702  0.10318410  1  0.456282  0  0.309421  0.31769  0  0.956591  0
H  H31  1  0.12636129  0.33952046  0.02235936  1  0.539537  0  0.298003  0.336613  0  0.983234  0
H  H32  1  0.03000618  0.09401681  0.12695359  1  0.137191  0  0.131572  0.093004  0  1.025516  0
H  H33  1  0.21140935  0.58095030  0.18493370  1  0.496266  0  0.285797  0.306809  0  1.010609  0
H  H34  1  0.10533222  0.60244553  0.18499967  1  0.521442  0  0.289152  0.318652  0  1.01287  0
H  H35  1  0.03909360  0.34219508  0.26311770  1  0.127201  0  0.133594  0.100138  0  0.990475  0
H  H36  1  0.27145588  0.16270388  0.11653340  1  0.474051  0  0.309506  0.315618  0  0.955141  0
H  H37  1  0.33140167  0.16614333  0.03103558  1  0.460748  0  0.313616  0.313237  0  0.935319  0
H  H38  1  0.45497247  0.39285963  0.07339908  1  0.124289  0  0.129155  0.093781  0  1.04163  0
H  H39  1  0.91816208  0.35484573  0.46183697  1  0.495552  0  0.306012  0.32136  0  0.949226  0
H  H40  1  0.93638519  0.44750593  0.41837857  1  0.467455  0  0.30933  0.314179  0  0.951318  0
H  H41  1  0.82136300  0.42179775  0.18236708  1  0.148834  0  0.139593  0.111307  0  0.968271  0
H  H42  1  0.07421450  0.01458635  0.46112382  1  0.457676  0  0.307633  0.312079  0  0.948073  0
H  H43  1  0.06213390  0.05920507  0.54388151  1  0.485535  0  0.29401  0.305015  0  0.986991  0
H  H44  1  0.12519051  0.30869391  0.42004837  1  0.135926  0  0.135855  0.104703  0  0.991312  0
H  H45  1  0.25782737  0.90434872  0.29995034  1  0.509544  0  0.304178  0.32491  0  0.959062  0
H  H46  1  0.35795055  0.88824454  0.26366170  1  0.469547  0  0.302579  0.309776  0  0.979387  0
H  H47  1  0.41767675  0.15344917  0.25739763  1  0.121374  0  0.132043  0.098048  0  0.987815  0
H  H48  1  0.05307486  0.79565694  0.25588852  1  0.479065  0  0.293467  0.312905  0  0.990714  0
H  H49  1  0.02587572  0.73240806  0.19430517  1  0.528159  0  0.290031  0.31505  0  1.019923  0
H  H50  1  0.94447604  0.02331629  0.09267953  1  0.106055  0  0.122945  0.083597  0  1.034164  0
H  H51  1  0.73553878  0.66338690  0.44100500  1  0.519385  0  0.282256  0.285163  0  1.048122  0
H  H52  1  0.78716857  0.74122768  0.45180832  1  0.425933  0  0.302061  0.294663  0  0.957539  0
H  H53  1  0.03982365  0.64907183  0.32527756  1  0.130769  0  0.136431  0.105803  0  0.990002  0
H  H54  1  0.38688265  0.66030891  0.06893981  1  0.623515  0  0.269851  0.362141  0  0.992494  0
H  H55  1  0.64197218  0.64914903  0.10468623  1  0.565759  0  0.295857  0.379189  0  0.920923  0
H  H56  1  0.31803070  0.89681663  0.65364420  1  0.456307  0  0.309417  0.317677  0  0.956598  0
H  H57  1  0.37363830  0.97764110  0.66048033  1  0.539585  0  0.297982  0.336593  0  0.983265  0
H  H58  1  0.46999457  0.87304440  0.90598331  1  0.137175  0  0.131587  0.093032  0  1.025529  0
H  H59  1  0.28859183  0.81506705  0.41904882  1  0.496271  0  0.285805  0.306823  0  1.010594  0
H  H60  1  0.39466822  0.81500185  0.39755431  1  0.521441  0  0.28915  0.318651  0  1.012883  0
H  H61  1  0.46090720  0.73688245  0.65780622  1  0.127166  0  0.133587  0.100116  0  0.990501  0
H  H62  1  0.22854331  0.88346619  0.83729571  1  0.47396  0  0.309494  0.315614  0  0.955121  0
H  H63  1  0.16859937  0.96896429  0.83385602  1  0.460749  0  0.313617  0.313232  0  0.93534  0
H  H64  1  0.04502854  0.92660058  0.60713842  1  0.124266  0  0.129154  0.09374  0  1.041676  0
H  H65  1  0.58183831  0.53816212  0.64515220  1  0.495561  0  0.305997  0.321359  0  0.949245  0
H  H66  1  0.56361628  0.58162039  0.55249309  1  0.467304  0  0.309314  0.314214  0  0.951263  0
H  H67  1  0.67863562  0.81763190  0.57820305  1  0.148835  0  0.1396  0.111387  0  0.968283  0
H  H68  1  0.42578366  0.53887341  0.98541303  1  0.457707  0  0.307639  0.312058  0  0.948205  0
H  H69  1  0.43786384  0.45611637  0.94079596  1  0.485447  0  0.294042  0.305079  0  0.986937  0
H  H70  1  0.37480995  0.57995101  0.69130550  1  0.136134  0  0.135858  0.104705  0  0.991283  0
H  H71  1  0.24217269  0.70004972  0.09565029  1  0.509548  0  0.304186  0.324935  0  0.959019  0
H  H72  1  0.14204942  0.73633847  0.11175520  1  0.469556  0  0.302577  0.309786  0  0.979381  0
H  H73  1  0.08232301  0.74260307  0.84655042  1  0.12136  0  0.132042  0.098043  0  0.987806  0
H  H74  1  0.44692356  0.74411122  0.20434473  1  0.479062  0  0.293501  0.312963  0  0.990656  0
H  H75  1  0.47412408  0.80569384  0.26759356  1  0.528141  0  0.29005  0.31506  0  1.019868  0
H  H76  1  0.55552228  0.90732020  0.97668480  1  0.106075  0  0.12297  0.083625  0  1.034133  0
H  H77  1  0.76446325  0.55899492  0.33661356  1  0.519354  0  0.282293  0.285266  0  1.048022  0
H  H78  1  0.71283077  0.54819118  0.25877324  1  0.425963  0  0.302055  0.294681  0  0.957538  0
H  H79  1  0.46017685  0.67472325  0.35092594  1  0.130778  0  0.13638  0.105745  0  0.990061  0
H  H80  1  0.88688108  0.06894131  0.66030993  1  0.62347  0  0.269872  0.362139  0  0.992518  0
H  H81  1  0.14197260  0.10468769  0.64914756  1  0.565763  0  0.295879  0.379229  0  0.920879  0
H  H82  1  0.81803128  0.65364408  0.89681640  1  0.456329  0  0.30939  0.317637  0  0.956636  0
H  H83  1  0.87363862  0.66047890  0.97764195  1  0.53957  0  0.298027  0.336662  0  0.9832  0
H  H84  1  0.96999489  0.90598313  0.87304638  1  0.137168  0  0.131578  0.093011  0  1.025555  0
H  H85  1  0.78859122  0.41904848  0.81506648  1  0.496269  0  0.285802  0.306832  0  1.010565  0
H  H86  1  0.89466764  0.39755441  0.81500098  1  0.521439  0  0.289133  0.318622  0  1.0129  0
H  H87  1  0.96090616  0.65780602  0.73688452  1  0.127183  0  0.133585  0.100121  0  0.9905  0
H  H88  1  0.72854453  0.83729665  0.88346598  1  0.474036  0  0.30949  0.315607  0  0.955148  0
H  H89  1  0.66859925  0.83385836  0.96896358  1  0.460761  0  0.313599  0.313169  0  0.935396  0
H  H90  1  0.54502800  0.60714032  0.92659864  1  0.124302  0  0.129168  0.093815  0  1.04165  0
H  H91  1  0.08183793  0.64515248  0.53816162  1  0.495553  0  0.306002  0.321363  0  0.949248  0
H  H92  1  0.06361472  0.55249344  0.58162044  1  0.467438  0  0.309318  0.314152  0  0.951281  0
H  H93  1  0.17863509  0.57820162  0.81763210  1  0.148829  0  0.139604  0.111362  0  0.968286  0
H  H94  1  0.92578404  0.98541476  0.53887565  1  0.457716  0  0.307618  0.312022  0  0.948142  0
H  H95  1  0.93786398  0.94079662  0.45611793  1  0.48554  0  0.293975  0.304999  0  0.987065  0
H  H96  1  0.87480990  0.69130661  0.57995158  1  0.135947  0  0.135857  0.104673  0  0.9913  0
H  H97  1  0.74217249  0.09565123  0.70004974  1  0.509555  0  0.304197  0.324932  0  0.959039  0
H  H98  1  0.64204930  0.11175540  0.73633896  1  0.469547  0  0.302587  0.309783  0  0.979371  0
H  H99  1  0.58232377  0.84655019  0.74260247  1  0.121375  0  0.132035  0.098048  0  0.987844  0
H  H100  1  0.94692368  0.20434417  0.74411152  1  0.479066  0  0.293463  0.312878  0  0.990738  0
H  H101  1  0.97412343  0.26759305  0.80569481  1  0.52814  0  0.290048  0.315085  0  1.019872  0
H  H102  1  0.05552448  0.97668307  0.90731885  1  0.106023  0  0.122956  0.083622  0  1.034199  0
H  H103  1  0.26446224  0.33661363  0.55899374  1  0.519379  0  0.282256  0.285197  0  1.048052  0
H  H104  1  0.21283053  0.25877402  0.54818986  1  0.425909  0  0.302067  0.294696  0  0.957545  0
H  H105  1  0.96017686  0.35092753  0.67472370  1  0.130772  0  0.13641  0.105772  0  0.990025  0
H  H106  1  0.61311781  0.33969104  0.93105964  1  0.623502  0  0.269845  0.362113  0  0.992524  0
H  H107  1  0.35802712  0.35085033  0.89531456  1  0.565733  0  0.29586  0.379216  0  0.920895  0
H  H108  1  0.68196905  0.10318448  0.34635515  1  0.456331  0  0.309437  0.317672  0  0.956637  0
H  H109  1  0.62636211  0.02235943  0.33952019  1  0.539534  0  0.29799  0.336606  0  0.983245  0
H  H110  1  0.53000469  0.12695554  0.09401683  1  0.137164  0  0.131585  0.093022  0  1.025531  0
H  H111  1  0.71140869  0.18493232  0.58095013  1  0.49628  0  0.28581  0.306833  0  1.010657  0
H  H112  1  0.60533230  0.18499751  0.60244522  1  0.521426  0  0.289131  0.318628  0  1.012907  0
H  H113  1  0.53909327  0.26311749  0.34219323  1  0.127166  0  0.133584  0.100118  0  0.990496  0
H  H114  1  0.77145660  0.11653318  0.16270330  1  0.474061  0  0.30951  0.315593  0  0.955155  0
H  H115  1  0.83140155  0.03103741  0.16614199  1  0.460788  0  0.313592  0.313183  0  0.935362  0
H  H116  1  0.95497122  0.07340053  0.39286093  1  0.124294  0  0.129173  0.093793  0  1.041646  0
H  H117  1  0.41816363  0.46183492  0.35484581  1  0.495588  0  0.306018  0.321371  0  0.949232  0
H  H118  1  0.43638626  0.41837665  0.44750544  1  0.467493  0  0.309336  0.314168  0  0.951343  0
H  H119  1  0.32136186  0.18236746  0.42179734  1  0.148828  0  0.139582  0.111336  0  0.968247  0
H  H120  1  0.57421619  0.46112654  0.01458705  1  0.457706  0  0.307635  0.312052  0  0.948201  0
H  H121  1  0.56213597  0.54388415  0.05920404  1  0.485476  0  0.294036  0.305077  0  0.98692  0
H  H122  1  0.62519062  0.42004776  0.30869468  1  0.136131  0  0.135869  0.104724  0  0.99127  0
H  H123  1  0.75782717  0.29995022  0.90434921  1  0.509541  0  0.304188  0.324922  0  0.959042  0
H  H124  1  0.85795043  0.26366148  0.88824488  1  0.46957  0  0.302597  0.309792  0  0.979386  0
H  H125  1  0.91767614  0.25739803  0.15345013  1  0.121368  0  0.13203  0.098051  0  0.987837  0
H  H126  1  0.55307569  0.25588872  0.79565655  1  0.479064  0  0.293452  0.312901  0  0.990716  0
H  H127  1  0.52587583  0.19430552  0.73240832  1  0.52816  0  0.290057  0.31507  0  1.0199  0
H  H128  1  0.44447637  0.09267974  0.02331597  1  0.106061  0  0.122948  0.083607  0  1.034154  0
H  H129  1  0.23553616  0.44100328  0.66338739  1  0.519309  0  0.282284  0.285212  0  1.048069  0
H  H130  1  0.28716864  0.45180701  0.74122828  1  0.425934  0  0.302043  0.294648  0  0.957565  0
H  H131  1  0.53982306  0.32527611  0.64907422  1  0.13076  0  0.136386  0.105744  0  0.990032  0
C  C132  1  0.95393143  0.62721561  0.11998496  1  2.156822  0  0.253519  0.832381  0  4.278974  0
C  C133  1  0.37441347  0.58296948  0.19111467  1  2.143827  0  0.25847  0.828048  0  4.278488  0
C  C134  1  0.12668127  0.24653452  0.10874349  1  1.490481  0  0.318815  0.520104  0  4.120999  0
C  C135  1  0.06665040  0.14071320  0.13271237  1  1.004148  0  0.140607  0.155539  0  4.033905  0
C  C136  1  0.14183354  0.49137470  0.22132327  1  1.521009  0  0.323675  0.538642  0  4.115931  0
C  C137  1  0.08466850  0.38388921  0.24908927  1  0.987994  0  0.136684  0.147952  0  4.032088  0
C  C138  1  0.34921289  0.24592870  0.10004495  1  1.508997  0  0.317151  0.510509  0  4.117166  0
C  C139  1  0.41315873  0.34816626  0.09205387  1  1.005256  0  0.13313  0.149974  0  4.019955  0
C  C140  1  0.88394231  0.38371484  0.35246011  1  1.527207  0  0.321578  0.518223  0  4.113058  0
C  C141  1  0.83466071  0.39869345  0.24151499  1  0.994607  0  0.140828  0.143716  0  4.006367  0
C  C142  1  0.08565942  0.13056704  0.44469285  1  1.501072  0  0.318432  0.516494  0  4.11462  0
C  C143  1  0.11555545  0.24890268  0.41553558  1  1.003959  0  0.140013  0.14924  0  4.013677  0
C  C144  1  0.31949723  0.00232925  0.27068131  1  1.505077  0  0.325719  0.54105  0  4.101989  0
C  C145  1  0.37321674  0.11067350  0.26399848  1  1.022765  0  0.132548  0.144085  0  4.04075  0
C  C146  1  0.00657055  0.84716465  0.15402861  1  1.496117  0  0.31578  0.535908  0  4.10615  0
C  C147  1  0.96122126  0.96109336  0.10222812  1  0.968659  0  0.11029  0.117597  0  4.092392  0
C  C148  1  0.85634583  0.65551157  0.40373960  1  1.46592  0  0.308956  0.514127  0  4.11892  0
C  C149  1  0.97708256  0.64080332  0.34690299  1  0.996255  0  0.134342  0.147702  0  4.034838  0
C  C150  1  0.54607115  0.88001734  0.37278599  1  2.156925  0  0.253507  0.832358  0  4.27874  0
C  C151  1  0.12558665  0.80888483  0.41703044  1  2.143841  0  0.258513  0.828139  0  4.278351  0
C  C152  1  0.37331993  0.89125690  0.75346542  1  1.490496  0  0.318851  0.520248  0  4.120993  0
C  C153  1  0.43335055  0.86728642  0.85928759  1  1.004647  0  0.140604  0.155569  0  4.033849  0
C  C154  1  0.35816676  0.77867665  0.50862603  1  1.521041  0  0.323623  0.538462  0  4.11616  0
C  C155  1  0.41533251  0.75091098  0.61611097  1  0.987986  0  0.136765  0.148082  0  4.032059  0
C  C156  1  0.15078694  0.89995619  0.75406929  1  1.508887  0  0.317121  0.510477  0  4.117256  0
C  C157  1  0.08684119  0.90794422  0.65183186  1  1.005253  0  0.133215  0.150127  0  4.019925  0
C  C158  1  0.61605789  0.64753830  0.61628519  1  1.527262  0  0.321556  0.518244  0  4.113065  0
C  C159  1  0.66533851  0.75848417  0.60130753  1  0.994672  0  0.140706  0.14346  0  4.006463  0
C  C160  1  0.41433831  0.55530810  0.86943465  1  1.501062  0  0.318399  0.516515  0  4.114681  0
C  C161  1  0.38444261  0.58446435  0.75109733  1  1.00374  0  0.140069  0.149302  0  4.013567  0
C  C162  1  0.18050290  0.72931946  0.99767055  1  1.505103  0  0.325723  0.54109  0  4.101933  0
C  C163  1  0.12678367  0.73600321  0.88932605  1  1.022779  0  0.132479  0.143998  0  4.040825  0
C  C164  1  0.49342813  0.84597087  0.15283631  1  1.496114  0  0.315774  0.535906  0  4.106036  0
C  C165  1  0.53877777  0.89777123  0.03890633  1  0.968661  0  0.110261  0.117607  0  4.092178  0
C  C166  1  0.64365472  0.59626049  0.34449073  1  1.465933  0  0.308967  0.514046  0  4.118965  0
C  C167  1  0.52291922  0.65309827  0.35919398  1  0.996787  0  0.134368  0.147735  0  4.035024  0
C  C168  1  0.04606893  0.37278550  0.88001491  1  2.156802  0  0.253449  0.832224  0  4.279011  0
C  C169  1  0.62558644  0.41702988  0.80888549  1  2.143686  0  0.258421  0.827999  0  4.278469  0
C  C170  1  0.87332041  0.75346542  0.89125814  1  1.490471  0  0.318814  0.520163  0  4.120976  0
C  C171  1  0.93335062  0.85928733  0.86728752  1  1.004695  0  0.1406  0.155528  0  4.033941  0
C  C172  1  0.85816627  0.50862583  0.77867616  1  1.520988  0  0.323658  0.538557  0  4.116001  0
C  C173  1  0.91533251  0.61611130  0.75091292  1  0.987896  0  0.136727  0.14809  0  4.031949  0
C  C174  1  0.65078758  0.75407124  0.89995564  1  1.509633  0  0.317144  0.510472  0  4.117223  0
C  C175  1  0.58684189  0.65183195  0.90794352  1  1.005235  0  0.133099  0.149908  0  4.01997  0
C  C176  1  0.11605755  0.61628511  0.64753882  1  1.527251  0  0.321584  0.5182  0  4.113068  0
C  C177  1  0.16533662  0.60130767  0.75848458  1  0.994562  0  0.140819  0.143604  0  4.006467  0
C  C178  1  0.91433973  0.86943407  0.55530713  1  1.501031  0  0.318364  0.516344  0  4.11483  0
C  C179  1  0.88444370  0.75109843  0.58446440  1  1.003971  0  0.140048  0.149365  0  4.013637  0
C  C180  1  0.68050263  0.99767069  0.72931992  1  1.505084  0  0.325723  0.541081  0  4.101986  0
C  C181  1  0.62678372  0.88932644  0.73600212  1  1.022777  0  0.132502  0.144037  0  4.040853  0
C  C182  1  0.99342870  0.15283529  0.84597152  1  1.496092  0  0.31573  0.535847  0  4.1061  0
C  C183  1  0.03877820  0.03890427  0.89776889  1  0.96842  0  0.110287  0.117609  0  4.092242  0
C  C184  1  0.14365438  0.34449129  0.59625889  1  1.465869  0  0.309033  0.514277  0  4.118792  0
C  C185  1  0.02291791  0.35919662  0.65309761  1  0.996274  0  0.134398  0.147767  0  4.034846  0
C  C186  1  0.45393053  0.11998260  0.62721564  1  2.156827  0  0.253465  0.832229  0  4.278988  0
C  C187  1  0.87441194  0.19111570  0.58296967  1  2.143898  0  0.258448  0.827974  0  4.278521  0
C  C188  1  0.62667993  0.10874305  0.24653409  1  1.490215  0  0.318799  0.520131  0  4.121033  0
C  C189  1  0.56664931  0.13271352  0.14071249  1  1.004656  0  0.140633  0.155616  0  4.033881  0
C  C190  1  0.64183310  0.22132329  0.49137405  1  1.521075  0  0.323586  0.538364  0  4.11622  0
C  C191  1  0.58466740  0.24908838  0.38388861  1  0.987506  0  0.136715  0.148021  0  4.032022  0
C  C192  1  0.84921338  0.10004551  0.24592877  1  1.508828  0  0.317119  0.510389  0  4.117201  0
C  C193  1  0.91315802  0.09205631  0.34816705  1  1.005254  0  0.13315  0.150042  0  4.02005  0
C  C194  1  0.38394213  0.35245990  0.38371512  1  1.527247  0  0.321503  0.518081  0  4.113019  0
C  C195  1  0.33466089  0.24151402  0.39869226  1  0.994855  0  0.140732  0.143531  0  4.006427  0
C  C196  1  0.58566161  0.44469127  0.13056493  1  1.50107  0  0.318346  0.516382  0  4.114719  0
C  C197  1  0.61555791  0.41553501  0.24890278  1  1.003747  0  0.140047  0.149308  0  4.013631  0
C  C198  1  0.81949691  0.27068107  0.00232945  1  1.505098  0  0.325729  0.541088  0  4.101926  0
C  C199  1  0.87321609  0.26399790  0.11067444  1  1.022768  0  0.132463  0.143944  0  4.040816  0
C  C200  1  0.50657122  0.15402790  0.84716456  1  1.49624  0  0.315789  0.535957  0  4.105943  0
C  C201  1  0.46122093  0.10222813  0.96109336  1  0.968661  0  0.110282  0.117583  0  4.092354  0
C  C202  1  0.35634468  0.40373770  0.65551079  1  1.465931  0  0.308909  0.514054  0  4.118981  0
C  C203  1  0.47708134  0.34690050  0.64080620  1  0.996875  0  0.134362  0.147733  0  4.034964  0
N  N204  1  0.07235930  0.20580481  0.07996724  1  -1.226164  0  -0.368209  -0.416716  0  3.432983  0
N  N205  1  0.15277507  0.20787694  0.17593109  1  -0.797272  0  -0.276255  -0.341122  0  3.363121  0
N  N206  1  0.11253058  0.13994880  0.19086716  1  -0.852861  0  -0.280215  -0.223431  0  3.580674  0
N  N207  1  0.15232513  0.31471358  0.07254131  1  -1.296925  0  -0.591073  -0.671207  0  3.310494  0
N  N208  1  0.06727970  0.46242167  0.23686220  1  -1.244662  0  -0.376928  -0.430087  0  3.494322  0
N  N209  1  0.20108192  0.43266123  0.22387103  1  -0.836491  0  -0.295202  -0.33835  0  3.468251  0
N  N210  1  0.16369077  0.36353673  0.24235407  1  -0.800455  0  -0.26157  -0.205865  0  3.499553  0
N  N211  1  0.15389804  0.56786175  0.20788467  1  -1.317951  0  -0.599821  -0.6831  0  3.274812  0
N  N212  1  0.41081053  0.28363503  0.05724527  1  -1.270141  0  -0.375773  -0.452965  0  3.477449  0
N  N213  1  0.31658797  0.28410408  0.15859819  1  -0.790045  0  -0.260921  -0.312158  0  3.341048  0
N  N214  1  0.35835556  0.35017660  0.15232910  1  -0.83034  0  -0.271679  -0.205996  0  3.572554  0
N  N215  1  0.32577014  0.17610185  0.08732514  1  -1.246312  0  -0.585836  -0.651948  0  3.274725  0
N  N216  1  0.88413617  0.43119993  0.28312446  1  -1.258827  0  -0.373568  -0.417465  0  3.48615  0
N  N217  1  0.83699555  0.32537776  0.35295147  1  -0.829349  0  -0.282623  -0.318016  0  3.440687  0
N  N218  1  0.80582689  0.33502167  0.28108347  1  -0.793764  0  -0.254847  -0.191358  0  3.505848  0
N  N219  1  0.92976479  0.39159332  0.41156496  1  -1.286421  0  -0.585741  -0.66748  0  3.261244  0
N  N220  1  0.08306542  0.19841427  0.47519723  1  -1.255915  0  -0.377923  -0.443668  0  3.511044  0
N  N221  1  0.11642718  0.13937240  0.37044117  1  -0.807344  0  -0.282191  -0.322279  0  3.449472  0
N  N222  1  0.13633097  0.21564208  0.35221045  1  -0.799298  0  -0.254466  -0.191549  0  3.476964  0
N  N223  1  0.05680733  0.06405078  0.48521450  1  -1.264739  0  -0.590059  -0.664198  0  3.301214  0
N  N224  1  0.39306881  0.03329151  0.26156273  1  -1.245885  0  -0.370683  -0.431629  0  3.476604  0
N  N225  1  0.25874134  0.05863067  0.27830660  1  -0.796719  0  -0.291111  -0.336967  0  3.461467  0
N  N226  1  0.29387245  0.12838565  0.27436941  1  -0.823991  0  -0.257286  -0.209601  0  3.460925  0
N  N227  1  0.30805818  0.92662252  0.26939445  1  -1.284348  0  -0.586536  -0.656805  0  3.27538  0
N  N228  1  0.98957709  0.92153372  0.17034788  1  -1.292398  0  -0.389654  -0.479433  0  3.511238  0
N  N229  1  0.98763016  0.84260175  0.08149404  1  -0.823466  0  -0.290904  -0.32821  0  3.496776  0
N  N230  1  0.95859089  0.91623464  0.04839281  1  -0.731491  0  -0.265061  -0.244103  0  3.245814  0
N  N231  1  0.04146066  0.78660784  0.20161761  1  -1.308919  0  -0.597433  -0.691093  0  3.302194  0
N  N232  1  0.92936380  0.68853914  0.39073470  1  -1.265255  0  -0.386939  -0.454927  0  3.541892  0
N  N233  1  0.85891138  0.59102779  0.37016500  1  -0.759024  0  -0.260789  -0.342751  0  3.15548  0
N  N234  1  0.93713584  0.58253125  0.33365035  1  -0.846177  0  -0.281704  -0.228921  0  3.627401  0
N  N235  1  0.79084352  0.68326667  0.44881453  1  -1.257782  0  -0.593815  -0.664147  0  3.310659  0
N  N236  1  0.42764215  0.92003168  0.79419515  1  -1.226156  0  -0.368201  -0.416774  0  3.432952  0
N  N237  1  0.34722598  0.82406761  0.79212239  1  -0.797256  0  -0.276274  -0.341215  0  3.363147  0
N  N238  1  0.38747077  0.80913180  0.86005103  1  -0.85341  0  -0.280203  -0.223414  0  3.580696  0
N  N239  1  0.34767602  0.92745833  0.68528668  1  -1.296985  0  -0.591098  -0.67125  0  3.310522  0
N  N240  1  0.43272095  0.76313898  0.53757896  1  -1.244671  0  -0.376875  -0.429946  0  3.494323  0
N  N241  1  0.29891869  0.77612921  0.56733977  1  -0.836769  0  -0.295169  -0.338216  0  3.468217  0
N  N242  1  0.33631096  0.75764577  0.63646357  1  -0.800168  0  -0.261663  -0.20607  0  3.499581  0
N  N243  1  0.34610255  0.79211721  0.43213940  1  -1.317956  0  -0.599823  -0.683092  0  3.27493  0
N  N244  1  0.08918983  0.94275439  0.71636317  1  -1.270092  0  -0.375832  -0.452996  0  3.477427  0
N  N245  1  0.18341244  0.84140160  0.71589580  1  -0.789987  0  -0.260896  -0.312111  0  3.34104  0
N  N246  1  0.14164328  0.84766826  0.64982463  1  -0.8304  0  -0.271699  -0.206063  0  3.572601  0
N  N247  1  0.17422955  0.91267465  0.82389712  1  -1.246167  0  -0.585822  -0.651949  0  3.274732  0
N  N248  1  0.61586468  0.71687429  0.56880008  1  -1.258856  0  -0.373494  -0.417366  0  3.486091  0
N  N249  1  0.66300513  0.64704635  0.67462225  1  -0.82947  0  -0.282585  -0.317991  0  3.440526  0
N  N250  1  0.69417241  0.71891514  0.66498037  1  -0.793761  0  -0.254819  -0.191321  0  3.505715  0
N  N251  1  0.57023581  0.58843390  0.60840609  1  -1.286323  0  -0.585694  -0.667509  0  3.261286  0
N  N252  1  0.41693576  0.52480199  0.80158603  1  -1.255953  0  -0.377941  -0.44374  0  3.510833  0
N  N253  1  0.38357248  0.62955782  0.86062643  1  -0.807602  0  -0.282169  -0.322268  0  3.449567  0
N  N254  1  0.36366964  0.64778908  0.78435817  1  -0.799073  0  -0.254448  -0.191479  0  3.476976  0
N  N255  1  0.44319125  0.51478405  0.93594898  1  -1.264712  0  -0.590117  -0.664293  0  3.30142  0
N  N256  1  0.10693188  0.73843822  0.96670795  1  -1.245903  0  -0.370642  -0.431604  0  3.476569  0
N  N257  1  0.24125881  0.72169340  0.94136941  1  -0.796733  0  -0.291107  -0.336982  0  3.461485  0
N  N258  1  0.20612818  0.72563175  0.87161388  1  -0.824002  0  -0.257252  -0.209522  0  3.460954  0
N  N259  1  0.19194186  0.73060614  0.07337647  1  -1.284337  0  -0.58652  -0.656826  0  3.275321  0
N  N260  1  0.51042063  0.82965116  0.07846708  1  -1.292451  0  -0.389651  -0.479461  0  3.511143  0
N  N261  1  0.51236953  0.91850533  0.15739932  1  -0.823464  0  -0.290862  -0.328111  0  3.496679  0
N  N262  1  0.54140903  0.95160652  0.08376547  1  -0.731423  0  -0.265085  -0.244195  0  3.245745  0
N  N263  1  0.45853889  0.79838216  0.21339384  1  -1.308938  0  -0.597485  -0.691166  0  3.302144  0
N  N264  1  0.57063794  0.60926541  0.31146031  1  -1.265236  0  -0.386965  -0.454945  0  3.541891  0
N  N265  1  0.64108769  0.62983562  0.40897313  1  -0.758894  0  -0.260778  -0.342613  0  3.155499  0
N  N266  1  0.56286361  0.66635130  0.41746671  1  -0.846715  0  -0.281673  -0.228945  0  3.627505  0
N  N267  1  0.70915677  0.55118521  0.31673433  1  -1.257779  0  -0.59387  -0.664281  0  3.310542  0
N  N268  1  0.92764117  0.79419512  0.92003393  1  -1.226171  0  -0.368283  -0.416831  0  3.433068  0
N  N269  1  0.84722479  0.79212300  0.82406956  1  -0.797163  0  -0.276254  -0.34117  0  3.36305  0
N  N270  1  0.88747054  0.86005056  0.80913346  1  -0.853485  0  -0.280152  -0.223332  0  3.580574  0
N  N271  1  0.84767660  0.68528578  0.92745983  1  -1.296981  0  -0.59107  -0.671218  0  3.310502  0
N  N272  1  0.93272010  0.53757885  0.76314009  1  -1.244557  0  -0.376835  -0.429997  0  3.494267  0
N  N273  1  0.79891849  0.56733929  0.77612949  1  -0.836477  0  -0.295209  -0.338269  0  3.468227  0
N  N274  1  0.83630965  0.63646378  0.75764760  1  -0.800482  0  -0.261624  -0.206034  0  3.499515  0
N  N275  1  0.84610237  0.43213877  0.79211585  1  -1.317928  0  -0.599824  -0.683098  0  3.274833  0
N  N276  1  0.58918989  0.71636550  0.94275353  1  -1.270032  0  -0.375772  -0.452945  0  3.477374  0
N  N277  1  0.68341289  0.71589819  0.84140089  1  -0.790762  0  -0.260829  -0.311999  0  3.341034  0
N  N278  1  0.64164470  0.64982567  0.84766888  1  -0.830299  0  -0.271731  -0.206087  0  3.572783  0
N  N279  1  0.67423093  0.82389809  0.91267540  1  -1.246335  0  -0.585819  -0.651876  0  3.274827  0
N  N280  1  0.11586369  0.56880001  0.71687505  1  -1.25881  0  -0.373565  -0.417422  0  3.486182  0
N  N281  1  0.16300557  0.67462161  0.64704685  1  -0.829367  0  -0.282628  -0.318025  0  3.440679  0
N  N282  1  0.19417175  0.66497827  0.71891672  1  -0.793741  0  -0.254851  -0.191325  0  3.505819  0
N  N283  1  0.07023447  0.60840662  0.58843403  1  -1.286431  0  -0.585742  -0.667457  0  3.26122  0
N  N284  1  0.91693378  0.80158625  0.52480283  1  -1.25589  0  -0.377889  -0.443657  0  3.511113  0
N  N285  1  0.88357268  0.86062754  0.62955891  1  -0.80736  0  -0.282205  -0.322261  0  3.449518  0
N  N286  1  0.86366944  0.78435845  0.64779007  1  -0.79931  0  -0.254486  -0.191595  0  3.47695  0
N  N287  1  0.94319177  0.93595091  0.51478540  1  -1.264757  0  -0.589966  -0.664043  0  3.301339  0
N  N288  1  0.60693165  0.96670843  0.73843786  1  -1.245894  0  -0.37068  -0.431667  0  3.476608  0
N  N289  1  0.74125912  0.94136927  0.72169342  1  -0.796718  0  -0.291109  -0.336953  0  3.461441  0
N  N290  1  0.70612867  0.87161370  0.72563122  1  -0.824007  0  -0.257251  -0.20958  0  3.46103  0
N  N291  1  0.69194173  0.07337684  0.73060628  1  -1.284354  0  -0.586534  -0.656818  0  3.275379  0
N  N292  1  0.01042146  0.07846740  0.82964928  1  -1.292251  0  -0.389659  -0.47947  0  3.511142  0
N  N293  1  0.01236976  0.15739761  0.91850555  1  -0.823409  0  -0.290847  -0.328065  0  3.496668  0
N  N294  1  0.04140913  0.08376356  0.95160578  1  -0.731423  0  -0.265112  -0.244223  0  3.245748  0
N  N295  1  0.95853843  0.21339384  0.79838286  1  -1.308909  0  -0.597437  -0.691089  0  3.302095  0
N  N296  1  0.07063657  0.31146197  0.60926402  1  -1.265121  0  -0.386984  -0.455018  0  3.541827  0
N  N297  1  0.14108828  0.40897449  0.62983419  1  -0.759087  0  -0.260815  -0.342776  0  3.155537  0
N  N298  1  0.06286397  0.41746927  0.66635023  1  -0.846223  0  -0.28171  -0.228923  0  3.62743  0
N  N299  1  0.20915558  0.31673503  0.55118422  1  -1.25775  0  -0.593841  -0.664277  0  3.31062  0
N  N300  1  0.57235898  0.07996769  0.20580432  1  -1.226158  0  -0.368236  -0.416803  0  3.433095  0
N  N301  1  0.65277393  0.17593175  0.20787719  1  -0.796973  0  -0.276261  -0.341168  0  3.363162  0
N  N302  1  0.61252909  0.19086815  0.13994905  1  -0.853419  0  -0.280194  -0.223401  0  3.580666  0
N  N303  1  0.65232571  0.07254103  0.31471274  1  -1.296923  0  -0.591098  -0.671211  0  3.310523  0
N  N304  1  0.56727901  0.23685979  0.46242128  1  -1.24419  0  -0.376833  -0.429889  0  3.494265  0
N  N305  1  0.70108172  0.22387132  0.43266018  1  -0.836773  0  -0.295153  -0.338177  0  3.468214  0
N  N306  1  0.66368956  0.24235359  0.36353654  1  -0.800168  0  -0.261642  -0.20604  0  3.499608  0
N  N307  1  0.65389853  0.20788274  0.56786057  1  -1.31799  0  -0.599823  -0.683064  0  3.275007  0
N  N308  1  0.91080993  0.05724672  0.28363561  1  -1.27003  0  -0.375844  -0.453047  0  3.477508  0
N  N309  1  0.81658732  0.15859951  0.28410355  1  -0.789978  0  -0.260818  -0.311908  0  3.340969  0
N  N310  1  0.85835531  0.15233227  0.35017491  1  -0.830359  0  -0.271698  -0.206115  0  3.57271  0
N  N311  1  0.82577086  0.08732588  0.17610225  1  -1.246339  0  -0.585818  -0.651849  0  3.274724  0
N  N312  1  0.38413600  0.28312333  0.43119854  1  -1.259069  0  -0.373532  -0.41735  0  3.486216  0
N  N313  1  0.33699544  0.35295243  0.32537736  1  -0.829363  0  -0.282594  -0.317944  0  3.440625  0
N  N314  1  0.30582756  0.28108364  0.33501929  1  -0.793804  0  -0.254745  -0.191258  0  3.505799  0
N  N315  1  0.42976674  0.41156313  0.39159301  1  -1.286501  0  -0.585743  -0.66746  0  3.261268  0
N  N316  1  0.58306591  0.47519795  0.19841389  1  -1.25582  0  -0.377864  -0.443665  0  3.510764  0
N  N317  1  0.61642738  0.37044212  0.13937307  1  -0.807622  0  -0.282181  -0.322184  0  3.449563  0
N  N318  1  0.63633143  0.35221086  0.21564180  1  -0.799107  0  -0.254476  -0.19158  0  3.477037  0
N  N319  1  0.55680982  0.48521589  0.06405099  1  -1.264692  0  -0.590085  -0.664231  0  3.301375  0
N  N320  1  0.89306859  0.26156173  0.03329150  1  -1.245851  0  -0.370607  -0.43156  0  3.476485  0
N  N321  1  0.75874160  0.27830713  0.05863054  1  -0.796725  0  -0.291123  -0.336982  0  3.461463  0
N  N322  1  0.79387167  0.27436819  0.12838620  1  -0.824024  0  -0.257266  -0.209538  0  3.461014  0
N  N323  1  0.80805800  0.26939381  0.92662303  1  -1.284364  0  -0.586546  -0.656835  0  3.275361  0
N  N324  1  0.48957807  0.17034821  0.92153319  1  -1.292511  0  -0.389672  -0.479469  0  3.511141  0
N  N325  1  0.48763104  0.08149345  0.84260144  1  -0.82348  0  -0.29087  -0.328133  0  3.496701  0
N  N326  1  0.45859027  0.04839285  0.91623474  1  -0.731498  0  -0.265087  -0.244156  0  3.245818  0
N  N327  1  0.54146102  0.20161720  0.78660747  1  -1.308915  0  -0.597434  -0.691119  0  3.302097  0
N  N328  1  0.42936207  0.39073279  0.68854058  1  -1.26523  0  -0.38694  -0.454925  0  3.541887  0
N  N329  1  0.35891172  0.37016257  0.59102782  1  -0.758944  0  -0.260736  -0.342644  0  3.155462  0
N  N330  1  0.43713630  0.33364806  0.58253345  1  -0.846761  0  -0.281674  -0.228912  0  3.627447  0
N  N331  1  0.29084268  0.44881239  0.68326727  1  -1.257686  0  -0.593847  -0.664191  0  3.310588  0
O  O332  1  0.07759075  0.97765483  0.32093583  1  -1.254996  0  -0.596016  -0.8224  0  2.215149  0
O  O333  1  0.91580355  0.88907431  0.35818662  1  -1.220069  0  -0.585692  -0.84402  0  2.17572  0
O  O334  1  0.01172414  0.64753521  0.15498721  1  -1.250276  0  -0.359889  -0.694849  0  2.220816  0
O  O335  1  0.91381261  0.56760117  0.14872737  1  -1.179223  0  -0.376805  -0.616376  0  2.215378  0
O  O336  1  0.93384178  0.66682918  0.05406456  1  -1.200941  0  -0.353716  -0.611726  0  2.333959  0
O  O337  1  0.38146922  0.51424337  0.23403259  1  -1.198704  0  -0.36775  -0.638942  0  2.321973  0
O  O338  1  0.42978211  0.63035181  0.19662271  1  -1.198426  0  -0.361868  -0.634133  0  2.294907  0
O  O339  1  0.31860988  0.60325451  0.14500416  1  -1.221429  0  -0.348733  -0.645843  0  2.116497  0
O  O340  1  0.42240921  0.67906418  0.02234434  1  -1.255003  0  -0.596004  -0.822405  0  2.21514  0
O  O341  1  0.58419643  0.64181312  0.11092538  1  -1.220037  0  -0.585692  -0.844013  0  2.175692  0
O  O342  1  0.48827880  0.84501578  0.35246476  1  -1.250251  0  -0.359899  -0.694804  0  2.220689  0
O  O343  1  0.58618933  0.85127458  0.43239962  1  -1.179371  0  -0.376781  -0.61638  0  2.21534  0
O  O344  1  0.56616143  0.94593739  0.33317125  1  -1.200901  0  -0.353728  -0.611726  0  2.333807  0
O  O345  1  0.11853006  0.76596749  0.48575647  1  -1.198726  0  -0.367771  -0.639  0  2.321958  0
O  O346  1  0.07021708  0.80337720  0.36964845  1  -1.198424  0  -0.361864  -0.634113  0  2.294874  0
O  O347  1  0.18139034  0.85499628  0.39674476  1  -1.221426  0  -0.348744  -0.645872  0  2.116443  0
O  O348  1  0.92240779  0.02234627  0.67906536  1  -1.254977  0  -0.596024  -0.822409  0  2.215142  0
O  O349  1  0.08419726  0.11092854  0.64181353  1  -1.219996  0  -0.585716  -0.844057  0  2.175687  0
O  O350  1  0.98827749  0.35246531  0.84501263  1  -1.250242  0  -0.359863  -0.694774  0  2.220885  0
O  O351  1  0.08618775  0.43239993  0.85127250  1  -1.179267  0  -0.376793  -0.616346  0  2.21536  0
O  O352  1  0.06615853  0.33317251  0.94593523  1  -1.200917  0  -0.353701  -0.611665  0  2.333894  0
O  O353  1  0.61853064  0.48575657  0.76596864  1  -1.198765  0  -0.367759  -0.638953  0  2.321974  0
O  O354  1  0.57021714  0.36964814  0.80337685  1  -1.198227  0  -0.361866  -0.634107  0  2.294978  0
O  O355  1  0.68139008  0.39674427  0.85499608  1  -1.221433  0  -0.348685  -0.645804  0  2.116482  0
O  O356  1  0.57759070  0.32093518  0.97765467  1  -1.254983  0  -0.595999  -0.822369  0  2.215143  0
O  O357  1  0.41580166  0.35818625  0.88907322  1  -1.220011  0  -0.585686  -0.844032  0  2.175681  0
O  O358  1  0.51172409  0.15498416  0.64753619  1  -1.250193  0  -0.359875  -0.694761  0  2.220829  0
O  O359  1  0.41381240  0.14872477  0.56760094  1  -1.179295  0  -0.376762  -0.616333  0  2.215435  0
O  O360  1  0.43383969  0.05406196  0.66683052  1  -1.200973  0  -0.353722  -0.611685  0  2.333907  0
O  O361  1  0.88146798  0.23403245  0.51424435  1  -1.198771  0  -0.367764  -0.63896  0  2.322026  0
O  O362  1  0.92978151  0.19662333  0.63035166  1  -1.1984  0  -0.361855  -0.63407  0  2.294868  0
O  O363  1  0.81860815  0.14500540  0.60325634  1  -1.221438  0  -0.348698  -0.645781  0  2.116514  0
