# generated using pymatgen
data_GaH8C5
_symmetry_space_group_name_H-M   'P 1'
_cell_length_a   7.88658683
_cell_length_b   9.80640552
_cell_length_c   14.15179065
_cell_angle_alpha   89.99937543
_cell_angle_beta   89.99980136
_cell_angle_gamma   97.30048668
_symmetry_Int_Tables_number   1
_chemical_formula_structural   GaH8C5
_chemical_formula_sum   'Ga8 H64 C40'
_cell_volume   1085.61370589
_cell_formula_units_Z   8
loop_
 _symmetry_equiv_pos_site_id
 _symmetry_equiv_pos_as_xyz
  1  'x, y, z'
loop_
 _atom_site_type_symbol
 _atom_site_label
 _atom_site_symmetry_multiplicity
 _atom_site_fract_x
 _atom_site_fract_y
 _atom_site_fract_z
 _atom_site_occupancy
 _atom_site_hle17_bader_spin_density
 _atom_site_hle17_ddec_charge
 _atom_site_hle17_ddec_spin_density
 _atom_site_hle17_ddec_sum_bond_order
 _atom_site_hle17_magmom
 _atom_site_hse06_10hf_bader_spin_density
 _atom_site_hse06_10hf_ddec_charge
 _atom_site_hse06_10hf_ddec_spin_density
 _atom_site_hse06_10hf_ddec_sum_bond_order
 _atom_site_hse06_10hf_magmom
 _atom_site_hse06_bader_spin_density
 _atom_site_hse06_ddec_charge
 _atom_site_hse06_ddec_spin_density
 _atom_site_hse06_ddec_sum_bond_order
 _atom_site_hse06_magmom
 _atom_site_pbe_bader_spin_density
 _atom_site_pbe_cm5_charge
 _atom_site_pbe_ddec_charge
 _atom_site_pbe_ddec_spin_density
 _atom_site_pbe_ddec_sum_bond_order
 _atom_site_pbe_magmom
Ga  Ga0  1  0.89960838  0.74669719  0.83163455  1  0  0.937801  0  2.463894  0  0  0.81711  0  2.850534  0  0  0.846158  0  2.840316  0  0  0.283696  0.798212  0  2.856449  0
Ga  Ga1  1  0.10039645  0.75330007  0.33163287  1  0  0.937795  0  2.464  0  0  0.817059  0  2.850738  0  0  0.846108  0  2.840521  0  0  0.283678  0.798166  0  2.856653  0
Ga  Ga2  1  0.10039207  0.25329810  0.16836423  1  0  0.937853  0  2.463959  0  0  0.817164  0  2.850614  0  0  0.846214  0  2.840395  0  0  0.283696  0.798269  0  2.85653  0
Ga  Ga3  1  0.89960670  0.24669624  0.66836591  1  0  0.937801  0  2.463868  0  0  0.817101  0  2.850548  0  0  0.846149  0  2.840332  0  0  0.283664  0.798207  0  2.856462  0
Ga  Ga4  1  0.49080705  0.72183321  0.78300305  1  0  0.930944  0  2.483515  0  0  0.810177  0  2.874752  0  0  0.839373  0  2.864262  0  0  0.277085  0.792217  0  2.879172  0
Ga  Ga5  1  0.50919263  0.77816180  0.28300107  1  0  0.930974  0  2.483616  0  0  0.810207  0  2.874849  0  0  0.839406  0  2.864355  0  0  0.277133  0.792246  0  2.879268  0
Ga  Ga6  1  0.50919567  0.27816825  0.21700210  1  0  0.931112  0  2.483527  0  0  0.810351  0  2.874769  0  0  0.839549  0  2.864274  0  0  0.277165  0.792391  0  2.879195  0
Ga  Ga7  1  0.49080848  0.22183760  0.71699559  1  0  0.930932  0  2.483615  0  0  0.810173  0  2.874852  0  0  0.839369  0  2.864361  0  0  0.277111  0.792216  0  2.87927  0
H  H8  1  0.68541229  0.46185809  0.82701733  1  0  0.071543  0  0.958395  0  0  0.08634  0  1.017528  0  0  0.087759  0  1.018149  0  0  0.102352  0.085639  0  1.015846  0
H  H9  1  0.31460101  0.03812222  0.32702813  1  0  0.07152  0  0.958328  0  0  0.086277  0  1.017531  0  0  0.087696  0  1.018148  0  0  0.102311  0.085576  0  1.015856  0
H  H10  1  0.31458182  0.53813722  0.17297933  1  0  0.071578  0  0.958356  0  0  0.086338  0  1.017535  0  0  0.087757  0  1.018155  0  0  0.102359  0.085634  0  1.015855  0
H  H11  1  0.68541408  0.96186172  0.67298055  1  0  0.071589  0  0.958351  0  0  0.086383  0  1.017483  0  0  0.087802  0  1.018103  0  0  0.102375  0.085679  0  1.015804  0
H  H12  1  0.61540152  0.36762443  0.53068564  1  0  0.08286  0  0.971413  0  0  0.096965  0  1.030617  0  0  0.098768  0  1.030973  0  0  0.102458  0.095582  0  1.030678  0
H  H13  1  0.38461089  0.13240203  0.03070125  1  0  0.08307  0  0.971271  0  0  0.097126  0  1.030518  0  0  0.098929  0  1.030872  0  0  0.10254  0.095741  0  1.030573  0
H  H14  1  0.38460280  0.63237907  0.46930820  1  0  0.08286  0  0.971385  0  0  0.096965  0  1.03057  0  0  0.098769  0  1.030927  0  0  0.102486  0.09558  0  1.03063  0
H  H15  1  0.61539536  0.86760559  0.96931025  1  0  0.083013  0  0.971322  0  0  0.097076  0  1.030567  0  0  0.098879  0  1.030926  0  0  0.1025  0.095692  0  1.030623  0
H  H16  1  0.76723633  0.59612021  0.48951741  1  0  0.08485  0  0.955431  0  0  0.10179  0  1.00943  0  0  0.103898  0  1.00981  0  0  0.103942  0.100056  0  1.009551  0
H  H17  1  0.23276196  0.90392068  0.98951854  1  0  0.084856  0  0.95552  0  0  0.101826  0  1.009449  0  0  0.103939  0  1.009823  0  0  0.103942  0.100089  0  1.009567  0
H  H18  1  0.23275725  0.40388744  0.51047855  1  0  0.084809  0  0.95554  0  0  0.1018  0  1.009471  0  0  0.103908  0  1.009855  0  0  0.104013  0.100068  0  1.009593  0
H  H19  1  0.76722965  0.09609830  0.01048307  1  0  0.084798  0  0.955533  0  0  0.101793  0  1.00948  0  0  0.103898  0  1.009858  0  0  0.103957  0.100059  0  1.009597  0
H  H20  1  0.86996413  0.76126184  0.61567034  1  0  0.072667  0  0.964912  0  0  0.086352  0  1.026471  0  0  0.088358  0  1.025898  0  0  0.101211  0.08542  0  1.025888  0
H  H21  1  0.13003748  0.73875451  0.11566306  1  0  0.072566  0  0.964964  0  0  0.08625  0  1.026539  0  0  0.088257  0  1.025967  0  0  0.101166  0.085332  0  1.02594  0
H  H22  1  0.13003225  0.23873964  0.38432915  1  0  0.072589  0  0.964899  0  0  0.086275  0  1.026482  0  0  0.088282  0  1.025908  0  0  0.101174  0.085345  0  1.025901  0
H  H23  1  0.86995830  0.26125108  0.88433290  1  0  0.072489  0  0.96507  0  0  0.08619  0  1.026609  0  0  0.088194  0  1.02604  0  0  0.101147  0.085274  0  1.026012  0
H  H24  1  0.05960323  0.99151705  0.82833525  1  0  0.146474  0  1.012967  0  0  0.166454  0  1.068264  0  0  0.167848  0  1.071355  0  0  0.08045  0.165428  0  1.066233  0
H  H25  1  0.94038642  0.50848030  0.32833655  1  0  0.146476  0  1.012885  0  0  0.166449  0  1.0682  0  0  0.167839  0  1.071293  0  0  0.080429  0.165423  0  1.066171  0
H  H26  1  0.94040102  0.00847823  0.17166494  1  0  0.146466  0  1.012918  0  0  0.166454  0  1.068214  0  0  0.167852  0  1.071299  0  0  0.080448  0.16543  0  1.066185  0
H  H27  1  0.05960879  0.49151398  0.67166153  1  0  0.146492  0  1.012881  0  0  0.166468  0  1.068192  0  0  0.167861  0  1.071283  0  0  0.080453  0.165443  0  1.066164  0
H  H28  1  0.07919105  0.91308445  0.71609743  1  0  0.143645  0  0.997229  0  0  0.164794  0  1.051804  0  0  0.166771  0  1.053191  0  0  0.081358  0.163313  0  1.050917  0
H  H29  1  0.92080438  0.58692096  0.21609747  1  0  0.143598  0  0.997246  0  0  0.164749  0  1.051836  0  0  0.166729  0  1.053221  0  0  0.081365  0.16327  0  1.050947  0
H  H30  1  0.92081590  0.08691185  0.28390488  1  0  0.143605  0  0.997256  0  0  0.164773  0  1.051813  0  0  0.166749  0  1.053202  0  0  0.081349  0.16329  0  1.050933  0
H  H31  1  0.07919607  0.41307433  0.78389919  1  0  0.143643  0  0.997314  0  0  0.164761  0  1.051936  0  0  0.166741  0  1.053322  0  0  0.081359  0.163281  0  1.051051  0
H  H32  1  0.20459475  0.86931749  0.81340812  1  0  0.121431  0  1.029475  0  0  0.143559  0  1.090789  0  0  0.144768  0  1.092567  0  0  0.077883  0.142545  0  1.089717  0
H  H33  1  0.79540397  0.63068832  0.31340950  1  0  0.121443  0  1.029535  0  0  0.143587  0  1.090813  0  0  0.144797  0  1.092589  0  0  0.077902  0.142572  0  1.089749  0
H  H34  1  0.79540840  0.13067882  0.18659419  1  0  0.12149  0  1.029399  0  0  0.143619  0  1.0907  0  0  0.144828  0  1.092478  0  0  0.077907  0.142606  0  1.089631  0
H  H35  1  0.20459411  0.36930801  0.68658786  1  0  0.121524  0  1.029503  0  0  0.143674  0  1.090764  0  0  0.144883  0  1.092541  0  0  0.077937  0.14266  0  1.089699  0
H  H36  1  0.99813183  0.61420273  0.97077706  1  0  0.137512  0  1.009754  0  0  0.158622  0  1.066538  0  0  0.160379  0  1.067952  0  0  0.078044  0.157452  0  1.065508  0
H  H37  1  0.00187085  0.88579423  0.47077318  1  0  0.137565  0  1.009636  0  0  0.158649  0  1.066462  0  0  0.160409  0  1.067872  0  0  0.078054  0.157483  0  1.065427  0
H  H38  1  0.00186735  0.38579256  0.02922243  1  0  0.137541  0  1.009661  0  0  0.158652  0  1.06645  0  0  0.160411  0  1.067862  0  0  0.07805  0.157483  0  1.065419  0
H  H39  1  0.99812789  0.11420620  0.52922348  1  0  0.137542  0  1.009711  0  0  0.158652  0  1.066503  0  0  0.160412  0  1.067914  0  0  0.07806  0.157484  0  1.065471  0
H  H40  1  0.77200107  0.60275932  0.97610315  1  0  0.144205  0  1.01777  0  0  0.163346  0  1.07706  0  0  0.16544  0  1.078468  0  0  0.077853  0.161752  0  1.076334  0
H  H41  1  0.22800393  0.89723652  0.47610086  1  0  0.144174  0  1.017841  0  0  0.163376  0  1.077037  0  0  0.165472  0  1.078442  0  0  0.077898  0.161784  0  1.076307  0
H  H42  1  0.22799921  0.39723494  0.02389633  1  0  0.144228  0  1.017796  0  0  0.163394  0  1.077042  0  0  0.165489  0  1.07845  0  0  0.077886  0.161802  0  1.076314  0
H  H43  1  0.77199702  0.10276185  0.52389792  1  0  0.144184  0  1.017822  0  0  0.163376  0  1.077032  0  0  0.165471  0  1.07844  0  0  0.077871  0.161785  0  1.076302  0
H  H44  1  0.89964574  0.75566158  0.01370269  1  0  0.143143  0  1.016178  0  0  0.161339  0  1.076175  0  0  0.163326  0  1.077796  0  0  0.078534  0.159909  0  1.075177  0
H  H45  1  0.10035578  0.74433490  0.51370245  1  0  0.143127  0  1.016182  0  0  0.161335  0  1.076178  0  0  0.163326  0  1.077794  0  0  0.078547  0.159902  0  1.075188  0
H  H46  1  0.10035344  0.24433372  0.98629679  1  0  0.14314  0  1.016218  0  0  0.161343  0  1.076206  0  0  0.163335  0  1.077822  0  0  0.078523  0.159912  0  1.075214  0
H  H47  1  0.89964043  0.25566555  0.48629845  1  0  0.143139  0  1.016186  0  0  0.161347  0  1.076176  0  0  0.163335  0  1.077797  0  0  0.078552  0.159917  0  1.075183  0
H  H48  1  0.25886191  0.72279618  0.65708705  1  0  0.141361  0  1.007846  0  0  0.163821  0  1.06225  0  0  0.165416  0  1.064013  0  0  0.080794  0.162662  0  1.061208  0
H  H49  1  0.74113254  0.77720097  0.15708463  1  0  0.141337  0  1.007747  0  0  0.163798  0  1.062155  0  0  0.165393  0  1.063918  0  0  0.080794  0.162638  0  1.061117  0
H  H50  1  0.74114214  0.27721350  0.34291597  1  0  0.141332  0  1.007896  0  0  0.163799  0  1.062294  0  0  0.165392  0  1.064058  0  0  0.080767  0.16264  0  1.061254  0
H  H51  1  0.25886351  0.22279845  0.84290921  1  0  0.141371  0  1.007817  0  0  0.163843  0  1.062209  0  0  0.165437  0  1.063972  0  0  0.080808  0.162679  0  1.061175  0
H  H52  1  0.46199284  0.77955591  0.60571081  1  0  0.141741  0  1.002524  0  0  0.159936  0  1.062747  0  0  0.161719  0  1.064375  0  0  0.078123  0.158799  0  1.061471  0
H  H53  1  0.53800094  0.72044314  0.10571062  1  0  0.141712  0  1.002535  0  0  0.159878  0  1.062792  0  0  0.161666  0  1.064407  0  0  0.078091  0.158743  0  1.06151  0
H  H54  1  0.53801044  0.22045686  0.39429221  1  0  0.141652  0  1.002677  0  0  0.159865  0  1.062883  0  0  0.161646  0  1.064513  0  0  0.07806  0.158724  0  1.061614  0
H  H55  1  0.46199130  0.27955629  0.89428745  1  0  0.141746  0  1.002531  0  0  0.159934  0  1.06276  0  0  0.161718  0  1.064387  0  0  0.078122  0.158798  0  1.061482  0
H  H56  1  0.39980514  0.60123151  0.62858991  1  0  0.141227  0  1.01564  0  0  0.16002  0  1.075142  0  0  0.161258  0  1.078225  0  0  0.078347  0.159375  0  1.072843  0
H  H57  1  0.60018988  0.89876818  0.12858827  1  0  0.141155  0  1.015688  0  0  0.159966  0  1.075176  0  0  0.161197  0  1.078266  0  0  0.078309  0.159322  0  1.072873  0
H  H58  1  0.60020067  0.39878125  0.37141099  1  0  0.141194  0  1.015574  0  0  0.159956  0  1.075106  0  0  0.161198  0  1.078189  0  0  0.078312  0.159315  0  1.0728  0
H  H59  1  0.39980490  0.10123124  0.87140980  1  0  0.141173  0  1.015672  0  0  0.159984  0  1.075152  0  0  0.161217  0  1.078242  0  0  0.078333  0.159341  0  1.072842  0
H  H60  1  0.33831646  0.50682003  0.86740957  1  0  0.148115  0  1.010772  0  0  0.169505  0  1.065064  0  0  0.171504  0  1.066875  0  0  0.081094  0.168188  0  1.063843  0
H  H61  1  0.66167708  0.99317151  0.36740640  1  0  0.148153  0  1.0107  0  0  0.169516  0  1.065019  0  0  0.171517  0  1.066828  0  0  0.081115  0.168202  0  1.063796  0
H  H62  1  0.66167374  0.49318249  0.13259416  1  0  0.148112  0  1.010757  0  0  0.169508  0  1.065036  0  0  0.1715  0  1.066854  0  0  0.081073  0.168192  0  1.063811  0
H  H63  1  0.33832066  0.00682276  0.63259026  1  0  0.148122  0  1.010752  0  0  0.169488  0  1.065067  0  0  0.17149  0  1.066875  0  0  0.081089  0.168177  0  1.063837  0
H  H64  1  0.49557272  0.59485092  0.94396689  1  0  0.139232  0  1.024316  0  0  0.157544  0  1.085237  0  0  0.159703  0  1.086278  0  0  0.077755  0.155948  0  1.084878  0
H  H65  1  0.50442379  0.90513828  0.44396610  1  0  0.139292  0  1.024322  0  0  0.157592  0  1.085256  0  0  0.159752  0  1.086296  0  0  0.07771  0.155994  0  1.084898  0
H  H66  1  0.50442095  0.40514953  0.05603613  1  0  0.139268  0  1.024399  0  0  0.157591  0  1.085304  0  0  0.15975  0  1.086346  0  0  0.077762  0.155994  0  1.084944  0
H  H67  1  0.49557716  0.09486009  0.55603338  1  0  0.139287  0  1.024357  0  0  0.157603  0  1.085264  0  0  0.159762  0  1.086305  0  0  0.077721  0.156005  0  1.084908  0
H  H68  1  0.29863980  0.66015811  0.92585959  1  0  0.135396  0  1.010831  0  0  0.155753  0  1.06992  0  0  0.157197  0  1.071845  0  0  0.078101  0.154678  0  1.068847  0
H  H69  1  0.70135720  0.83983346  0.42585890  1  0  0.135415  0  1.010827  0  0  0.155804  0  1.069866  0  0  0.15725  0  1.071789  0  0  0.078125  0.154728  0  1.068799  0
H  H70  1  0.70135471  0.33984748  0.07414131  1  0  0.135427  0  1.01076  0  0  0.155782  0  1.069858  0  0  0.15723  0  1.071779  0  0  0.078108  0.154708  0  1.068787  0
H  H71  1  0.29864628  0.16016491  0.57414200  1  0  0.135414  0  1.010815  0  0  0.155784  0  1.069886  0  0  0.157229  0  1.071809  0  0  0.078119  0.15471  0  1.068817  0
C  C72  1  0.78441087  0.62432355  0.73147960  1  0  -0.393388  0  3.759031  0  0  -0.329443  0  4.011217  0  0  -0.343901  0  4.037194  0  0  -0.108758  -0.320611  0  3.99308  0
C  C73  1  0.21559112  0.87566821  0.23148032  1  0  -0.393397  0  3.758808  0  0  -0.329427  0  4.010958  0  0  -0.343898  0  4.036971  0  0  -0.108775  -0.32059  0  3.992808  0
C  C74  1  0.21559024  0.37567585  0.26851777  1  0  -0.393503  0  3.759181  0  0  -0.329553  0  4.011349  0  0  -0.344015  0  4.037339  0  0  -0.108745  -0.32071  0  3.993184  0
C  C75  1  0.78440832  0.12432091  0.76852271  1  0  -0.393277  0  3.758798  0  0  -0.329327  0  4.010959  0  0  -0.343785  0  4.036936  0  0  -0.108706  -0.320497  0  3.992859  0
C  C76  1  0.70063150  0.49250009  0.75280115  1  0  -0.011585  0  3.862837  0  0  -0.024727  0  4.085167  0  0  -0.02286  0  4.11116  0  0  -0.070373  -0.024259  0  4.064778  0
C  C77  1  0.29938097  0.00749588  0.25280726  1  0  -0.0116  0  3.862565  0  0  -0.024699  0  4.08487  0  0  -0.022831  0  4.110855  0  0  -0.07035  -0.024254  0  4.064534  0
C  C78  1  0.29936641  0.50749521  0.24719339  1  0  -0.011612  0  3.86301  0  0  -0.024727  0  4.085335  0  0  -0.022859  0  4.111322  0  0  -0.070402  -0.024278  0  4.064978  0
C  C79  1  0.70063165  0.99249629  0.74719647  1  0  -0.011721  0  3.862877  0  0  -0.024863  0  4.085211  0  0  -0.022993  0  4.111198  0  0  -0.070437  -0.024402  0  4.064819  0
C  C80  1  0.63643985  0.39724931  0.68232921  1  0  -0.401443  0  3.763262  0  0  -0.339328  0  4.018493  0  0  -0.35418  0  4.044929  0  0  -0.111041  -0.329563  0  3.998913  0
C  C81  1  0.36357441  0.10275504  0.18234297  1  0  -0.401506  0  3.763325  0  0  -0.339382  0  4.018526  0  0  -0.354235  0  4.044959  0  0  -0.111168  -0.329622  0  3.998948  0
C  C82  1  0.36356220  0.60274803  0.31766603  1  0  -0.401437  0  3.76342  0  0  -0.339305  0  4.018603  0  0  -0.354157  0  4.045042  0  0  -0.111012  -0.329527  0  3.998998  0
C  C83  1  0.63644158  0.89724227  0.81766571  1  0  -0.401441  0  3.763462  0  0  -0.33931  0  4.018663  0  0  -0.354166  0  4.045104  0  0  -0.111054  -0.329546  0  3.999072  0
C  C84  1  0.66240491  0.43794280  0.58738487  1  0  -0.032698  0  3.7949  0  0  -0.044361  0  4.025284  0  0  -0.042774  0  4.047621  0  0  -0.073836  -0.046181  0  4.01123  0
C  C85  1  0.33760027  0.06207244  0.08739120  1  0  -0.032859  0  3.795247  0  0  -0.04451  0  4.025617  0  0  -0.042923  0  4.047955  0  0  -0.073812  -0.046314  0  4.011533  0
C  C86  1  0.33759621  0.56205660  0.41261038  1  0  -0.032697  0  3.794898  0  0  -0.044349  0  4.025307  0  0  -0.042766  0  4.04765  0  0  -0.07389  -0.046162  0  4.011237  0
C  C87  1  0.66240675  0.93793209  0.91261323  1  0  -0.032819  0  3.795127  0  0  -0.044445  0  4.025518  0  0  -0.042861  0  4.04786  0  0  -0.073792  -0.046251  0  4.01144  0
C  C88  1  0.74733494  0.56777793  0.56365868  1  0  -0.065617  0  3.717288  0  0  -0.075324  0  3.956356  0  0  -0.079365  0  3.978033  0  0  -0.081322  -0.072832  0  3.94272  0
C  C89  1  0.25266895  0.93225060  0.06366032  1  0  -0.065721  0  3.717749  0  0  -0.075433  0  3.956836  0  0  -0.079479  0  3.978521  0  0  -0.081316  -0.07294  0  3.94319  0
C  C90  1  0.25266127  0.43222251  0.43633869  1  0  -0.065641  0  3.717483  0  0  -0.075377  0  3.956551  0  0  -0.07942  0  3.978231  0  0  -0.081373  -0.072895  0  3.942925  0
C  C91  1  0.74733130  0.06775909  0.93634270  1  0  -0.065687  0  3.717472  0  0  -0.075492  0  3.956622  0  0  -0.079529  0  3.978296  0  0  -0.081388  -0.073003  0  3.942983  0
C  C92  1  0.80543407  0.65986572  0.63494537  1  0  -0.015646  0  3.785191  0  0  -0.032656  0  4.02215  0  0  -0.030736  0  4.044027  0  0  -0.072586  -0.034249  0  4.007077  0
C  C93  1  0.19456957  0.84014824  0.13494498  1  0  -0.015386  0  3.784863  0  0  -0.032415  0  4.021835  0  0  -0.030497  0  4.04371  0  0  -0.072519  -0.03402  0  4.006758  0
C  C94  1  0.19456485  0.34013575  0.36505553  1  0  -0.01545  0  3.785037  0  0  -0.032475  0  4.021983  0  0  -0.030554  0  4.043858  0  0  -0.072574  -0.034069  0  4.006918  0
C  C95  1  0.80543254  0.15985733  0.86505521  1  0  -0.01538  0  3.785011  0  0  -0.032366  0  4.021966  0  0  -0.030444  0  4.043842  0  0  -0.072534  -0.033985  0  4.006893  0
C  C96  1  0.07814461  0.89516338  0.79265247  1  0  -0.728302  0  3.598493  0  0  -0.761164  0  3.828455  0  0  -0.775807  0  3.837039  0  0  -0.34679  -0.751346  0  3.822643  0
C  C97  1  0.92185108  0.60483867  0.29265521  1  0  -0.728264  0  3.598491  0  0  -0.761138  0  3.828451  0  0  -0.775777  0  3.837034  0  0  -0.346784  -0.751325  0  3.822651  0
C  C98  1  0.92186013  0.10483498  0.20734843  1  0  -0.728344  0  3.598436  0  0  -0.761228  0  3.828394  0  0  -0.775871  0  3.83697  0  0  -0.346789  -0.751411  0  3.822596  0
C  C99  1  0.07814920  0.39515559  0.70734498  1  0  -0.728414  0  3.598592  0  0  -0.761262  0  3.828536  0  0  -0.775906  0  3.837115  0  0  -0.346819  -0.751446  0  3.822735  0
C  C100  1  0.88894265  0.67257663  0.96138379  1  0  -0.742923  0  3.594178  0  0  -0.776995  0  3.828961  0  0  -0.791477  0  3.835285  0  0  -0.352871  -0.767018  0  3.824634  0
C  C101  1  0.11106341  0.82741740  0.46138154  1  0  -0.742922  0  3.594169  0  0  -0.777029  0  3.828921  0  0  -0.791514  0  3.835237  0  0  -0.352918  -0.767055  0  3.824593  0
C  C102  1  0.11105873  0.32741660  0.03861499  1  0  -0.742962  0  3.594218  0  0  -0.777074  0  3.828985  0  0  -0.79156  0  3.8353  0  0  -0.352883  -0.767097  0  3.824659  0
C  C103  1  0.88893737  0.17257995  0.53861653  1  0  -0.742947  0  3.59424  0  0  -0.777083  0  3.828982  0  0  -0.791566  0  3.835301  0  0  -0.35292  -0.76711  0  3.824655  0
C  C104  1  0.39362995  0.70566746  0.65501021  1  0  -0.730086  0  3.594574  0  0  -0.764219  0  3.826377  0  0  -0.778897  0  3.834662  0  0  -0.350673  -0.754658  0  3.820203  0
C  C105  1  0.60636468  0.79433075  0.15500934  1  0  -0.72998  0  3.594488  0  0  -0.764087  0  3.826282  0  0  -0.778758  0  3.834574  0  0  -0.35061  -0.754529  0  3.820103  0
C  C106  1  0.60637427  0.29434325  0.34499210  1  0  -0.729995  0  3.594698  0  0  -0.764103  0  3.82651  0  0  -0.778787  0  3.834786  0  0  -0.350563  -0.754538  0  3.820347  0
C  C107  1  0.39363153  0.20566969  0.84498803  1  0  -0.730051  0  3.594609  0  0  -0.764195  0  3.826392  0  0  -0.778867  0  3.834681  0  0  -0.350659  -0.754631  0  3.820212  0
C  C108  1  0.39752240  0.60831933  0.89096799  1  0  -0.74244  0  3.597797  0  0  -0.775188  0  3.830335  0  0  -0.789626  0  3.836823  0  0  -0.350836  -0.766435  0  3.826151  0
C  C109  1  0.60247314  0.89166975  0.39096711  1  0  -0.742611  0  3.597788  0  0  -0.775385  0  3.830403  0  0  -0.789827  0  3.836884  0  0  -0.350879  -0.766632  0  3.826226  0
C  C110  1  0.60246984  0.39168010  0.10903362  1  0  -0.742585  0  3.597857  0  0  -0.775367  0  3.83042  0  0  -0.789801  0  3.836914  0  0  -0.35088  -0.766615  0  3.826236  0
C  C111  1  0.39752874  0.10832657  0.60903096  1  0  -0.742553  0  3.59788  0  0  -0.775319  0  3.830478  0  0  -0.789762  0  3.836959  0  0  -0.350863  -0.766573  0  3.826295  0
