# generated using pymatgen
data_Zn2H7C10N2O8F
_symmetry_space_group_name_H-M   'P 1'
_cell_length_a   7.98237901
_cell_length_b   8.90870658
_cell_length_c   11.12958268
_cell_angle_alpha   83.56175855
_cell_angle_beta   77.92966965
_cell_angle_gamma   83.25665433
_symmetry_Int_Tables_number   1
_chemical_formula_structural   Zn2H7C10N2O8F
_chemical_formula_sum   'Zn2 H7 C10 N2 O8 F1'
_cell_volume   765.47066710
_cell_formula_units_Z   1
loop_
 _symmetry_equiv_pos_site_id
 _symmetry_equiv_pos_as_xyz
  1  'x, y, z'
loop_
 _atom_site_type_symbol
 _atom_site_label
 _atom_site_symmetry_multiplicity
 _atom_site_fract_x
 _atom_site_fract_y
 _atom_site_fract_z
 _atom_site_occupancy
 _atom_site_pbe_bader_charge
 _atom_site_pbe_bader_spin_density
 _atom_site_pbe_cm5_charge
 _atom_site_pbe_ddec_charge
 _atom_site_pbe_ddec_spin_density
 _atom_site_pbe_ddec_sum_bond_order
 _atom_site_pbe_magmom
Zn  Zn0  1  0.66068320  0.50119724  0.47021034  1  1.30132  0  0.671339  0.820878  0  2.428022  0
Zn  Zn1  1  0.31027077  0.49149882  0.52327870  1  1.297493  0  0.67502  0.871891  0  2.332937  0
H  H2  1  0.28449283  0.48988313  0.92213856  1  0.097633  0  0.111412  0.109077  0  0.975773  0
H  H3  1  0.67980896  0.44150840  0.87990930  1  0.080612  0  0.106612  0.122151  0  0.995436  0
H  H4  1  0.29244262  0.46009867  0.14521288  1  0.112995  0  0.109607  0.113744  0  0.98267  0
H  H5  1  0.66618755  0.54247934  0.06315782  1  0.070392  0  0.109677  0.125487  0  0.987756  0
H  H6  1  0.24817068  0.00010639  0.53652757  1  0.113149  0  0.114987  0.137193  0  0.976125  0
H  H7  1  0.64499757  0.98770227  0.48324142  1  0.140427  0  0.115951  0.138186  0  0.974808  0
H  H8  1  0.92270421  0.46138207  0.61616802  1  0.542148  0  0.341374  0.318914  0  0.903323  0
C  C9  1  0.40965257  0.78351073  0.51239256  1  1.55575  0  0.216213  0.640443  0  4.141434  0
C  C10  1  0.51177031  0.03754996  0.50220696  1  0.000667  0  -0.073138  -0.159822  0  3.864732  0
C  C11  1  0.54221111  0.51262683  0.25727345  1  1.527813  0  0.207435  0.634622  0  4.167912  0
C  C12  1  0.48491033  0.20480117  0.50632504  1  1.542778  0  0.215227  0.639724  0  4.138943  0
C  C13  1  0.54241851  0.46724955  0.72740678  1  1.531052  0  0.211148  0.648824  0  4.152843  0
C  C14  1  0.40971370  0.47807972  0.94915870  1  -0.085443  0  -0.063919  -0.009959  0  3.973947  0
C  C15  1  0.55093020  0.45988896  0.85911526  1  0.000103  0  -0.092911  -0.236944  0  3.894122  0
C  C16  1  0.41093806  0.48176741  0.07895219  1  0.047901  0  -0.068013  -0.027425  0  3.969179  0
C  C17  1  0.54583905  0.51413198  0.12375309  1  -0.098991  0  -0.08395  -0.209259  0  3.864423  0
C  C18  1  0.38143390  0.95038171  0.51849481  1  -0.081131  0  -0.074764  -0.163088  0  3.8669  0
N  N19  1  0.01975258  0.49382333  0.53978084  1  -0.396035  0  -0.203253  -0.199437  0  3.076434  0
N  N20  1  0.94206703  0.52696791  0.45628756  1  0.216863  0  0.033734  0.217961  0  3.299203  0
O  O21  1  0.56343063  0.72078391  0.49336672  1  -1.169433  0  -0.314318  -0.548771  0  2.317423  0
O  O22  1  0.27304090  0.71503580  0.52733634  1  -1.129217  0  -0.323421  -0.545768  0  2.276871  0
O  O23  1  0.68685426  0.52386325  0.28722854  1  -1.130271  0  -0.328886  -0.541111  0  2.25115  0
O  O24  1  0.40016397  0.49960847  0.33308873  1  -1.173425  0  -0.321521  -0.578108  0  2.354541  0
O  O25  1  0.62056665  0.27419185  0.48111992  1  -1.153487  0  -0.316181  -0.545644  0  2.274786  0
O  O26  1  0.33001123  0.26664118  0.53389849  1  -1.143671  0  -0.32451  -0.546796  0  2.281459  0
O  O27  1  0.68952231  0.46583423  0.65090648  1  -1.167299  0  -0.327651  -0.587237  0  2.315288  0
O  O28  1  0.39844701  0.47676014  0.69487961  1  -1.166709  0  -0.312352  -0.555027  0  2.262333  0
F  F29  1  0.05104948  0.57976898  0.34566637  1  -0.283983  0  -0.010948  -0.084698  0  1.183049  0
