# generated using pymatgen
data_ZnH4C2(N2O)4
_symmetry_space_group_name_H-M   'P 1'
_cell_length_a   5.54861250
_cell_length_b   6.36701845
_cell_length_c   10.55296344
_cell_angle_alpha   90.00004411
_cell_angle_beta   90.00019401
_cell_angle_gamma   92.29699219
_symmetry_Int_Tables_number   1
_chemical_formula_structural   ZnH4C2(N2O)4
_chemical_formula_sum   'Zn2 H8 C4 N16 O8'
_cell_volume   372.51678194
_cell_formula_units_Z   2
loop_
 _symmetry_equiv_pos_site_id
 _symmetry_equiv_pos_as_xyz
  1  'x, y, z'
loop_
 _atom_site_type_symbol
 _atom_site_label
 _atom_site_symmetry_multiplicity
 _atom_site_fract_x
 _atom_site_fract_y
 _atom_site_fract_z
 _atom_site_occupancy
 _atom_site_hle17_bader_spin_density
 _atom_site_hle17_ddec_charge
 _atom_site_hle17_ddec_spin_density
 _atom_site_hle17_ddec_sum_bond_order
 _atom_site_hle17_magmom
 _atom_site_hse06_10hf_bader_spin_density
 _atom_site_hse06_10hf_ddec_charge
 _atom_site_hse06_10hf_ddec_spin_density
 _atom_site_hse06_10hf_ddec_sum_bond_order
 _atom_site_hse06_10hf_magmom
 _atom_site_hse06_bader_spin_density
 _atom_site_hse06_ddec_charge
 _atom_site_hse06_ddec_spin_density
 _atom_site_hse06_ddec_sum_bond_order
 _atom_site_hse06_magmom
 _atom_site_pbe_bader_spin_density
 _atom_site_pbe_cm5_charge
 _atom_site_pbe_ddec_charge
 _atom_site_pbe_ddec_spin_density
 _atom_site_pbe_ddec_sum_bond_order
 _atom_site_pbe_magmom
Zn  Zn0  1  0.50000093  0.00000118  0.50000027  1  0  1.099958  0  1.815543  0  0  0.930044  0  2.267813  0  0  0.972334  0  2.21552  0  0  0.700031  0.900098  0  2.30401  0
Zn  Zn1  1  0.00000017  0.99999897  0.00000133  1  0  1.099877  0  1.815589  0  0  0.929972  0  2.267846  0  0  0.972267  0  2.215555  0  0  0.70001  0.900029  0  2.304048  0
H  H2  1  0.74966643  0.06616373  0.72422095  1  0  0.433342  0  0.86006  0  0  0.400547  0  0.926339  0  0  0.411374  0  0.910512  0  0  0.297148  0.392754  0  0.937744  0
H  H3  1  0.75033255  0.93383656  0.22422056  1  0  0.433339  0  0.860062  0  0  0.400551  0  0.926326  0  0  0.411377  0  0.910502  0  0  0.297152  0.392757  0  0.937732  0
H  H4  1  0.25033175  0.93383706  0.27578195  1  0  0.433346  0  0.860047  0  0  0.400538  0  0.926353  0  0  0.411365  0  0.910527  0  0  0.297142  0.392744  0  0.937761  0
H  H5  1  0.24966777  0.06616890  0.77578233  1  0  0.433354  0  0.860048  0  0  0.400541  0  0.926361  0  0  0.411369  0  0.910533  0  0  0.297127  0.392746  0  0.93777  0
H  H6  1  0.88191664  0.88519824  0.64724591  1  0  0.40528  0  0.903625  0  0  0.360737  0  0.99193  0  0  0.371311  0  0.976595  0  0  0.290501  0.353237  0  1.00279  0
H  H7  1  0.61808206  0.11480517  0.14724549  1  0  0.405275  0  0.903693  0  0  0.360726  0  0.991957  0  0  0.3713  0  0.976622  0  0  0.290513  0.353223  0  1.002821  0
H  H8  1  0.11808413  0.11481351  0.35274941  1  0  0.405287  0  0.903623  0  0  0.360727  0  0.991943  0  0  0.371302  0  0.976606  0  0  0.290511  0.353225  0  1.002805  0
H  H9  1  0.38191218  0.88519097  0.85274983  1  0  0.405307  0  0.903552  0  0  0.360759  0  0.991891  0  0  0.371334  0  0.976554  0  0  0.290511  0.353259  0  1.002751  0
C  C10  1  0.60225593  0.47438700  0.46317964  1  0  0.153328  0  3.777405  0  0  0.118001  0  4.05836  0  0  0.127325  0  4.070034  0  0  0.226645  0.111735  0  4.050883  0
C  C11  1  0.89776903  0.52560184  0.96319208  1  0  0.153166  0  3.777586  0  0  0.117846  0  4.058516  0  0  0.127156  0  4.070205  0  0  0.226481  0.111599  0  4.05102  0
C  C12  1  0.39775508  0.52561668  0.53681473  1  0  0.153352  0  3.777328  0  0  0.117828  0  4.058486  0  0  0.127116  0  4.070199  0  0  0.226536  0.111592  0  4.050978  0
C  C13  1  0.10224118  0.47439083  0.03681177  1  0  0.15339  0  3.777662  0  0  0.117902  0  4.058743  0  0  0.127208  0  4.070428  0  0  0.226573  0.111656  0  4.051244  0
N  N14  1  0.69255792  0.28366792  0.44889170  1  0  -0.282592  0  3.176729  0  0  -0.235977  0  3.472106  0  0  -0.247512  0  3.48003  0  0  -0.213668  -0.228133  0  3.466895  0
N  N15  1  0.80744389  0.71632610  0.94889563  1  0  -0.28246  0  3.176197  0  0  -0.23587  0  3.471624  0  0  -0.247409  0  3.479558  0  0  -0.213545  -0.228028  0  3.466407  0
N  N16  1  0.30745972  0.71632775  0.55110172  1  0  -0.28262  0  3.176806  0  0  -0.235982  0  3.472297  0  0  -0.247507  0  3.48023  0  0  -0.213621  -0.228143  0  3.467077  0
N  N17  1  0.19255181  0.28366529  0.05110443  1  0  -0.282662  0  3.176355  0  0  -0.236  0  3.47178  0  0  -0.247532  0  3.479708  0  0  -0.21364  -0.228161  0  3.466567  0
N  N18  1  0.88993451  0.30849132  0.37660034  1  0  -0.030389  0  3.025006  0  0  -0.003705  0  3.315277  0  0  -0.002766  0  3.323418  0  0  -0.061872  -0.004176  0  3.309967  0
N  N19  1  0.61006636  0.69149640  0.87659822  1  0  -0.030493  0  3.024996  0  0  -0.003858  0  3.31536  0  0  -0.002915  0  3.323497  0  0  -0.061955  -0.004327  0  3.310052  0
N  N20  1  0.11007413  0.69150453  0.62339876  1  0  -0.030371  0  3.02505  0  0  -0.003733  0  3.315364  0  0  -0.002795  0  3.323501  0  0  -0.061893  -0.004204  0  3.310056  0
N  N21  1  0.38993462  0.30849331  0.12339994  1  0  -0.030337  0  3.024984  0  0  -0.003685  0  3.315271  0  0  -0.002741  0  3.323407  0  0  -0.061866  -0.004153  0  3.30996  0
N  N22  1  0.92664154  0.50616220  0.34365048  1  0  -0.128221  0  2.783759  0  0  -0.146986  0  3.088267  0  0  -0.144628  0  3.096339  0  0  -0.08315  -0.148457  0  3.08317  0
N  N23  1  0.57335429  0.49383347  0.84364906  1  0  -0.128192  0  2.783881  0  0  -0.146924  0  3.088379  0  0  -0.144566  0  3.096448  0  0  -0.08311  -0.148394  0  3.083284  0
N  N24  1  0.07335113  0.49383712  0.65635431  1  0  -0.128272  0  2.7838  0  0  -0.147012  0  3.088303  0  0  -0.14465  0  3.096369  0  0  -0.083166  -0.148486  0  3.083211  0
N  N25  1  0.42664523  0.50616099  0.15635289  1  0  -0.128296  0  2.783913  0  0  -0.147059  0  3.088437  0  0  -0.144701  0  3.096505  0  0  -0.083176  -0.14853  0  3.08334  0
N  N26  1  0.74606029  0.61264752  0.39633415  1  0  0.27207  0  3.730293  0  0  0.30459  0  4.025276  0  0  0.305739  0  4.044358  0  0  -0.007844  0.303127  0  4.012566  0
N  N27  1  0.75393465  0.38735605  0.89633674  1  0  0.272125  0  3.730374  0  0  0.304649  0  4.025336  0  0  0.305803  0  4.044421  0  0  -0.007854  0.303182  0  4.012621  0
N  N28  1  0.25393631  0.38735644  0.60366590  1  0  0.272102  0  3.730398  0  0  0.304664  0  4.025412  0  0  0.305823  0  4.0445  0  0  -0.007852  0.303197  0  4.012695  0
N  N29  1  0.24606499  0.61263998  0.10366711  1  0  0.272113  0  3.730262  0  0  0.304673  0  4.025258  0  0  0.305828  0  4.044343  0  0  -0.00787  0.303206  0  4.012541  0
O  O30  1  0.72481433  0.81396567  0.37906420  1  0  -0.517018  0  1.901605  0  0  -0.459239  0  2.145828  0  0  -0.48327  0  2.14108  0  0  -0.208211  -0.441968  0  2.148859  0
O  O31  1  0.77517612  0.18605216  0.87906758  1  0  -0.51697  0  1.901819  0  0  -0.459202  0  2.146058  0  0  -0.483238  0  2.141312  0  0  -0.208116  -0.441933  0  2.149094  0
O  O32  1  0.27517396  0.18604791  0.62093396  1  0  -0.517016  0  1.901795  0  0  -0.459223  0  2.146017  0  0  -0.483258  0  2.141268  0  0  -0.208137  -0.441952  0  2.149054  0
O  O33  1  0.22482397  0.81395016  0.12093532  1  0  -0.516978  0  1.901709  0  0  -0.459208  0  2.145936  0  0  -0.483243  0  2.141188  0  0  -0.208125  -0.441938  0  2.148973  0
O  O34  1  0.73178334  0.96463310  0.65371793  1  0  -0.855762  0  2.010082  0  0  -0.802894  0  2.248354  0  0  -0.823634  0  2.213646  0  0  -0.589542  -0.788081  0  2.272596  0
O  O35  1  0.76821326  0.03536563  0.15371864  1  0  -0.855766  0  2.01018  0  0  -0.802902  0  2.248411  0  0  -0.823643  0  2.21371  0  0  -0.589574  -0.788088  0  2.272661  0
O  O36  1  0.26821518  0.03537239  0.34628308  1  0  -0.855806  0  2.010108  0  0  -0.802929  0  2.248381  0  0  -0.823669  0  2.213674  0  0  -0.589558  -0.788116  0  2.272625  0
O  O37  1  0.23178109  0.96463209  0.84628236  1  0  -0.855791  0  2.009995  0  0  -0.802909  0  2.248267  0  0  -0.823656  0  2.213574  0  0  -0.589533  -0.788096  0  2.272512  0
