# generated using pymatgen
data_CuH14C14I(NO)2
_symmetry_space_group_name_H-M   'P 1'
_cell_length_a   4.15570920
_cell_length_b   12.24625831
_cell_length_c   14.86031808
_cell_angle_alpha   106.76491759
_cell_angle_beta   89.99960258
_cell_angle_gamma   90.00041968
_symmetry_Int_Tables_number   1
_chemical_formula_structural   CuH14C14I(NO)2
_chemical_formula_sum   'Cu2 H28 C28 I2 N4 O4'
_cell_volume   724.12538517
_cell_formula_units_Z   2
loop_
 _symmetry_equiv_pos_site_id
 _symmetry_equiv_pos_as_xyz
  1  'x, y, z'
loop_
 _atom_site_type_symbol
 _atom_site_label
 _atom_site_symmetry_multiplicity
 _atom_site_fract_x
 _atom_site_fract_y
 _atom_site_fract_z
 _atom_site_occupancy
 _atom_site_hle17_bader_spin_density
 _atom_site_hle17_ddec_charge
 _atom_site_hle17_ddec_spin_density
 _atom_site_hle17_ddec_sum_bond_order
 _atom_site_hle17_magmom
 _atom_site_hse06_10hf_bader_spin_density
 _atom_site_hse06_10hf_ddec_charge
 _atom_site_hse06_10hf_ddec_spin_density
 _atom_site_hse06_10hf_ddec_sum_bond_order
 _atom_site_hse06_10hf_magmom
 _atom_site_hse06_bader_spin_density
 _atom_site_hse06_ddec_charge
 _atom_site_hse06_ddec_spin_density
 _atom_site_hse06_ddec_sum_bond_order
 _atom_site_hse06_magmom
 _atom_site_pbe_bader_spin_density
 _atom_site_pbe_cm5_charge
 _atom_site_pbe_ddec_charge
 _atom_site_pbe_ddec_spin_density
 _atom_site_pbe_ddec_sum_bond_order
 _atom_site_pbe_magmom
Cu  Cu0  1  0.00891764  0.27513956  0.06192031  1  0  0.336939  0  2.13082  0  0  0.234524  0  2.63087  0  0  0.227726  0  2.592363  0  0  0.366794  0.244064  0  2.652743  0
Cu  Cu1  1  0.99106156  0.27514012  0.56192077  1  0  0.336918  0  2.130724  0  0  0.234468  0  2.630746  0  0  0.227745  0  2.592267  0  0  0.366757  0.244032  0  2.65256  0
H  H2  1  0.26368258  0.21750824  0.22708348  1  0  0.07372  0  0.953179  0  0  0.080732  0  1.022561  0  0  0.084045  0  1.019583  0  0  0.105469  0.078232  0  1.024824  0
H  H3  1  0.73633946  0.21750916  0.72709058  1  0  0.073719  0  0.953118  0  0  0.080733  0  1.022514  0  0  0.084042  0  1.019526  0  0  0.10547  0.078231  0  1.024773  0
H  H4  1  0.13674383  0.08328067  0.31636883  1  0  0.100382  0  0.982807  0  0  0.109037  0  1.04951  0  0  0.112236  0  1.049067  0  0  0.094842  0.10667  0  1.050029  0
H  H5  1  0.86327555  0.08328439  0.81637096  1  0  0.10041  0  0.982769  0  0  0.109037  0  1.049507  0  0  0.112234  0  1.049062  0  0  0.094853  0.106669  0  1.050026  0
H  H6  1  0.55213337  0.89476302  0.08114360  1  0  0.121696  0  0.958682  0  0  0.124535  0  1.027128  0  0  0.12885  0  1.024404  0  0  0.110831  0.121481  0  1.029172  0
H  H7  1  0.44787549  0.89477103  0.58114352  1  0  0.121754  0  0.958675  0  0  0.124604  0  1.027102  0  0  0.128918  0  1.024381  0  0  0.110869  0.121577  0  1.029118  0
H  H8  1  0.67938629  0.04681237  0.00439787  1  0  0.071693  0  0.959921  0  0  0.079267  0  1.027839  0  0  0.082246  0  1.025492  0  0  0.105484  0.077078  0  1.029562  0
H  H9  1  0.32060626  0.04681757  0.50440142  1  0  0.071573  0  0.960075  0  0  0.079196  0  1.027946  0  0  0.082167  0  1.025606  0  0  0.105446  0.07701  0  1.029658  0
H  H10  1  0.73218987  0.84982280  0.38676285  1  0  0.155078  0  0.962564  0  0  0.170414  0  1.024908  0  0  0.174024  0  1.022335  0  0  0.100207  0.167859  0  1.026723  0
H  H11  1  0.26780813  0.84982449  0.88676769  1  0  0.155083  0  0.962604  0  0  0.170419  0  1.02495  0  0  0.174029  0  1.022374  0  0  0.100203  0.167865  0  1.026764  0
H  H12  1  0.80886654  0.99848145  0.39994012  1  0  0.126727  0  0.962073  0  0  0.142452  0  1.034372  0  0  0.146016  0  1.032229  0  0  0.091133  0.139512  0  1.036183  0
H  H13  1  0.19113192  0.99848896  0.89994311  1  0  0.126752  0  0.962115  0  0  0.142468  0  1.034423  0  0  0.14604  0  1.032273  0  0  0.091139  0.139521  0  1.036242  0
H  H14  1  0.11121853  0.89539396  0.35376082  1  0  0.146821  0  0.940499  0  0  0.167697  0  0.999285  0  0  0.169377  0  0.999666  0  0  0.103919  0.166379  0  0.99914  0
H  H15  1  0.88878125  0.89539773  0.85376224  1  0  0.146767  0  0.940513  0  0  0.167682  0  0.999257  0  0  0.16936  0  0.999639  0  0  0.103895  0.166363  0  0.999114  0
H  H16  1  0.73268408  0.33083845  0.25105165  1  0  0.072637  0  0.954241  0  0  0.079857  0  1.023341  0  0  0.083225  0  1.020245  0  0  0.105751  0.077309  0  1.025735  0
H  H17  1  0.26733500  0.33086057  0.75104383  1  0  0.072818  0  0.954401  0  0  0.079961  0  1.023549  0  0  0.083295  0  1.020491  0  0  0.105745  0.077441  0  1.025873  0
H  H18  1  0.83591270  0.46586822  0.40557562  1  0  0.099148  0  0.986146  0  0  0.108214  0  1.052479  0  0  0.111271  0  1.05223  0  0  0.093717  0.105886  0  1.052958  0
H  H19  1  0.16409345  0.46588247  0.90556546  1  0  0.099234  0  0.986134  0  0  0.108271  0  1.052501  0  0  0.111323  0  1.052252  0  0  0.093789  0.105901  0  1.053022  0
H  H20  1  0.42846738  0.66022205  0.26673200  1  0  0.123154  0  0.96928  0  0  0.125046  0  1.039517  0  0  0.129444  0  1.036664  0  0  0.109256  0.121957  0  1.041657  0
H  H21  1  0.57149340  0.66022433  0.76672965  1  0  0.123108  0  0.969061  0  0  0.125079  0  1.039243  0  0  0.129474  0  1.036397  0  0  0.10927  0.121991  0  1.041387  0
H  H22  1  0.32927391  0.50604536  0.11664195  1  0  0.071609  0  0.957207  0  0  0.079583  0  1.024335  0  0  0.082431  0  1.022191  0  0  0.105963  0.077487  0  1.02593  0
H  H23  1  0.67069446  0.50604358  0.61663844  1  0  0.071545  0  0.957316  0  0  0.079511  0  1.024457  0  0  0.082369  0  1.022303  0  0  0.105961  0.077416  0  1.026053  0
H  H24  1  0.22497505  0.69608451  0.59179189  1  0  0.149893  0  0.965597  0  0  0.165723  0  1.026854  0  0  0.168648  0  1.025571  0  0  0.099503  0.163662  0  1.027756  0
H  H25  1  0.77501966  0.69608036  0.09179581  1  0  0.149828  0  0.965488  0  0  0.165667  0  1.026756  0  0  0.168593  0  1.025471  0  0  0.099451  0.163603  0  1.02766  0
H  H26  1  0.15542411  0.54817319  0.53089734  1  0  0.125976  0  0.96501  0  0  0.141193  0  1.038447  0  0  0.144789  0  1.036229  0  0  0.091177  0.138235  0  1.040299  0
H  H27  1  0.84457133  0.54816575  0.03089227  1  0  0.125898  0  0.96499  0  0  0.141145  0  1.038397  0  0  0.144742  0  1.03618  0  0  0.091129  0.138183  0  1.04025  0
H  H28  1  0.85018263  0.65063624  0.53424542  1  0  0.145391  0  0.93986  0  0  0.167463  0  0.996631  0  0  0.169368  0  0.996279  0  0  0.104046  0.165978  0  0.996979  0
H  H29  1  0.14981733  0.65063254  0.03423990  1  0  0.145417  0  0.939854  0  0  0.167486  0  0.996631  0  0  0.169389  0  0.996287  0  0  0.104061  0.165988  0  0.996992  0
C  C30  1  0.10208281  0.14615998  0.19703739  1  0  0.106143  0  3.708396  0  0  0.078319  0  3.962591  0  0  0.084216  0  3.976827  0  0  0.033089  0.074146  0  3.954144  0
C  C31  1  0.89794806  0.14615866  0.69704162  1  0  0.106038  0  3.708728  0  0  0.078227  0  3.962919  0  0  0.084136  0  3.977147  0  0  0.033049  0.074038  0  3.954482  0
C  C32  1  0.03150377  0.06905872  0.24676405  1  0  -0.119202  0  3.725897  0  0  -0.140135  0  3.971041  0  0  -0.145414  0  3.992845  0  0  -0.081115  -0.137099  0  3.956883  0
C  C33  1  0.96850017  0.06906521  0.74676663  1  0  -0.119151  0  3.72601  0  0  -0.140049  0  3.971164  0  0  -0.145328  0  3.992969  0  0  -0.08107  -0.137012  0  3.956993  0
C  C34  1  0.82734447  0.97703577  0.20650858  1  0  -0.010782  0  3.725859  0  0  0.003599  0  3.957732  0  0  0.002557  0  3.978642  0  0  -0.006092  0.004781  0  3.943418  0
C  C35  1  0.17265586  0.97703897  0.70650992  1  0  -0.01086  0  3.725402  0  0  0.003521  0  3.957374  0  0  0.002479  0  3.978291  0  0  -0.006172  0.004683  0  3.943031  0
C  C36  1  0.70643710  0.96641641  0.11615477  1  0  -0.106238  0  3.680193  0  0  -0.127499  0  3.926006  0  0  -0.133204  0  3.947489  0  0  -0.072849  -0.123802  0  3.911481  0
C  C37  1  0.29357003  0.96641643  0.61615176  1  0  -0.106264  0  3.680093  0  0  -0.127524  0  3.925951  0  0  -0.133231  0  3.94743  0  0  -0.072835  -0.12385  0  3.911398  0
C  C38  1  0.78112263  0.04917152  0.07254527  1  0  0.114793  0  3.684591  0  0  0.0901  0  3.932066  0  0  0.094905  0  3.948271  0  0  0.036447  0.086962  0  3.921473  0
C  C39  1  0.21887553  0.04917397  0.57254971  1  0  0.114796  0  3.68494  0  0  0.090067  0  3.932428  0  0  0.094881  0  3.948643  0  0  0.036437  0.086931  0  3.921816  0
C  C40  1  0.72704238  0.89427908  0.25789347  1  0  0.494118  0  3.656788  0  0  0.484256  0  3.919054  0  0  0.507081  0  3.917988  0  0  0.169199  0.467943  0  3.920257  0
C  C41  1  0.27296695  0.89427480  0.75788948  1  0  0.494194  0  3.656765  0  0  0.484237  0  3.919179  0  0  0.507045  0  3.918139  0  0  0.16927  0.467994  0  3.920267  0
C  C42  1  0.84995900  0.91045383  0.35595351  1  0  -0.445687  0  3.661123  0  0  -0.526343  0  3.891883  0  0  -0.532879  0  3.89426  0  0  -0.250962  -0.521314  0  3.890593  0
C  C43  1  0.15004587  0.91045614  0.85595738  1  0  -0.445785  0  3.661022  0  0  -0.526419  0  3.891768  0  0  -0.53296  0  3.894148  0  0  -0.251007  -0.521395  0  3.890459  0
C  C44  1  0.89121128  0.40348552  0.25692093  1  0  0.107402  0  3.70995  0  0  0.079563  0  3.963954  0  0  0.085308  0  3.978296  0  0  0.03387  0.075696  0  3.955043  0
C  C45  1  0.10881162  0.40349114  0.75691490  1  0  0.107176  0  3.709942  0  0  0.07938  0  3.963914  0  0  0.085141  0  3.978259  0  0  0.033819  0.075495  0  3.955034  0
C  C46  1  0.94801482  0.48109226  0.34402507  1  0  -0.120014  0  3.726341  0  0  -0.141068  0  3.971625  0  0  -0.14631  0  3.993742  0  0  -0.081874  -0.138083  0  3.95737  0
C  C47  1  0.05200038  0.48110288  0.84402168  1  0  -0.120162  0  3.726466  0  0  -0.141181  0  3.971713  0  0  -0.14642  0  3.993827  0  0  -0.081966  -0.138161  0  3.957456  0
C  C48  1  0.14855414  0.57470155  0.34982741  1  0  -0.00983  0  3.723225  0  0  0.004376  0  3.955691  0  0  0.003137  0  3.976781  0  0  -0.005973  0.005666  0  3.941339  0
C  C49  1  0.85144609  0.57470267  0.84981819  1  0  -0.009687  0  3.723361  0  0  0.004527  0  3.955852  0  0  0.003258  0  3.976924  0  0  -0.005926  0.005822  0  3.941465  0
C  C50  1  0.27826841  0.58687972  0.26601982  1  0  -0.106294  0  3.672746  0  0  -0.126469  0  3.917237  0  0  -0.132203  0  3.938612  0  0  -0.072195  -0.122782  0  3.902801  0
C  C51  1  0.72172450  0.58687718  0.76601738  1  0  -0.106361  0  3.672767  0  0  -0.126611  0  3.917317  0  0  -0.13235  0  3.938707  0  0  -0.072265  -0.122925  0  3.902868  0
C  C52  1  0.21847369  0.50307800  0.18239576  1  0  0.116804  0  3.682714  0  0  0.092156  0  3.929764  0  0  0.096735  0  3.946442  0  0  0.037669  0.089108  0  3.918979  0
C  C53  1  0.78150744  0.50308240  0.68239282  1  0  0.116845  0  3.683063  0  0  0.092192  0  3.930128  0  0  0.096759  0  3.946807  0  0  0.03768  0.089147  0  3.919334  0
C  C54  1  0.24100982  0.65624585  0.44196442  1  0  0.495332  0  3.660003  0  0  0.484715  0  3.92335  0  0  0.507431  0  3.922687  0  0  0.169795  0.468366  0  3.924445  0
C  C55  1  0.75898267  0.65624594  0.94195983  1  0  0.495368  0  3.659669  0  0  0.484736  0  3.923059  0  0  0.50754  0  3.922256  0  0  0.169903  0.468388  0  3.92413  0
C  C56  1  0.11194512  0.63671567  0.53047029  1  0  -0.442489  0  3.666797  0  0  -0.522272  0  3.896298  0  0  -0.528728  0  3.898971  0  0  -0.250155  -0.51726  0  3.894813  0
C  C57  1  0.88805704  0.63671088  0.03046913  1  0  -0.442376  0  3.666467  0  0  -0.522172  0  3.895955  0  0  -0.528653  0  3.898595  0  0  -0.250069  -0.517149  0  3.89448  0
I  I58  1  0.50791901  0.27601920  0.95467235  1  0  -0.487461  0  1.486412  0  0  -0.433296  0  1.937295  0  0  -0.45449  0  1.906022  0  0  -0.220879  -0.416977  0  1.956973  0
I  I59  1  0.49208187  0.27602898  0.45467473  1  0  -0.487481  0  1.486459  0  0  -0.433329  0  1.93738  0  0  -0.454566  0  1.906145  0  0  -0.220893  -0.417017  0  1.957033  0
N  N60  1  0.97356921  0.13959578  0.11209930  1  0  -0.277536  0  3.358191  0  0  -0.208471  0  3.652018  0  0  -0.214057  0  3.656244  0  0  -0.36047  -0.205807  0  3.649053  0
N  N61  1  0.02642751  0.13959529  0.61210275  1  0  -0.277378  0  3.358256  0  0  -0.208318  0  3.652056  0  0  -0.213922  0  3.656311  0  0  -0.360402  -0.205655  0  3.649057  0
N  N62  1  0.03078399  0.41092668  0.17681811  1  0  -0.277489  0  3.359958  0  0  -0.20858  0  3.653985  0  0  -0.214322  0  3.658471  0  0  -0.359978  -0.205927  0  3.65103  0
N  N63  1  0.96920734  0.41093231  0.67681443  1  0  -0.277437  0  3.359911  0  0  -0.208469  0  3.653841  0  0  -0.214209  0  3.658337  0  0  -0.359938  -0.205824  0  3.650857  0
O  O64  1  0.54118444  0.81560153  0.21971082  1  0  -0.474914  0  1.919548  0  0  -0.428596  0  2.11708  0  0  -0.445586  0  2.112834  0  0  -0.253939  -0.417274  0  2.120469  0
O  O65  1  0.45881933  0.81560786  0.71971638  1  0  -0.47482  0  1.919815  0  0  -0.428494  0  2.117428  0  0  -0.445478  0  2.113188  0  0  -0.25392  -0.41721  0  2.120803  0
O  O66  1  0.42863927  0.73530498  0.44418287  1  0  -0.477498  0  1.927453  0  0  -0.43006  0  2.127063  0  0  -0.447832  0  2.123359  0  0  -0.251679  -0.418102  0  2.130024  0
O  O67  1  0.57135728  0.73531751  0.94418833  1  0  -0.477497  0  1.927325  0  0  -0.43008  0  2.126985  0  0  -0.447884  0  2.123235  0  0  -0.251741  -0.418121  0  2.129937  0
