# generated using pymatgen
data_KH5C3N8O3
_symmetry_space_group_name_H-M   'P 1'
_cell_length_a   6.96202107
_cell_length_b   7.62250303
_cell_length_c   18.27040991
_cell_angle_alpha   90.00006790
_cell_angle_beta   89.99996018
_cell_angle_gamma   112.02847601
_symmetry_Int_Tables_number   1
_chemical_formula_structural   KH5C3N8O3
_chemical_formula_sum   'K4 H20 C12 N32 O12'
_cell_volume   898.79328940
_cell_formula_units_Z   4
loop_
 _symmetry_equiv_pos_site_id
 _symmetry_equiv_pos_as_xyz
  1  'x, y, z'
loop_
 _atom_site_type_symbol
 _atom_site_label
 _atom_site_symmetry_multiplicity
 _atom_site_fract_x
 _atom_site_fract_y
 _atom_site_fract_z
 _atom_site_occupancy
 _atom_site_hle17_bader_spin_density
 _atom_site_hle17_ddec_charge
 _atom_site_hle17_ddec_spin_density
 _atom_site_hle17_ddec_sum_bond_order
 _atom_site_hle17_magmom
 _atom_site_hse06_10hf_bader_spin_density
 _atom_site_hse06_10hf_ddec_charge
 _atom_site_hse06_10hf_ddec_spin_density
 _atom_site_hse06_10hf_ddec_sum_bond_order
 _atom_site_hse06_10hf_magmom
 _atom_site_hse06_bader_spin_density
 _atom_site_hse06_ddec_charge
 _atom_site_hse06_ddec_spin_density
 _atom_site_hse06_ddec_sum_bond_order
 _atom_site_hse06_magmom
 _atom_site_pbe_bader_spin_density
 _atom_site_pbe_cm5_charge
 _atom_site_pbe_ddec_charge
 _atom_site_pbe_ddec_spin_density
 _atom_site_pbe_ddec_sum_bond_order
 _atom_site_pbe_magmom
K  K0  1  0.92450287  0.84755722  0.74999967  1  0  0.893153  0  0.506893  0  0  0.83027  0  0.71662  0  0  0.845366  0  0.691215  0  0  0.781425  0.81905  0  0.734734  0
K  K1  1  0.07549961  0.15243867  0.24999989  1  0  0.893144  0  0.506896  0  0  0.830269  0  0.716619  0  0  0.845367  0  0.691217  0  0  0.781436  0.819049  0  0.734733  0
K  K2  1  0.34518019  0.62992484  0.75000189  1  0  0.913106  0  0.452562  0  0  0.853919  0  0.651783  0  0  0.86748  0  0.627252  0  0  0.755443  0.843779  0  0.669346  0
K  K3  1  0.65481855  0.37007245  0.25000096  1  0  0.913098  0  0.452575  0  0  0.853909  0  0.651805  0  0  0.867475  0  0.627274  0  0  0.755444  0.843769  0  0.669367  0
H  H4  1  0.67323059  0.59374509  0.61439185  1  0  0.384577  0  0.93227  0  0  0.343319  0  1.014509  0  0  0.353973  0  0.998901  0  0  0.279832  0.3358  0  1.025498  0
H  H5  1  0.32676882  0.40625326  0.11439158  1  0  0.384602  0  0.932234  0  0  0.343344  0  1.014471  0  0  0.353998  0  0.998864  0  0  0.279837  0.335825  0  1.02546  0
H  H6  1  0.32676873  0.40625361  0.38560990  1  0  0.384574  0  0.932277  0  0  0.343309  0  1.014523  0  0  0.353963  0  0.998916  0  0  0.279822  0.335789  0  1.025513  0
H  H7  1  0.67323050  0.59374545  0.88561018  1  0  0.384551  0  0.932308  0  0  0.343287  0  1.014553  0  0  0.35394  0  0.998948  0  0  0.279815  0.335767  0  1.025544  0
H  H8  1  0.67313536  0.79794291  0.59885311  1  0  0.402325  0  0.902093  0  0  0.361837  0  0.983958  0  0  0.372179  0  0.968623  0  0  0.283274  0.354486  0  0.994839  0
H  H9  1  0.32686262  0.20205539  0.09885383  1  0  0.402301  0  0.902124  0  0  0.361808  0  0.983997  0  0  0.372148  0  0.968664  0  0  0.283266  0.354456  0  0.994878  0
H  H10  1  0.32686396  0.20205580  0.40114809  1  0  0.402362  0  0.902091  0  0  0.361864  0  0.983946  0  0  0.372206  0  0.968608  0  0  0.283303  0.354511  0  0.994828  0
H  H11  1  0.67313527  0.79794331  0.90114792  1  0  0.402337  0  0.902108  0  0  0.361844  0  0.983961  0  0  0.372185  0  0.968626  0  0  0.283298  0.354492  0  0.994843  0
H  H12  1  0.86452519  0.39124733  0.70759767  1  0  0.406149  0  0.888926  0  0  0.37257  0  0.963736  0  0  0.381664  0  0.950055  0  0  0.304559  0.366067  0  0.973535  0
H  H13  1  0.13547185  0.60875267  0.20759755  1  0  0.406158  0  0.888905  0  0  0.372583  0  0.963716  0  0  0.381677  0  0.950036  0  0  0.304566  0.366079  0  0.973516  0
H  H14  1  0.13547183  0.60875278  0.29240298  1  0  0.406247  0  0.888843  0  0  0.372683  0  0.963584  0  0  0.381775  0  0.949906  0  0  0.304611  0.36618  0  0.973382  0
H  H15  1  0.86452516  0.39124744  0.79240310  1  0  0.406184  0  0.888935  0  0  0.37262  0  0.963671  0  0  0.381712  0  0.949992  0  0  0.304585  0.366116  0  0.97347  0
H  H16  1  0.62359311  0.08493403  0.70677335  1  0  0.382143  0  0.936351  0  0  0.344956  0  1.012043  0  0  0.355448  0  0.996546  0  0  0.284399  0.337557  0  1.022955  0
H  H17  1  0.37640538  0.91506597  0.20677386  1  0  0.382151  0  0.936336  0  0  0.344966  0  1.012015  0  0  0.355458  0  0.99652  0  0  0.284422  0.337567  0  1.022928  0
H  H18  1  0.37640477  0.91506467  0.29322731  1  0  0.382104  0  0.93641  0  0  0.344915  0  1.012105  0  0  0.355408  0  0.996608  0  0  0.284389  0.337516  0  1.023018  0
H  H19  1  0.62359308  0.08493414  0.79322735  1  0  0.382159  0  0.936338  0  0  0.344975  0  1.012023  0  0  0.355468  0  0.996526  0  0  0.284411  0.337576  0  1.022935  0
H  H20  1  0.23943995  0.47472810  0.95602023  1  0  0.263112  0  0.973547  0  0  0.223713  0  1.060548  0  0  0.234609  0  1.052399  0  0  0.320581  0.216062  0  1.066369  0
H  H21  1  0.76056011  0.52526974  0.45601935  1  0  0.263156  0  0.973534  0  0  0.223744  0  1.060546  0  0  0.23464  0  1.052396  0  0  0.320601  0.216093  0  1.066367  0
H  H22  1  0.76055822  0.52526071  0.04398207  1  0  0.263117  0  0.973528  0  0  0.223714  0  1.060526  0  0  0.234611  0  1.052376  0  0  0.320573  0.21606  0  1.066352  0
H  H23  1  0.23944008  0.47474169  0.54398240  1  0  0.263211  0  0.973417  0  0  0.223801  0  1.060439  0  0  0.234694  0  1.052292  0  0  0.320604  0.216146  0  1.066269  0
C  C24  1  0.24758458  0.81545990  0.00039589  1  0  0.168585  0  3.775405  0  0  0.141741  0  4.060144  0  0  0.142998  0  4.078642  0  0  0.202206  0.140982  0  4.047692  0
C  C25  1  0.75242323  0.18454101  0.50039594  1  0  0.168442  0  3.775466  0  0  0.14169  0  4.060193  0  0  0.1429  0  4.078661  0  0  0.202214  0.140973  0  4.047688  0
C  C26  1  0.75241905  0.18453176  0.99960258  1  0  0.168253  0  3.775033  0  0  0.141418  0  4.059795  0  0  0.142677  0  4.078296  0  0  0.202074  0.140692  0  4.047302  0
C  C27  1  0.24758213  0.81546903  0.49960253  1  0  0.168202  0  3.775011  0  0  0.141402  0  4.0598  0  0  0.142626  0  4.078282  0  0  0.202068  0.140675  0  4.047311  0
C  C28  1  0.20845956  0.87584402  0.92711677  1  0  0.336579  0  3.748809  0  0  0.32218  0  4.007823  0  0  0.344581  0  4.006719  0  0  0.186435  0.306628  0  4.008924  0
C  C29  1  0.79155058  0.12416085  0.42711677  1  0  0.336804  0  3.748582  0  0  0.322185  0  4.007891  0  0  0.34475  0  4.006538  0  0  0.186386  0.306621  0  4.008987  0
C  C30  1  0.79156364  0.12416750  0.07288772  1  0  0.336803  0  3.74912  0  0  0.322426  0  4.008077  0  0  0.344818  0  4.006976  0  0  0.18651  0.306866  0  4.009178  0
C  C31  1  0.20843492  0.87583215  0.57288826  1  0  0.336931  0  3.749194  0  0  0.322426  0  4.008284  0  0  0.344933  0  4.007013  0  0  0.186515  0.306866  0  4.009389  0
C  C32  1  0.20748329  0.06726184  0.91622902  1  0  0.167253  0  3.7701  0  0  0.145836  0  4.058007  0  0  0.146518  0  4.074775  0  0  0.212434  0.14536  0  4.046825  0
C  C33  1  0.79251737  0.93273731  0.41622942  1  0  0.167197  0  3.76997  0  0  0.145835  0  4.057911  0  0  0.146468  0  4.07465  0  0  0.212424  0.14536  0  4.046733  0
C  C34  1  0.79251632  0.93272697  0.08376835  1  0  0.166934  0  3.770171  0  0  0.145502  0  4.058077  0  0  0.146188  0  4.074842  0  0  0.212348  0.145026  0  4.046899  0
C  C35  1  0.20748771  0.06727555  0.58376795  1  0  0.166774  0  3.770221  0  0  0.145413  0  4.058124  0  0  0.146064  0  4.074873  0  0  0.212285  0.144938  0  4.046947  0
N  N36  1  0.25460826  0.64247859  0.01081214  1  0  -0.234143  0  3.099851  0  0  -0.203615  0  3.376931  0  0  -0.212835  0  3.392324  0  0  -0.18996  -0.197239  0  3.366477  0
N  N37  1  0.74539437  0.35752374  0.51081337  1  0  -0.234172  0  3.099894  0  0  -0.203638  0  3.376942  0  0  -0.212858  0  3.392345  0  0  -0.189986  -0.197274  0  3.366477  0
N  N38  1  0.74539077  0.35751588  0.98918742  1  0  -0.234109  0  3.09967  0  0  -0.203599  0  3.376763  0  0  -0.212822  0  3.392159  0  0  -0.189969  -0.19723  0  3.366299  0
N  N39  1  0.25460754  0.64248487  0.48918729  1  0  -0.234113  0  3.099674  0  0  -0.203602  0  3.376758  0  0  -0.212825  0  3.392161  0  0  -0.189963  -0.197233  0  3.366295  0
N  N40  1  0.28929183  0.63065671  0.08158230  1  0  -0.081476  0  2.989533  0  0  -0.05978  0  3.270058  0  0  -0.062379  0  3.283045  0  0  -0.074347  -0.057721  0  3.261178  0
N  N41  1  0.71070414  0.36934012  0.58158355  1  0  -0.081473  0  2.989483  0  0  -0.059789  0  3.270015  0  0  -0.062388  0  3.283  0  0  -0.074313  -0.057731  0  3.26114  0
N  N42  1  0.71070547  0.36934057  0.91841726  1  0  -0.081368  0  2.989429  0  0  -0.059667  0  3.269959  0  0  -0.062266  0  3.282949  0  0  -0.074282  -0.05761  0  3.261082  0
N  N43  1  0.28929231  0.63065857  0.41841711  1  0  -0.081416  0  2.989493  0  0  -0.059687  0  3.269992  0  0  -0.062285  0  3.282978  0  0  -0.074296  -0.057629  0  3.261114  0
N  N44  1  0.30251118  0.79218515  0.11402222  1  0  -0.115371  0  3.024659  0  0  -0.082183  0  3.305283  0  0  -0.087288  0  3.319062  0  0  -0.078378  -0.078518  0  3.295925  0
N  N45  1  0.69748765  0.20781179  0.61402285  1  0  -0.115329  0  3.024549  0  0  -0.082136  0  3.305189  0  0  -0.087241  0  3.318965  0  0  -0.078369  -0.078472  0  3.295836  0
N  N46  1  0.69748584  0.20781497  0.88597570  1  0  -0.115487  0  3.024621  0  0  -0.082307  0  3.305269  0  0  -0.087412  0  3.319047  0  0  -0.078421  -0.078643  0  3.295914  0
N  N47  1  0.30251340  0.79218410  0.38597507  1  0  -0.11548  0  3.024653  0  0  -0.08231  0  3.305303  0  0  -0.087414  0  3.319079  0  0  -0.078396  -0.078645  0  3.295949  0
N  N48  1  0.27729726  0.91054012  0.06442074  1  0  -0.254024  0  2.967487  0  0  -0.23231  0  3.247702  0  0  -0.240806  0  3.265142  0  0  -0.191498  -0.226361  0  3.235869  0
N  N49  1  0.72270678  0.08946235  0.56442075  1  0  -0.25399  0  2.9675  0  0  -0.232285  0  3.247688  0  0  -0.240783  0  3.265138  0  0  -0.191503  -0.22635  0  3.235846  0
N  N50  1  0.72269918  0.08945858  0.93557608  1  0  -0.25388  0  2.967348  0  0  -0.232143  0  3.247491  0  0  -0.240639  0  3.26493  0  0  -0.191451  -0.226204  0  3.235649  0
N  N51  1  0.27730060  0.91054204  0.43557552  1  0  -0.253844  0  2.967269  0  0  -0.23211  0  3.247417  0  0  -0.240606  0  3.264863  0  0  -0.191448  -0.226171  0  3.235577  0
N  N52  1  0.23333071  0.19943516  0.96790605  1  0  -0.198812  0  2.894794  0  0  -0.200736  0  3.174368  0  0  -0.203695  0  3.188602  0  0  -0.178739  -0.198589  0  3.164923  0
N  N53  1  0.76666733  0.80056130  0.46790694  1  0  -0.198824  0  2.894715  0  0  -0.200777  0  3.174318  0  0  -0.203738  0  3.188562  0  0  -0.178744  -0.198629  0  3.16487  0
N  N54  1  0.76666487  0.80055082  0.03209242  1  0  -0.198595  0  2.89476  0  0  -0.200546  0  3.174358  0  0  -0.203507  0  3.188594  0  0  -0.178674  -0.198395  0  3.164898  0
N  N55  1  0.23333689  0.19945297  0.53209262  1  0  -0.198532  0  2.894708  0  0  -0.200458  0  3.174264  0  0  -0.203424  0  3.18851  0  0  -0.178639  -0.198307  0  3.164805  0
N  N56  1  0.22536207  0.34248395  0.92933060  1  0  -0.011482  0  3.461665  0  0  0.048152  0  3.721925  0  0  0.039058  0  3.73812  0  0  -0.113095  0.054118  0  3.711164  0
N  N57  1  0.77463571  0.65751523  0.42933087  1  0  -0.01155  0  3.461712  0  0  0.048112  0  3.721968  0  0  0.039019  0  3.738159  0  0  -0.113124  0.054078  0  3.711207  0
N  N58  1  0.77463725  0.65750770  0.07066951  1  0  -0.011532  0  3.461687  0  0  0.048147  0  3.721881  0  0  0.039052  0  3.73808  0  0  -0.113108  0.054116  0  3.711117  0
N  N59  1  0.22536247  0.34249478  0.57066979  1  0  -0.01157  0  3.461663  0  0  0.04805  0  3.721946  0  0  0.038962  0  3.73814  0  0  -0.113151  0.054018  0  3.711183  0
N  N60  1  0.19581887  0.30616434  0.85784615  1  0  -0.057728  0  2.914591  0  0  -0.061454  0  3.208645  0  0  -0.058391  0  3.217541  0  0  -0.1  -0.063214  0  3.202662  0
N  N61  1  0.80417751  0.69383464  0.35784589  1  0  -0.057749  0  2.914545  0  0  -0.061484  0  3.208587  0  0  -0.058422  0  3.217482  0  0  -0.100023  -0.063242  0  3.202606  0
N  N62  1  0.80418045  0.69383436  0.14215450  1  0  -0.057693  0  2.914514  0  0  -0.061435  0  3.208564  0  0  -0.058374  0  3.217463  0  0  -0.100006  -0.063194  0  3.20258  0
N  N63  1  0.19582066  0.30616831  0.64215477  1  0  -0.05776  0  2.914553  0  0  -0.061482  0  3.208608  0  0  -0.058424  0  3.217506  0  0  -0.100017  -0.063239  0  3.202624  0
N  N64  1  0.18349895  0.13141428  0.84863450  1  0  -0.262783  0  2.986504  0  0  -0.248047  0  3.285625  0  0  -0.25364  0  3.295336  0  0  -0.239557  -0.244126  0  3.279075  0
N  N65  1  0.81649744  0.86858468  0.34863541  1  0  -0.26271  0  2.986463  0  0  -0.247962  0  3.285553  0  0  -0.253554  0  3.295276  0  0  -0.239493  -0.244042  0  3.279004  0
N  N66  1  0.81649635  0.86858159  0.15136397  1  0  -0.262812  0  2.98655  0  0  -0.248069  0  3.285673  0  0  -0.253663  0  3.295385  0  0  -0.239571  -0.244148  0  3.279122  0
N  N67  1  0.18350476  0.13142111  0.65136361  1  0  -0.262727  0  2.986638  0  0  -0.247992  0  3.285719  0  0  -0.253585  0  3.29544  0  0  -0.239525  -0.244071  0  3.279169  0
O  O68  1  0.64576824  0.70003122  0.63665465  1  0  -0.883564  0  1.844343  0  0  -0.831436  0  2.027041  0  0  -0.849258  0  1.996372  0  0  -0.702824  -0.818541  0  2.048523  0
O  O69  1  0.35422913  0.29996577  0.13665487  1  0  -0.883552  0  1.844346  0  0  -0.831448  0  2.027114  0  0  -0.84927  0  1.996448  0  0  -0.702821  -0.818554  0  2.048597  0
O  O70  1  0.35422762  0.29996606  0.36334655  1  0  -0.88362  0  1.844363  0  0  -0.831518  0  2.027143  0  0  -0.849337  0  1.996474  0  0  -0.70285  -0.818622  0  2.048629  0
O  O71  1  0.64577163  0.70003295  0.86334688  1  0  -0.883584  0  1.844406  0  0  -0.831471  0  2.027163  0  0  -0.849291  0  1.996499  0  0  -0.702833  -0.818573  0  2.04865  0
O  O72  1  0.90375295  0.47528847  0.75000122  1  0  -0.863573  0  1.823801  0  0  -0.816972  0  1.995284  0  0  -0.832736  0  1.966528  0  0  -0.677796  -0.8057  0  2.015553  0
O  O73  1  0.09624551  0.52471165  0.25000217  1  0  -0.863636  0  1.823715  0  0  -0.817052  0  1.995215  0  0  -0.832812  0  1.966459  0  0  -0.677825  -0.80578  0  2.015485  0
O  O74  1  0.17768999  0.76671249  0.87446111  1  0  -0.44561  0  1.944588  0  0  -0.408298  0  2.157427  0  0  -0.42392  0  2.151837  0  0  -0.283517  -0.397628  0  2.161372  0
O  O75  1  0.82232048  0.23328941  0.37446116  1  0  -0.445683  0  1.944536  0  0  -0.408273  0  2.157444  0  0  -0.423973  0  2.151818  0  0  -0.283488  -0.397602  0  2.161387  0
O  O76  1  0.82231911  0.23327495  0.12553352  1  0  -0.445455  0  1.945229  0  0  -0.40815  0  2.158054  0  0  -0.423761  0  2.152461  0  0  -0.283422  -0.397482  0  2.162002  0
O  O77  1  0.17767021  0.76672339  0.62553238  1  0  -0.445522  0  1.945357  0  0  -0.408171  0  2.158233  0  0  -0.423824  0  2.152581  0  0  -0.283421  -0.397503  0  2.162181  0
O  O78  1  0.61026376  0.00379669  0.75000060  1  0  -0.874247  0  1.846367  0  0  -0.820202  0  2.020777  0  0  -0.837838  0  1.989539  0  0  -0.702771  -0.807482  0  2.042545  0
O  O79  1  0.38973469  0.99620343  0.25000115  1  0  -0.874202  0  1.846406  0  0  -0.820138  0  2.020825  0  0  -0.837772  0  1.989589  0  0  -0.702783  -0.807418  0  2.042592  0
