# generated using pymatgen
data_VCdPH18C15N3O10
_symmetry_space_group_name_H-M   'P 1'
_cell_length_a   10.00560768
_cell_length_b   11.71947029
_cell_length_c   12.30706803
_cell_angle_alpha   107.66789604
_cell_angle_beta   113.22147298
_cell_angle_gamma   101.36704109
_symmetry_Int_Tables_number   1
_chemical_formula_structural   VCdPH18C15N3O10
_chemical_formula_sum   'V2 Cd2 P2 H36 C30 N6 O20'
_cell_volume   1178.08556064
_cell_formula_units_Z   2
loop_
 _symmetry_equiv_pos_site_id
 _symmetry_equiv_pos_as_xyz
  1  'x, y, z'
loop_
 _atom_site_type_symbol
 _atom_site_label
 _atom_site_symmetry_multiplicity
 _atom_site_fract_x
 _atom_site_fract_y
 _atom_site_fract_z
 _atom_site_occupancy
 _atom_site_hle17_ddec_charge
 _atom_site_hle17_ddec_spin_density
 _atom_site_hle17_ddec_sum_bond_order
 _atom_site_hle17_magmom
 _atom_site_hse06_10hf_ddec_charge
 _atom_site_hse06_10hf_ddec_spin_density
 _atom_site_hse06_10hf_ddec_sum_bond_order
 _atom_site_hse06_10hf_magmom
 _atom_site_hse06_ddec_charge
 _atom_site_hse06_ddec_spin_density
 _atom_site_hse06_ddec_sum_bond_order
 _atom_site_hse06_magmom
 _atom_site_pbe_cm5_charge
 _atom_site_pbe_ddec_charge
 _atom_site_pbe_ddec_spin_density
 _atom_site_pbe_ddec_sum_bond_order
 _atom_site_pbe_magmom
V  V0  1  0.54083774  0.16511339  0.22029990  1  1.754273  1.287622  2.58419  1.229  1.756646  1.05738  2.997357  1.013  1.848792  1.110356  2.95108  1.065  1.327664  1.691255  1.008784  3.037321  0.963
V  V1  1  0.45916236  0.83488380  0.77970333  1  1.754149  -1.28757  2.584378  -1.229  1.756494  -1.057361  2.997582  -1.013  1.848651  -1.110334  2.951286  -1.065  1.32765  1.691095  -1.008764  3.037569  -0.963
Cd  Cd2  1  0.05465896  0.29985045  0.24821663  1  1.18256  1.1e-05  1.673664  0.0  0.994134  9.4e-05  2.126412  0.0  1.04519  4.2e-05  2.074562  0.0  0.787521  0.955766  0.000229  2.163746  0.0
Cd  Cd3  1  0.94533994  0.70015151  0.75178271  1  1.182552  -1e-05  1.673724  0.0  0.994125  -9.4e-05  2.126461  0.0  1.045185  -4.4e-05  2.074614  0.0  0.787511  0.955754  -0.000229  2.163793  0.0
P  P4  1  0.67547720  0.12142931  0.02357999  1  1.504234  -0.001934  4.813133  -0.003  1.360863  -0.001473  5.317474  -0.003  1.415994  -0.001351  5.274858  -0.003  0.336998  1.321887  -0.001439  5.345091  -0.003
P  P5  1  0.32451785  0.87856397  0.97641159  1  1.504319  0.001934  4.813086  0.003  1.36094  0.001471  5.317415  0.003  1.416082  0.001362  5.274799  0.003  0.337004  1.321962  0.001438  5.34503  0.003
H  H6  1  0.37742658  0.35070460  0.39677611  1  0.436009  -0.000369  0.833296  0.0  0.409254  -0.000365  0.895918  0.0  0.420091  -0.000325  0.879971  0.0  0.30781  0.4015  -0.000406  0.907313  0.0
H  H7  1  0.62256995  0.64929447  0.60322084  1  0.43601  0.000369  0.833281  0.0  0.409243  0.000365  0.895932  0.0  0.420082  0.000325  0.879983  0.0  0.307798  0.401488  0.000406  0.907329  0.0
H  H8  1  0.33291212  0.39475603  0.50975740  1  0.428477  -1.4e-05  0.832791  0.0  0.406203  -5.3e-05  0.89131  0.0  0.415013  -1.9e-05  0.878623  0.0  0.312461  0.399762  -0.000121  0.900663  0.0
H  H9  1  0.66708728  0.60524210  0.49024263  1  0.428487  1.4e-05  0.83279  0.0  0.406215  5.3e-05  0.891296  0.0  0.415025  1.9e-05  0.878611  0.0  0.312461  0.399773  0.000121  0.900651  0.0
H  H10  1  0.07815871  0.38485971  0.50804422  1  0.422956  -2e-06  0.883797  0.0  0.388818  -1.9e-05  0.952997  0.0  0.400464  -4e-06  0.936122  0.0  0.284337  0.380542  -3.5e-05  0.965002  0.0
H  H11  1  0.92184307  0.61514131  0.49195901  1  0.422976  2e-06  0.88377  0.0  0.388862  1.9e-05  0.952951  0.0  0.400498  4e-06  0.936079  0.0  0.284374  0.380582  3.5e-05  0.964964  0.0
H  H12  1  0.89584008  0.34894114  0.40160527  1  0.42816  -0.00029  0.871669  0.0  0.396913  -0.000225  0.936441  0.0  0.407486  -0.000219  0.920968  0.0  0.295843  0.389334  -0.00023  0.947533  0.0
H  H13  1  0.10416126  0.65105891  0.59839592  1  0.428209  0.00029  0.871596  0.0  0.396971  0.000225  0.936354  0.0  0.407544  0.000219  0.920882  0.0  0.295873  0.38939  0.00023  0.947448  0.0
H  H14  1  0.99001369  0.91960858  0.40306177  1  0.107354  -9e-06  0.949719  0.0  0.119449  -1e-05  1.00677  0.0  0.122226  -1.1e-05  1.006559  0.0  0.11026  0.117446  -1.1e-05  1.007134  0.0
H  H15  1  0.00998847  0.08039337  0.59693860  1  0.107354  1e-05  0.949683  0.0  0.11943  1e-05  1.006755  0.0  0.122206  1e-05  1.006545  0.0  0.110265  0.117431  1.1e-05  1.007119  0.0
H  H16  1  0.98284150  0.12865513  0.38827575  1  0.089436  -3e-05  0.954173  0.0  0.099183  -4e-05  1.014514  0.0  0.102111  -3e-05  1.011587  0.0  0.117486  0.097016  -4.4e-05  1.016664  0.0
H  H17  1  0.01716067  0.87134683  0.61172543  1  0.089463  2.8e-05  0.95415  0.0  0.099204  4e-05  1.0145  0.0  0.102133  3.1e-05  1.01157  0.0  0.117485  0.097032  4.4e-05  1.016649  0.0
H  H18  1  0.12222610  0.05569956  0.10683873  1  0.081609  -5.8e-05  0.955374  0.0  0.089398  7.4e-05  1.022022  0.0  0.091526  -1e-05  1.020106  0.0  0.117547  0.087724  0.000151  1.023644  0.0
H  H19  1  0.87777169  0.94430238  0.89315863  1  0.081611  5.7e-05  0.955401  0.0  0.089412  -7.5e-05  1.022026  0.0  0.091545  1.1e-05  1.020104  0.0  0.117582  0.087738  -0.000151  1.023648  0.0
H  H20  1  0.12500954  0.84477755  0.10194989  1  0.134184  -2.7e-05  0.970733  0.0  0.141786  -4.3e-05  1.030664  0.0  0.145906  -3.9e-05  1.028643  0.0  0.111745  0.138671  -7.7e-05  1.032521  0.0
H  H21  1  0.87499195  0.15522536  0.89804972  1  0.134152  2.9e-05  0.970759  0.0  0.141755  4.3e-05  1.030701  0.0  0.145875  3.9e-05  1.028679  0.0  0.111744  0.138641  7.7e-05  1.032557  0.0
H  H22  1  0.21076405  0.81344573  0.46687220  1  0.130112  0.000837  0.962592  0.0  0.142789  0.000781  1.018438  0.0  0.147597  0.000771  1.015319  0.0  0.110483  0.139329  0.000778  1.020777  0.0
H  H23  1  0.78923895  0.18655813  0.53312817  1  0.130146  -0.000836  0.962622  0.0  0.142816  -0.000781  1.01847  0.0  0.147625  -0.000771  1.015351  0.0  0.110501  0.139358  -0.000778  1.020809  0.0
H  H24  1  0.20695801  0.59872972  0.45698977  1  0.088885  0.000315  0.962414  0.0  0.095412  0.000321  1.028855  0.0  0.098728  0.000296  1.02551  0.0  0.117806  0.092949  0.000326  1.031269  0.0
H  H25  1  0.79303981  0.40127224  0.54301004  1  0.088866  -0.000316  0.962444  0.0  0.095413  -0.000321  1.028857  0.0  0.098711  -0.000296  1.025531  0.0  0.11779  0.092949  -0.000326  1.031276  0.0
H  H26  1  0.92085163  0.42123145  0.05618669  1  0.085057  6e-06  0.952725  0.0  0.093799  1.3e-05  1.01625  0.0  0.09623  8e-06  1.014427  0.0  0.115319  0.091958  2.4e-05  1.017672  0.0
H  H27  1  0.07914703  0.57877243  0.94381312  1  0.085092  -6e-06  0.952667  0.0  0.093808  -1.3e-05  1.016231  0.0  0.096243  -8e-06  1.014399  0.0  0.115312  0.091966  -2.4e-05  1.017651  0.0
H  H28  1  0.92159602  0.63286570  0.04583047  1  0.114983  2e-05  0.981458  0.0  0.119956  -2e-06  1.050892  0.0  0.12389  3e-06  1.049108  0.0  0.104769  0.117216  -1.3e-05  1.0522  0.0
H  H29  1  0.07840504  0.36713624  0.95416792  1  0.114992  -1.9e-05  0.981461  0.0  0.119948  2e-06  1.050911  0.0  0.123893  -3e-06  1.049119  0.0  0.104773  0.11721  1.3e-05  1.052218  0.0
H  H30  1  0.25382814  0.15111826  0.94640713  1  0.12116  7.4e-05  0.922603  0.0  0.135118  0.000163  0.982301  0.0  0.137343  5.1e-05  0.982368  0.0  0.122822  0.133263  0.000357  0.982961  0.0
H  H31  1  0.74616887  0.84888181  0.05359595  1  0.121173  -7.3e-05  0.922644  0.0  0.135113  -0.000163  0.982334  0.0  0.137349  -5.1e-05  0.982387  0.0  0.122847  0.133258  -0.000357  0.982996  0.0
H  H32  1  0.30209604  0.31559433  0.97440701  1  0.089065  -0.000141  0.923103  0.0  0.102381  -4.3e-05  0.985272  0.0  0.105224  -5.3e-05  0.983188  0.0  0.104304  0.100685  2.1e-05  0.986621  0.0
H  H33  1  0.69790423  0.68440573  0.02559628  1  0.089129  0.000142  0.923063  0.0  0.102397  4.3e-05  0.985248  0.0  0.105245  5.4e-05  0.983159  0.0  0.104318  0.100701  -2.1e-05  0.986596  0.0
H  H34  1  0.54690164  0.45733824  0.10582583  1  0.09338  -1.1e-05  0.913346  0.0  0.107579  0.000128  0.972421  0.0  0.110832  6.3e-05  0.969196  0.0  0.107124  0.105087  0.00028  0.975063  0.0
H  H35  1  0.45309846  0.54265895  0.89417741  1  0.093347  1.1e-05  0.913388  0.0  0.107571  -0.000128  0.972438  0.0  0.110823  -6.3e-05  0.969212  0.0  0.107095  0.105069  -0.00028  0.97509  0.0
H  H36  1  0.69503040  0.39818187  0.10016481  1  0.109995  0.000156  0.937426  0.0  0.12401  0.000326  1.000258  0.0  0.126296  0.000142  0.999481  0.0  0.119844  0.121969  0.000624  1.001356  0.001
H  H37  1  0.30497033  0.60181433  0.89983509  1  0.10997  -0.000156  0.937452  0.0  0.123953  -0.000325  1.000327  0.0  0.126236  -0.000142  0.99955  0.0  0.119816  0.121915  -0.000624  1.001413  -0.001
H  H38  1  0.53561041  0.22537993  0.89517518  1  0.117653  -0.000233  0.912134  0.0  0.134561  -0.000183  0.961279  0.0  0.137782  -0.000147  0.959233  0.0  0.108793  0.13261  -0.000242  0.962615  0.0
H  H39  1  0.46438682  0.77461820  0.10482416  1  0.117655  0.000233  0.912122  0.0  0.134551  0.000183  0.961269  0.0  0.137778  0.000147  0.959226  0.0  0.108813  0.132601  0.000242  0.962604  0.0
H  H40  1  0.40882823  0.08943376  0.88840295  1  0.141862  -3.7e-05  0.967341  0.0  0.152329  -0.000123  1.026912  0.0  0.156083  -7.1e-05  1.024697  0.0  0.122904  0.149634  -0.000168  1.028908  0.0
H  H41  1  0.59116749  0.91056341  0.11159564  1  0.141829  3.7e-05  0.967346  0.0  0.152265  0.000123  1.026957  0.0  0.156021  7.2e-05  1.024747  0.0  0.122871  0.14957  0.000168  1.028955  0.0
C  C42  1  0.02083694  0.94738170  0.33671084  1  -0.167739  -8.2e-05  3.717897  0.0  -0.183623  -5e-05  3.960351  0.0  -0.191435  -4.2e-05  3.982109  0.0  -0.08115  -0.178617  -4.5e-05  3.945871  0.0
C  C43  1  0.97916674  0.05262122  0.66329110  1  -0.167695  5.9e-05  3.717908  0.0  -0.183565  5e-05  3.960349  0.0  -0.191377  4.5e-05  3.982107  0.0  -0.081137  -0.178563  4.5e-05  3.945872  0.0
C  C44  1  0.01653345  0.06280374  0.32942402  1  0.129436  1.7e-05  3.717251  0.0  0.099633  -2.4e-05  3.96583  0.0  0.106496  -2e-05  3.984567  0.0  0.043951  0.095058  -6.6e-05  3.953099  0.0
C  C45  1  0.98347022  0.93719918  0.67057710  1  0.129385  1e-05  3.717299  0.0  0.099589  2.3e-05  3.965861  0.0  0.106452  1.9e-05  3.9846  0.0  0.043935  0.095022  6.6e-05  3.953122  0.0
C  C46  1  0.09114449  0.02223357  0.17001571  1  0.146576  9.4e-05  3.691198  0.0  0.11298  9.3e-05  3.949071  0.0  0.120971  5.4e-05  3.966329  0.0  0.051913  0.10764  0.000109  3.937469  0.0
C  C47  1  0.90885718  0.97777222  0.82998561  1  0.146617  -7e-05  3.691186  0.0  0.113025  -9.3e-05  3.949067  0.0  0.121014  -5.6e-05  3.966319  0.0  0.051889  0.107683  -0.000109  3.937464  0.0
C  C48  1  0.09414453  0.90386820  0.16872974  1  -0.142091  -9.9e-05  3.649758  0.0  -0.159324  -6.3e-05  3.892547  0.0  -0.166723  -5.5e-05  3.9121  0.0  -0.074459  -0.154456  -6.7e-05  3.879528  0.0
C  C49  1  0.90585803  0.09613470  0.83126940  1  -0.142035  7e-05  3.649769  0.0  -0.159298  6.4e-05  3.892588  0.0  -0.166699  5.5e-05  3.912145  0.0  -0.074464  -0.154439  6.7e-05  3.879589  0.0
C  C50  1  0.05981950  0.86522239  0.25466148  1  0.099288  7e-05  3.762815  0.0  0.111531  2.3e-05  3.992011  0.0  0.115116  2.4e-05  4.01421  0.0  0.017195  0.109375  -2.8e-05  3.976643  0.0
C  C51  1  0.94018265  0.13477956  0.74533807  1  0.099189  -4.8e-05  3.762835  0.0  0.111467  -2.3e-05  3.99201  0.0  0.115052  -2.5e-05  4.014208  0.0  0.017166  0.109308  2.8e-05  3.976647  0.0
C  C52  1  0.06205039  0.74019884  0.25623527  1  0.101237  -1.9e-05  3.761668  0.0  0.113829  4e-05  3.990244  0.0  0.117363  1.9e-05  4.012686  0.0  0.015162  0.111545  0.000175  3.974798  0.0
C  C53  1  0.93795218  0.25980406  0.74376387  1  0.101338  3.4e-05  3.761489  0.0  0.113911  -4e-05  3.990082  0.0  0.117446  -1.9e-05  4.012526  0.0  0.015242  0.111629  -0.000175  3.974636  0.0
C  C54  1  0.14232784  0.72984900  0.37290486  1  -0.14632  0.000889  3.66671  0.001  -0.163861  0.000644  3.903332  0.0  -0.170877  0.000652  3.922085  0.0  -0.075213  -0.159293  0.000579  3.890936  0.0
C  C55  1  0.85767364  0.27015390  0.62709394  1  -0.146337  -0.000906  3.666646  -0.001  -0.163882  -0.000644  3.903283  0.0  -0.170899  -0.000652  3.922032  0.0  -0.07523  -0.159313  -0.000579  3.890887  0.0
C  C56  1  0.14136723  0.60951097  0.36829208  1  0.136541  7.3e-05  3.697112  0.0  0.107698  0.000107  3.945991  0.0  0.114854  0.0001  3.964094  0.0  0.04989  0.103025  0.000165  3.933665  0.0
C  C57  1  0.85863208  0.39049194  0.63170685  1  0.136523  -5.6e-05  3.697133  0.0  0.10768  -0.000107  3.94599  0.0  0.114851  -0.000101  3.964096  0.0  0.049884  0.103007  -0.000165  3.933666  0.0
C  C58  1  0.98423689  0.51155736  0.14382368  1  0.122702  -4.9e-05  3.731773  0.0  0.092055  1e-06  3.984385  0.0  0.098106  -1e-05  4.004797  0.0  0.040039  0.088143  0.000111  3.970497  0.0
C  C59  1  0.01576395  0.48844652  0.85617763  1  0.122696  6.8e-05  3.731756  0.0  0.092061  -1e-06  3.984353  0.0  0.098114  1e-05  4.004767  0.0  0.040051  0.088151  -0.000111  3.970463  0.0
C  C60  1  0.98368346  0.62831908  0.13902506  1  -0.175289  8.5e-05  3.711031  0.0  -0.192111  4.2e-05  3.958815  0.0  -0.200775  4.2e-05  3.980721  0.0  -0.086808  -0.186437  1.9e-05  3.944038  0.0
C  C61  1  0.01631910  0.37168382  0.86097408  1  -0.175292  -0.000105  3.711033  0.0  -0.192094  -4.1e-05  3.958814  0.0  -0.20077  -4.4e-05  3.980714  0.0  -0.08682  -0.18642  -1.9e-05  3.944033  0.0
C  C62  1  0.29834354  0.27321754  0.13255274  1  0.692338  0.006503  3.823419  0.006  0.645753  0.007846  4.129791  0.006  0.682434  0.004079  4.119603  0.003  0.213509  0.619177  0.01369  4.13731  0.01
C  C63  1  0.70165868  0.72678446  0.86745335  1  0.692365  -0.006505  3.82348  -0.006  0.645903  -0.007847  4.129613  -0.006  0.682579  -0.004078  4.119431  -0.003  0.213603  0.619329  -0.013694  4.137134  -0.01
C  C64  1  0.33263746  0.24932143  0.01908906  1  -0.176721  -0.000215  3.669944  0.0  -0.234085  -4.2e-05  3.92888  0.0  -0.236738  -3.3e-05  3.936939  0.0  -0.069679  -0.232179  3.4e-05  3.923962  0.0
C  C65  1  0.66736279  0.75067862  0.98091260  1  -0.176845  0.000213  3.670164  0.0  -0.234127  4.4e-05  3.928883  0.0  -0.236789  2.7e-05  3.936929  0.0  -0.069708  -0.232222  -3.4e-05  3.923967  0.0
C  C66  1  0.60408273  0.39022034  0.12940848  1  -0.176637  -7.7e-05  3.657135  0.0  -0.230405  0.000123  3.90953  0.0  -0.232282  8.1e-05  3.916474  0.0  -0.068082  -0.22884  0.000251  3.905139  -0.001
C  C67  1  0.39591844  0.60977683  0.87059347  1  -0.176626  7.6e-05  3.656992  0.0  -0.230379  -0.000123  3.909411  0.0  -0.232249  -7.8e-05  3.916348  0.0  -0.068024  -0.228819  -0.000251  3.905058  0.001
C  C68  1  0.69292766  0.43712504  0.27724258  1  0.695523  0.006224  3.833443  0.005  0.644652  0.008005  4.147253  0.006  0.680698  0.003897  4.136779  0.003  0.213622  0.618789  0.013984  4.154671  0.01
C  C69  1  0.30707115  0.56286924  0.72275698  1  0.695698  -0.006221  3.833392  -0.005  0.644767  -0.008004  4.147316  -0.006  0.68081  -0.003899  4.136843  -0.003  0.213667  0.618906  -0.013982  4.154728  -0.01
C  C70  1  0.51434891  0.17583493  0.95330867  1  -0.355817  -0.001247  3.637369  -0.001  -0.392899  -0.00135  3.887978  -0.001  -0.397831  -0.001033  3.893172  -0.001  -0.079028  -0.389307  -0.001585  3.884647  -0.001
C  C71  1  0.48564789  0.82416222  0.04668945  1  -0.355812  0.001244  3.637304  0.001  -0.392846  0.00135  3.887904  0.001  -0.39781  0.001031  3.893143  0.001  -0.07904  -0.389253  0.001585  3.884571  0.001
N  N72  1  0.05268135  0.10048369  0.24810823  1  -0.345966  -0.000159  3.255327  0.0  -0.267176  -0.000117  3.52163  0.0  -0.28697  -0.000116  3.539313  0.0  -0.328157  -0.253318  -2.5e-05  3.509151  0.0
N  N73  1  0.94731907  0.89951923  0.75189267  1  -0.345987  0.000139  3.255333  0.0  -0.267209  0.000119  3.521652  0.0  -0.287004  0.000115  3.539338  0.0  -0.328151  -0.253349  2.5e-05  3.509169  0.0
N  N74  1  0.06145227  0.50196712  0.25635173  1  -0.339315  0.000107  3.261755  0.0  -0.262352  0.000117  3.526318  0.0  -0.28262  5.9e-05  3.546352  0.0  -0.332565  -0.24804  0.000148  3.512036  0.0
N  N75  1  0.93854596  0.49803579  0.74364767  1  -0.339352  -0.000123  3.261717  0.0  -0.262389  -0.000117  3.526272  0.0  -0.282658  -5.7e-05  3.5463  0.0  -0.332586  -0.248078  -0.000148  3.511989  0.0
N  N76  1  0.49353712  0.25684168  0.05901933  1  -0.166557  -0.00403  3.36666  -0.005  -0.097929  -0.002512  3.620894  -0.002  -0.115058  -0.002063  3.64929  -0.002  -0.351837  -0.086039  -0.002692  3.60172  -0.002
N  N77  1  0.50646120  0.74315644  0.94098036  1  -0.166447  0.004029  3.366609  0.005  -0.097849  0.002512  3.620773  0.002  -0.11497  0.002062  3.649173  0.002  -0.351805  -0.085959  0.002692  3.601599  0.002
O  O78  1  0.38501859  0.25242088  0.22878581  1  -0.675808  -0.003127  2.082289  -0.016  -0.637234  0.004754  2.340222  -0.009  -0.670869  0.005463  2.331039  -0.008  -0.349737  -0.613039  0.004232  2.346859  -0.011
O  O79  1  0.61497733  0.74757918  0.77121529  1  -0.675854  0.003128  2.082125  0.016  -0.637325  -0.004754  2.340004  0.009  -0.670965  -0.005462  2.33083  0.008  -0.349825  -0.613128  -0.004231  2.346641  0.011
O  O80  1  0.18438537  0.30723260  0.12371328  1  -0.613108  0.003188  1.994219  0.003  -0.551593  0.006831  2.240418  0.007  -0.577891  0.005046  2.229397  0.005  -0.310499  -0.533139  0.008998  2.249043  0.008
O  O81  1  0.81561222  0.69277130  0.87628863  1  -0.613081  -0.00319  1.994302  -0.003  -0.551626  -0.006834  2.240454  -0.007  -0.577922  -0.005046  2.229436  -0.005  -0.310518  -0.533164  -0.009001  2.249051  -0.008
O  O82  1  0.70071522  0.35059061  0.32165561  1  -0.694427  -0.001798  2.139818  -0.015  -0.650787  0.00534  2.402099  -0.008  -0.684151  0.006056  2.392899  -0.007  -0.353181  -0.627083  0.004864  2.408792  -0.01
O  O83  1  0.29928620  0.64940465  0.67834668  1  -0.694484  0.001797  2.13978  0.015  -0.650821  -0.005339  2.402084  0.008  -0.684186  -0.006055  2.392888  0.007  -0.35327  -0.627117  -0.004865  2.408781  0.01
O  O84  1  0.76045286  0.55579684  0.34685373  1  -0.611643  0.003161  1.916203  0.003  -0.561381  0.007049  2.127143  0.007  -0.583809  0.005211  2.115308  0.005  -0.320049  -0.546285  0.009437  2.135856  0.009
O  O85  1  0.23954914  0.44420226  0.65314822  1  -0.611686  -0.003161  1.916297  -0.003  -0.561393  -0.007048  2.127262  -0.007  -0.58382  -0.005213  2.115432  -0.005  -0.320009  -0.546296  -0.009436  2.135974  -0.009
O  O86  1  0.67379149  0.11405064  0.14684567  1  -0.895768  0.014443  2.054674  0.001  -0.844476  0.02432  2.339001  0.011  -0.880467  0.022013  2.324556  0.009  -0.431562  -0.817156  0.025741  2.347859  0.012
O  O87  1  0.32620729  0.88594363  0.85315144  1  -0.895804  -0.014448  2.054843  -0.001  -0.844487  -0.024321  2.339136  -0.011  -0.880482  -0.02202  2.324692  -0.009  -0.43155  -0.817166  -0.025742  2.347993  -0.012
O  O88  1  0.82698605  0.22030673  0.05773296  1  -0.86072  0.002515  1.960152  0.003  -0.775713  0.002429  2.23123  0.002  -0.804762  0.001964  2.208719  0.002  -0.385382  -0.753975  0.002835  2.246816  0.003
O  O89  1  0.17301163  0.77968753  0.94226217  1  -0.860789  -0.002514  1.960244  -0.003  -0.775765  -0.002428  2.231315  -0.002  -0.804824  -0.001967  2.208806  -0.002  -0.385403  -0.754029  -0.002835  2.246899  -0.003
O  O90  1  0.64333829  0.98741535  0.92428660  1  -0.879595  -0.006969  2.029546  0.008  -0.827901  -0.016222  2.315663  -0.001  -0.86307  -0.015351  2.300187  -0.001  -0.426068  -0.801616  -0.016843  2.325588  -0.001
O  O91  1  0.35665672  0.01258275  0.07570878  1  -0.879616  0.006962  2.029319  -0.008  -0.827946  0.016218  2.315447  0.001  -0.863103  0.015346  2.299945  0.001  -0.426082  -0.801662  0.016839  2.325371  0.001
O  O92  1  0.58599659  0.12828733  0.34272859  1  -0.693288  -0.244271  1.224465  -0.237  -0.715678  -0.106489  1.460833  -0.105  -0.75268  -0.134249  1.449522  -0.134  -0.60403  -0.689109  -0.08906  1.469511  -0.087
O  O93  1  0.41400967  0.87170409  0.65727414  1  -0.693211  0.244236  1.224472  0.237  -0.715599  0.106474  1.460832  0.105  -0.752607  0.134239  1.449514  0.134  -0.604009  -0.689028  0.089051  1.469511  0.087
O  O94  1  0.32050260  0.39894284  0.42844270  1  -0.815421  -0.000107  1.850546  0.0  -0.760488  -0.00012  2.034082  0.0  -0.78004  -8.7e-05  2.001493  0.0  -0.57361  -0.746545  -0.000166  2.057118  0.0
O  O95  1  0.67949765  0.60105720  0.57155814  1  -0.815422  0.000109  1.850537  0.0  -0.760489  0.000121  2.03407  0.0  -0.780042  8.7e-05  2.001481  0.0  -0.573599  -0.746545  0.000166  2.057107  0.0
O  O96  1  0.99238985  0.33172822  0.41613040  1  -0.852833  1.9e-05  1.889824  0.0  -0.789696  7.7e-05  2.090421  0.0  -0.811801  4.9e-05  2.055434  0.0  -0.588028  -0.773877  8e-05  2.11488  0.0
O  O97  1  0.00760796  0.66827373  0.58386859  1  -0.852896  -2e-05  1.889778  0.0  -0.789798  -7.8e-05  2.090308  0.0  -0.811887  -4.9e-05  2.055355  0.0  -0.58809  -0.773975  -8e-05  2.11477  0.0
