# generated using pymatgen
data_ZnH9C15NO5
_symmetry_space_group_name_H-M   'P 1'
_cell_length_a   9.72259248
_cell_length_b   11.06976696
_cell_length_c   16.11180798
_cell_angle_alpha   84.80608330
_cell_angle_beta   88.10519291
_cell_angle_gamma   90.20794978
_symmetry_Int_Tables_number   1
_chemical_formula_structural   ZnH9C15NO5
_chemical_formula_sum   'Zn2 H18 C30 N2 O10'
_cell_volume   1725.96036263
_cell_formula_units_Z   2
loop_
 _symmetry_equiv_pos_site_id
 _symmetry_equiv_pos_as_xyz
  1  'x, y, z'
loop_
 _atom_site_type_symbol
 _atom_site_label
 _atom_site_symmetry_multiplicity
 _atom_site_fract_x
 _atom_site_fract_y
 _atom_site_fract_z
 _atom_site_occupancy
 _atom_site_pbe_bader_charge
 _atom_site_pbe_bader_spin_density
 _atom_site_pbe_cm5_charge
 _atom_site_pbe_ddec_charge
 _atom_site_pbe_ddec_spin_density
 _atom_site_pbe_ddec_sum_bond_order
 _atom_site_pbe_magmom
Zn  Zn0  1  0.36783660  0.49224780  0.51120699  1  1.278859  0  0.66749  0.810198  0  2.425982  0
Zn  Zn1  1  0.65331688  0.49668492  0.50382132  1  1.28729  0  0.669692  0.817192  0  2.434014  0
H  H2  1  0.64453600  0.66689630  0.93725607  1  0.075818  0  0.102439  0.089946  0  0.988273  0
H  H3  1  0.18839051  0.11216414  0.45658527  1  0.053884  0  0.097164  0.047209  0  0.96923  0
H  H4  1  0.17351559  0.88272277  0.47836036  1  0.068762  0  0.104207  0.060266  0  0.958437  0
H  H5  1  0.89054889  0.41109145  0.39391736  1  0.148549  0  0.137495  0.120563  0  0.962411  0
H  H6  1  0.14991619  0.40815146  0.39851362  1  0.159761  0  0.133973  0.11801  0  0.978226  0
H  H7  1  0.12264579  0.54336950  0.69976957  1  0.088583  0  0.111134  0.136605  0  0.967652  0
H  H8  1  0.13088261  0.68812209  0.63991798  1  0.162755  0  0.111409  0.15241  0  1.010514  0
H  H9  1  0.85989094  0.54780543  0.69387835  1  0.109998  0  0.111436  0.136388  0  0.974023  0
H  H10  1  0.87182370  0.69254076  0.63482355  1  0.12145  0  0.114438  0.139291  0  0.961207  0
H  H11  1  0.40891260  0.68678660  0.04380002  1  0.038236  0  0.102883  0.090026  0  0.988408  0
H  H12  1  0.74931076  0.48548896  0.05430018  1  0.062555  0  0.101001  0.088666  0  0.992481  0
H  H13  1  0.61514947  0.30521861  0.97071272  1  0.064623  0  0.102456  0.089987  0  0.989491  0
H  H14  1  0.37878811  0.32506713  0.07679777  1  0.062535  0  0.101842  0.089472  0  0.989607  0
H  H15  1  0.27443854  0.50707912  0.95993076  1  0.036021  0  0.100885  0.088537  0  0.992486  0
H  H16  1  0.72850686  0.88022422  0.49252652  1  0.104836  0  0.104676  0.109634  0  0.999679  0
H  H17  1  0.73446247  0.10527763  0.49016710  1  0.080725  0  0.105854  0.110813  0  0.994693  0
H  H18  1  0.18302702  0.95218453  0.63869043  1  0.614899  0  0.307187  0.345235  0  0.939328  0
H  H19  1  0.24823865  0.19542026  0.58885672  1  0.620775  0  0.305294  0.358889  0  0.931685  0
C  C20  1  0.50884182  0.72869105  0.50723932  1  1.602477  0  0.216464  0.596181  0  4.176137  0
C  C21  1  0.51099172  0.49075639  0.92227490  1  0.089823  0  0.007094  0.124531  0  3.800291  0
C  C22  1  0.43770837  0.40091811  0.04495536  1  -0.024183  0  -0.07005  -0.077546  0  3.633021  0
C  C23  1  0.51261873  0.50081092  0.09213426  1  0.125354  0  0.006791  0.126567  0  3.795757  0
C  C24  1  0.56940458  0.38996969  0.98786191  1  -0.012795  0  -0.068917  -0.074909  0  3.632851  0
C  C25  1  0.64398155  0.49002243  0.03252687  1  -0.020672  0  -0.071737  -0.08202  0  3.640259  0
C  C26  1  0.51183656  0.48515613  0.83489432  1  -0.369092  0  -0.040147  -0.062455  0  4.111911  0
C  C27  1  0.51151902  0.50557028  0.17962535  1  -0.504703  0  -0.039869  -0.060978  0  4.106839  0
C  C28  1  0.38813537  0.93177421  0.51032199  1  0.038769  0  -0.009886  -0.010137  0  3.877133  0
C  C29  1  0.50842093  0.86384395  0.50489430  1  0.001421  0  -0.005634  -0.041318  0  3.941059  0
C  C30  1  0.63271108  0.93057599  0.49650128  1  -0.036553  0  -0.080655  -0.096417  0  3.962713  0
C  C31  1  0.50891570  0.47826630  0.67014725  1  1.642856  0  0.215791  0.664267  0  4.253133  0
C  C32  1  0.63614986  0.05707825  0.49451918  1  -0.083251  0  -0.079049  -0.088963  0  3.961611  0
C  C33  1  0.51447175  0.12475942  0.49962982  1  0.014011  0  -0.012672  -0.053181  0  3.972656  0
C  C34  1  0.39241169  0.05787205  0.50526477  1  -0.125673  0  -0.016096  -0.027696  0  3.960147  0
C  C35  1  0.23799921  0.07160500  0.51304919  1  0.428789  0  -0.003359  0.11152  0  3.901469  0
C  C36  1  0.23140983  0.92689821  0.52478382  1  0.538625  0  0.00669  0.131059  0  3.85349  0
C  C37  1  0.93384456  0.53945194  0.56407077  1  0.596854  0  0.149513  0.202532  0  3.851796  0
C  C38  1  0.94411429  0.44757842  0.44459085  1  0.415291  0  0.064496  0.041384  0  3.877572  0
C  C39  1  0.08718087  0.44504045  0.44739158  1  0.480217  0  0.063678  0.04356  0  3.876699  0
C  C40  1  0.07719482  0.53640933  0.56724007  1  0.522662  0  0.150861  0.208267  0  3.845794  0
C  C41  1  0.08031020  0.59855839  0.64672217  1  -0.071226  0  -0.141183  -0.238934  0  3.801626  0
C  C42  1  0.51430747  0.25845651  0.50428634  1  1.579005  0  0.216445  0.598181  0  4.173163  0
C  C43  1  0.91681388  0.60160967  0.64332222  1  -0.050457  0  -0.135949  -0.225347  0  3.810647  0
C  C44  1  0.51163896  0.50703685  0.34483487  1  1.657403  0  0.215816  0.669935  0  4.241687  0
C  C45  1  0.45437761  0.60198204  0.02657748  1  0.011308  0  -0.067179  -0.072435  0  3.627078  0
C  C46  1  0.58589181  0.59103599  0.96933721  1  -0.042206  0  -0.068888  -0.075185  0  3.627901  0
C  C47  1  0.51151942  0.48011066  0.75958521  1  0.084447  0  -0.058686  -0.206377  0  4.015232  0
C  C48  1  0.51089623  0.50792812  0.25516019  1  0.168079  0  -0.060176  -0.205421  0  4.011565  0
C  C49  1  0.37968671  0.50209290  0.98184344  1  0.009648  0  -0.072557  -0.082379  0  3.640361  0
N  N50  1  0.86400796  0.49576782  0.50392194  1  -1.205418  0  -0.289439  -0.182361  0  3.474063  0
N  N51  1  0.15698261  0.48984423  0.50989822  1  -1.222351  0  -0.29114  -0.186832  0  3.470599  0
O  O52  1  0.39441320  0.67709459  0.49628823  1  -1.151111  0  -0.312261  -0.532706  0  2.296293  0
O  O53  1  0.62374794  0.67575208  0.51914257  1  -1.166276  0  -0.317873  -0.549368  0  2.325308  0
O  O54  1  0.39245820  0.49716732  0.63725124  1  -1.140303  0  -0.310035  -0.536391  0  2.272322  0
O  O55  1  0.62255736  0.45885607  0.63205038  1  -1.151844  0  -0.313269  -0.546371  0  2.264472  0
O  O56  1  0.39980421  0.30499213  0.52672033  1  -1.16989  0  -0.311053  -0.558583  0  2.318843  0
O  O57  1  0.62606182  0.31632693  0.48682663  1  -1.157547  0  -0.312758  -0.538854  0  2.321571  0
O  O58  1  0.39783015  0.48127827  0.38445987  1  -1.144395  0  -0.317054  -0.55404  0  2.278082  0
O  O59  1  0.62568900  0.53101047  0.37667915  1  -1.139334  0  -0.31743  -0.544503  0  2.244621  0
O  O60  1  0.18120357  0.88205043  0.60542738  1  -1.127995  0  -0.400766  -0.49064  0  2.224597  0
O  O61  1  0.18774769  0.12475514  0.58541443  1  -1.130678  0  -0.410826  -0.514973  0  2.207534  0
