# generated using pymatgen
data_TlH10C8NO2
_symmetry_space_group_name_H-M   'P 1'
_cell_length_a   7.71190115
_cell_length_b   8.96271842
_cell_length_c   14.50935137
_cell_angle_alpha   89.99847718
_cell_angle_beta   90.00040224
_cell_angle_gamma   111.90412093
_symmetry_Int_Tables_number   1
_chemical_formula_structural   TlH10C8NO2
_chemical_formula_sum   'Tl4 H40 C32 N4 O8'
_cell_volume   930.48201740
_cell_formula_units_Z   4
loop_
 _symmetry_equiv_pos_site_id
 _symmetry_equiv_pos_as_xyz
  1  'x, y, z'
loop_
 _atom_site_type_symbol
 _atom_site_label
 _atom_site_symmetry_multiplicity
 _atom_site_fract_x
 _atom_site_fract_y
 _atom_site_fract_z
 _atom_site_occupancy
 _atom_site_hle17_bader_spin_density
 _atom_site_hle17_ddec_charge
 _atom_site_hle17_ddec_spin_density
 _atom_site_hle17_ddec_sum_bond_order
 _atom_site_hle17_magmom
 _atom_site_hse06_10hf_bader_spin_density
 _atom_site_hse06_10hf_ddec_charge
 _atom_site_hse06_10hf_ddec_spin_density
 _atom_site_hse06_10hf_ddec_sum_bond_order
 _atom_site_hse06_10hf_magmom
 _atom_site_hse06_bader_spin_density
 _atom_site_hse06_ddec_charge
 _atom_site_hse06_ddec_spin_density
 _atom_site_hse06_ddec_sum_bond_order
 _atom_site_hse06_magmom
 _atom_site_pbe_bader_spin_density
 _atom_site_pbe_cm5_charge
 _atom_site_pbe_ddec_charge
 _atom_site_pbe_ddec_spin_density
 _atom_site_pbe_ddec_sum_bond_order
 _atom_site_pbe_magmom
Tl  Tl0  1  0.39999840  0.78739651  0.09312382  1  0  1.087469  0  2.149541  0  0  0.972394  0  2.62043  0  0  1.018018  0  2.588965  0  0  0.503027  0.939658  0  2.642261  0
Tl  Tl1  1  0.09999425  0.21260705  0.59312970  1  0  1.087663  0  2.14965  0  0  0.972602  0  2.620578  0  0  1.018226  0  2.589105  0  0  0.503059  0.939848  0  2.642438  0
Tl  Tl2  1  0.59998249  0.21259978  0.90687859  1  0  1.087627  0  2.149497  0  0  0.97256  0  2.620416  0  0  1.018181  0  2.588947  0  0  0.503061  0.939818  0  2.642258  0
Tl  Tl3  1  0.90001466  0.78740018  0.40686926  1  0  1.087553  0  2.149442  0  0  0.972508  0  2.620316  0  0  1.018123  0  2.588857  0  0  0.503052  0.939766  0  2.642159  0
H  H4  1  0.53196255  0.94742554  0.75507307  1  0  0.08382  0  0.964929  0  0  0.096563  0  1.029147  0  0  0.099008  0  1.026944  0  0  0.105993  0.095017  0  1.03023  0
H  H5  1  0.96805532  0.05255489  0.25508093  1  0  0.083867  0  0.96486  0  0  0.096608  0  1.029102  0  0  0.099056  0  1.0269  0  0  0.10598  0.095071  0  1.030179  0
H  H6  1  0.46805137  0.05256612  0.24493761  1  0  0.083784  0  0.964961  0  0  0.096506  0  1.029192  0  0  0.09895  0  1.026993  0  0  0.105942  0.094972  0  1.030264  0
H  H7  1  0.03194639  0.94743550  0.74492355  1  0  0.083874  0  0.964753  0  0  0.096611  0  1.028991  0  0  0.099057  0  1.026788  0  0  0.105986  0.095059  0  1.030083  0
H  H8  1  0.75696299  0.82326310  0.13619431  1  0  0.132007  0  1.012692  0  0  0.152297  0  1.070801  0  0  0.153709  0  1.073885  0  0  0.080027  0.151074  0  1.069151  0
H  H9  1  0.74303908  0.17674176  0.63620681  1  0  0.132018  0  1.012645  0  0  0.152376  0  1.070659  0  0  0.153779  0  1.073754  0  0  0.080081  0.15116  0  1.069001  0
H  H10  1  0.24302803  0.17673565  0.86379707  1  0  0.131985  0  1.01268  0  0  0.15232  0  1.070732  0  0  0.153728  0  1.073821  0  0  0.08005  0.151105  0  1.069074  0
H  H11  1  0.25697040  0.82325468  0.36380594  1  0  0.132085  0  1.012666  0  0  0.152363  0  1.070783  0  0  0.153776  0  1.073862  0  0  0.080066  0.151138  0  1.069136  0
H  H12  1  0.72509666  0.82496107  0.01379525  1  0  0.146677  0  0.997642  0  0  0.164852  0  1.055312  0  0  0.167314  0  1.057305  0  0  0.08557  0.163045  0  1.053925  0
H  H13  1  0.77488218  0.17504792  0.51380926  1  0  0.146895  0  0.997567  0  0  0.165068  0  1.055238  0  0  0.167524  0  1.057238  0  0  0.085682  0.16326  0  1.05385  0
H  H14  1  0.27486915  0.17503634  0.98619337  1  0  0.146779  0  0.997598  0  0  0.164933  0  1.055301  0  0  0.167392  0  1.057298  0  0  0.085623  0.163126  0  1.053914  0
H  H15  1  0.22510730  0.82494721  0.48619659  1  0  0.146773  0  0.997659  0  0  0.164943  0  1.055318  0  0  0.167403  0  1.057312  0  0  0.085613  0.163136  0  1.053929  0
H  H16  1  0.64351727  0.63670344  0.07519981  1  0  0.164485  0  0.994771  0  0  0.177234  0  1.058523  0  0  0.180655  0  1.059021  0  0  0.088848  0.174189  0  1.059207  0
H  H17  1  0.85646540  0.36330044  0.57520964  1  0  0.164457  0  0.994835  0  0  0.177235  0  1.058567  0  0  0.180659  0  1.05906  0  0  0.088824  0.17419  0  1.059248  0
H  H18  1  0.35645090  0.36329039  0.92478950  1  0  0.164449  0  0.994838  0  0  0.177223  0  1.058566  0  0  0.180649  0  1.059058  0  0  0.088824  0.174179  0  1.059248  0
H  H19  1  0.14352662  0.63670671  0.42479828  1  0  0.164491  0  0.994871  0  0  0.177236  0  1.058622  0  0  0.180656  0  1.059121  0  0  0.088852  0.174191  0  1.059302  0
H  H20  1  0.18485205  0.45239659  0.80022948  1  0  0.075559  0  0.950875  0  0  0.084756  0  1.017956  0  0  0.087206  0  1.015808  0  0  0.114895  0.08268  0  1.020082  0
H  H21  1  0.31515499  0.54760981  0.30022518  1  0  0.075679  0  0.950738  0  0  0.084875  0  1.017821  0  0  0.087321  0  1.015681  0  0  0.114921  0.082798  0  1.019948  0
H  H22  1  0.81513873  0.54759855  0.19978051  1  0  0.075574  0  0.950972  0  0  0.084787  0  1.018021  0  0  0.087228  0  1.015885  0  0  0.114902  0.082748  0  1.020113  0
H  H23  1  0.68485262  0.45239742  0.69977309  1  0  0.07562  0  0.950973  0  0  0.084822  0  1.018023  0  0  0.087264  0  1.015884  0  0  0.114965  0.082748  0  1.020148  0
H  H24  1  0.13572089  0.81504027  0.20730189  1  0  0.125654  0  1.023109  0  0  0.143248  0  1.088384  0  0  0.144678  0  1.091126  0  0  0.080149  0.142488  0  1.085801  0
H  H25  1  0.36429138  0.18496311  0.70730090  1  0  0.125511  0  1.023148  0  0  0.143108  0  1.088448  0  0  0.144533  0  1.091198  0  0  0.080087  0.142353  0  1.085859  0
H  H26  1  0.86427581  0.18496571  0.79270740  1  0  0.125582  0  1.023158  0  0  0.143197  0  1.088425  0  0  0.144627  0  1.09117  0  0  0.080116  0.142442  0  1.085836  0
H  H27  1  0.63572945  0.81505379  0.29270288  1  0  0.125685  0  1.023198  0  0  0.143274  0  1.088472  0  0  0.144703  0  1.091212  0  0  0.080171  0.142516  0  1.085887  0
H  H28  1  0.03561666  0.74807282  0.09612500  1  0  0.156653  0  0.991267  0  0  0.176106  0  1.046545  0  0  0.178839  0  1.047648  0  0  0.088957  0.173558  0  1.046951  0
H  H29  1  0.46436969  0.25194018  0.59612464  1  0  0.156688  0  0.991249  0  0  0.176087  0  1.046593  0  0  0.178822  0  1.047693  0  0  0.088966  0.173539  0  1.046996  0
H  H30  1  0.96435532  0.25193903  0.90388292  1  0  0.156741  0  0.991264  0  0  0.176152  0  1.046565  0  0  0.178887  0  1.047666  0  0  0.089006  0.173606  0  1.046968  0
H  H31  1  0.53564382  0.74808388  0.40386743  1  0  0.156634  0  0.991322  0  0  0.176126  0  1.046526  0  0  0.178857  0  1.047629  0  0  0.088942  0.173581  0  1.046929  0
H  H32  1  0.17788141  0.95751171  0.11468466  1  0  0.148697  0  1.005018  0  0  0.165615  0  1.064487  0  0  0.168091  0  1.066563  0  0  0.083685  0.163687  0  1.063258  0
H  H33  1  0.32213161  0.04249940  0.61468725  1  0  0.148711  0  1.004935  0  0  0.165647  0  1.06438  0  0  0.168121  0  1.066458  0  0  0.083729  0.16372  0  1.06315  0
H  H34  1  0.82212539  0.04250272  0.88532257  1  0  0.148709  0  1.005018  0  0  0.165634  0  1.064493  0  0  0.168108  0  1.066576  0  0  0.08368  0.163707  0  1.063263  0
H  H35  1  0.67788198  0.95750666  0.38530827  1  0  0.148682  0  1.005103  0  0  0.165611  0  1.064556  0  0  0.168084  0  1.066635  0  0  0.083703  0.163685  0  1.063326  0
H  H36  1  0.54533412  0.88141442  0.58667534  1  0  0.106598  0  0.94591  0  0  0.12026  0  0.999125  0  0  0.123017  0  0.999369  0  0  0.110539  0.118392  0  0.999358  0
H  H37  1  0.95470450  0.11855924  0.08666759  1  0  0.106557  0  0.945802  0  0  0.120191  0  0.999074  0  0  0.122948  0  0.99932  0  0  0.110488  0.118322  0  0.999306  0
H  H38  1  0.45469358  0.11857611  0.41333740  1  0  0.106673  0  0.945863  0  0  0.120304  0  0.999114  0  0  0.12306  0  0.999356  0  0  0.110563  0.118435  0  0.999346  0
H  H39  1  0.04531570  0.88142286  0.91332723  1  0  0.106472  0  0.946013  0  0  0.120219  0  0.999138  0  0  0.122976  0  0.999383  0  0  0.11055  0.118351  0  0.999364  0
H  H40  1  0.37386536  0.59601000  0.53524711  1  0  0.088907  0  0.959039  0  0  0.097406  0  1.023635  0  0  0.100563  0  1.020433  0  0  0.11868  0.094739  0  1.026662  0
H  H41  1  0.12615266  0.40397588  0.03524451  1  0  0.088933  0  0.959284  0  0  0.097433  0  1.02387  0  0  0.100584  0  1.020671  0  0  0.118703  0.094767  0  1.026898  0
H  H42  1  0.62617612  0.40397940  0.46476012  1  0  0.088898  0  0.959267  0  0  0.097482  0  1.023736  0  0  0.100632  0  1.020536  0  0  0.11874  0.094817  0  1.026761  0
H  H43  1  0.87382880  0.59600962  0.96475169  1  0  0.088888  0  0.958972  0  0  0.097429  0  1.023537  0  0  0.100587  0  1.020328  0  0  0.118637  0.094763  0  1.026565  0
C  C44  1  0.35855332  0.70392409  0.79009976  1  0  -0.110002  0  3.748626  0  0  -0.083174  0  3.980871  0  0  -0.095519  0  4.004954  0  0  -0.014081  -0.076056  0  3.966001  0
C  C45  1  0.14145278  0.29607436  0.29010244  1  0  -0.110187  0  3.749004  0  0  -0.083351  0  3.981236  0  0  -0.095619  0  4.005215  0  0  -0.014123  -0.07624  0  3.966384  0
C  C46  1  0.64145281  0.29606753  0.20990264  1  0  -0.110162  0  3.748924  0  0  -0.083323  0  3.981089  0  0  -0.095572  0  4.005048  0  0  -0.014056  -0.076213  0  3.966246  0
C  C47  1  0.85853673  0.70391478  0.70989169  1  0  -0.109739  0  3.748481  0  0  -0.083039  0  3.980863  0  0  -0.095318  0  4.004851  0  0  -0.013901  -0.075925  0  3.966003  0
C  C48  1  0.45881381  0.82616367  0.72880743  1  0  -0.016518  0  3.714293  0  0  -0.043774  0  3.95698  0  0  -0.039034  0  3.976101  0  0  -0.061985  -0.046749  0  3.943363  0
C  C49  1  0.04120592  0.17382918  0.22881383  1  0  -0.01653  0  3.714066  0  0  -0.0438  0  3.956771  0  0  -0.039086  0  3.975876  0  0  -0.061982  -0.046781  0  3.943153  0
C  C50  1  0.54119542  0.17382916  0.27119773  1  0  -0.016309  0  3.713785  0  0  -0.043522  0  3.956391  0  0  -0.03881  0  3.975484  0  0  -0.061906  -0.046504  0  3.942779  0
C  C51  1  0.95880985  0.82615769  0.77118651  1  0  -0.016631  0  3.713574  0  0  -0.043874  0  3.956379  0  0  -0.039152  0  3.975482  0  0  -0.062027  -0.046841  0  3.942767  0
C  C52  1  0.66581439  0.76459163  0.07842637  1  0  -0.638641  0  3.518901  0  0  -0.687187  0  3.767778  0  0  -0.702797  0  3.775748  0  0  -0.336286  -0.67674  0  3.764004  0
C  C53  1  0.83419894  0.23541107  0.57843822  1  0  -0.638948  0  3.519112  0  0  -0.687576  0  3.768013  0  0  -0.703171  0  3.775982  0  0  -0.336451  -0.677135  0  3.764229  0
C  C54  1  0.33417666  0.23540112  0.92156501  1  0  -0.638769  0  3.519007  0  0  -0.687359  0  3.767907  0  0  -0.702958  0  3.775863  0  0  -0.336391  -0.676915  0  3.764114  0
C  C55  1  0.16581520  0.76459020  0.42156901  1  0  -0.638882  0  3.519148  0  0  -0.687406  0  3.768024  0  0  -0.703014  0  3.775987  0  0  -0.33641  -0.676958  0  3.764252  0
C  C56  1  0.26611215  0.54963170  0.75419230  1  0  0.11842  0  3.707217  0  0  0.080767  0  3.957464  0  0  0.088809  0  3.975568  0  0  0.053408  0.075093  0  3.945259  0
C  C57  1  0.23386165  0.45036818  0.25419415  1  0  0.118215  0  3.706791  0  0  0.080552  0  3.95704  0  0  0.088574  0  3.975128  0  0  0.053337  0.074879  0  3.94484  0
C  C58  1  0.73386849  0.45036099  0.24580666  1  0  0.118479  0  3.707334  0  0  0.080803  0  3.957573  0  0  0.088822  0  3.975659  0  0  0.053441  0.0751  0  3.945364  0
C  C59  1  0.76612544  0.54963654  0.74579447  1  0  0.118402  0  3.707645  0  0  0.080793  0  3.957887  0  0  0.088821  0  3.975975  0  0  0.053265  0.075118  0  3.94569  0
C  C60  1  0.35141173  0.73515107  0.89146309  1  0  0.631913  0  3.973811  0  0  0.583553  0  4.261988  0  0  0.617718  0  4.256865  0  0  0.2015  0.560783  0  4.264148  0
C  C61  1  0.14859586  0.26484766  0.39145459  1  0  0.632089  0  3.973668  0  0  0.583769  0  4.261758  0  0  0.617918  0  4.256629  0  0  0.20147  0.561002  0  4.26391  0
C  C62  1  0.64859840  0.26487417  0.10854070  1  0  0.632006  0  3.974003  0  0  0.58371  0  4.262064  0  0  0.61785  0  4.256939  0  0  0.201478  0.560941  0  4.264221  0
C  C63  1  0.85139548  0.73513668  0.60853955  1  0  0.631793  0  3.973656  0  0  0.583506  0  4.261781  0  0  0.617658  0  4.256654  0  0  0.201368  0.560737  0  4.263932  0
C  C64  1  0.15575496  0.83330289  0.13276089  1  0  -0.64785  0  3.531295  0  0  -0.695455  0  3.780339  0  0  -0.710723  0  3.788117  0  0  -0.338253  -0.685225  0  3.775549  0
C  C65  1  0.34423485  0.16670489  0.63275806  1  0  -0.647771  0  3.531314  0  0  -0.695348  0  3.780411  0  0  -0.710615  0  3.788188  0  0  -0.338254  -0.685122  0  3.775607  0
C  C66  1  0.84423186  0.16670423  0.86724772  1  0  -0.647852  0  3.531345  0  0  -0.695451  0  3.7804  0  0  -0.710719  0  3.788176  0  0  -0.338261  -0.685224  0  3.7756  0
C  C67  1  0.65576258  0.83331188  0.36723677  1  0  -0.647831  0  3.531506  0  0  -0.695482  0  3.780496  0  0  -0.710742  0  3.788276  0  0  -0.338308  -0.685257  0  3.775705  0
C  C68  1  0.46515546  0.78989156  0.63592075  1  0  -0.127777  0  3.748734  0  0  -0.137107  0  3.999363  0  0  -0.145021  0  4.020794  0  0  -0.08427  -0.131649  0  3.983919  0
C  C69  1  0.03484865  0.21011015  0.13591964  1  0  -0.127746  0  3.748532  0  0  -0.137036  0  3.999172  0  0  -0.144956  0  4.020613  0  0  -0.084216  -0.131574  0  3.983728  0
C  C70  1  0.53485397  0.21011688  0.36409269  1  0  -0.128072  0  3.748377  0  0  -0.137391  0  3.999052  0  0  -0.145308  0  4.020483  0  0  -0.084469  -0.131928  0  3.98361  0
C  C71  1  0.96514269  0.78987419  0.86407794  1  0  -0.127722  0  3.748793  0  0  -0.137102  0  3.999445  0  0  -0.145024  0  4.020883  0  0  -0.084298  -0.131637  0  3.984  0
C  C72  1  0.37104860  0.63173763  0.60685856  1  0  0.137112  0  3.690853  0  0  0.104512  0  3.946297  0  0  0.112575  0  3.962443  0  0  0.054827  0.100281  0  3.933973  0
C  C73  1  0.12895597  0.36825698  0.10684897  1  0  0.13698  0  3.691228  0  0  0.104341  0  3.9467  0  0  0.112413  0  3.962852  0  0  0.05478  0.100107  0  3.934382  0
C  C74  1  0.62898424  0.36826492  0.39314936  1  0  0.137103  0  3.69106  0  0  0.104431  0  3.946517  0  0  0.112505  0  3.962669  0  0  0.054903  0.100197  0  3.934193  0
C  C75  1  0.87101171  0.63172965  0.89313758  1  0  0.13714  0  3.690877  0  0  0.104479  0  3.946371  0  0  0.112551  0  3.962515  0  0  0.054822  0.100242  0  3.93406  0
N  N76  1  0.27142185  0.51371788  0.66479371  1  0  -0.345693  0  3.181635  0  0  -0.281019  0  3.445529  0  0  -0.298446  0  3.463993  0  0  -0.309155  -0.267847  0  3.430706  0
N  N77  1  0.22857950  0.48628254  0.16478323  1  0  -0.345391  0  3.181096  0  0  -0.280684  0  3.444953  0  0  -0.298112  0  3.463424  0  0  -0.309011  -0.267512  0  3.430133  0
N  N78  1  0.72857826  0.48628091  0.33520938  1  0  -0.345556  0  3.181503  0  0  -0.280889  0  3.445423  0  0  -0.298317  0  3.463892  0  0  -0.30916  -0.26772  0  3.430618  0
N  N79  1  0.77140429  0.51370537  0.83519506  1  0  -0.345761  0  3.181589  0  0  -0.281091  0  3.445494  0  0  -0.298521  0  3.463958  0  0  -0.309043  -0.267919  0  3.430682  0
O  O80  1  0.41489259  0.88051861  0.91928130  1  0  -0.681266  0  2.004791  0  0  -0.61388  0  2.24777  0  0  -0.643405  0  2.240924  0  0  -0.314415  -0.592274  0  2.250948  0
O  O81  1  0.08512445  0.11948014  0.41928462  1  0  -0.681332  0  2.004707  0  0  -0.613973  0  2.247668  0  0  -0.643502  0  2.240833  0  0  -0.314415  -0.592366  0  2.250841  0
O  O82  1  0.58510302  0.11949696  0.08071421  1  0  -0.681423  0  2.004267  0  0  -0.614049  0  2.247172  0  0  -0.643582  0  2.240341  0  0  -0.314548  -0.592466  0  2.250397  0
O  O83  1  0.91488682  0.88052351  0.58070744  1  0  -0.681313  0  2.004132  0  0  -0.613928  0  2.247054  0  0  -0.643461  0  2.240216  0  0  -0.314454  -0.592335  0  2.250262  0
O  O84  1  0.28486592  0.61487953  0.94511694  1  0  -0.636259  0  1.943774  0  0  -0.578014  0  2.175528  0  0  -0.60531  0  2.168538  0  0  -0.311653  -0.558184  0  2.179718  0
O  O85  1  0.21513928  0.38511800  0.44511635  1  0  -0.636319  0  1.943466  0  0  -0.5781  0  2.175217  0  0  -0.605394  0  2.168215  0  0  -0.311625  -0.558267  0  2.179404  0
O  O86  1  0.71515514  0.38514096  0.05488891  1  0  -0.636232  0  1.944268  0  0  -0.578007  0  2.175938  0  0  -0.605292  0  2.168928  0  0  -0.311544  -0.558175  0  2.180131  0
O  O87  1  0.78486603  0.61488082  0.55487434  1  0  -0.636233  0  1.944053  0  0  -0.578025  0  2.175812  0  0  -0.605313  0  2.168806  0  0  -0.311578  -0.558188  0  2.17999  0
