# generated using pymatgen
data_MnH4C6NClO2
_symmetry_space_group_name_H-M   'P 1'
_cell_length_a   9.67822509
_cell_length_b   9.62419724
_cell_length_c   15.68940000
_cell_angle_alpha   90.00000000
_cell_angle_beta   90.00000000
_cell_angle_gamma   90.00000000
_symmetry_Int_Tables_number   1
_chemical_formula_structural   MnH4C6NClO2
_chemical_formula_sum   'Mn8 H32 C48 N8 Cl8 O16'
_cell_volume   1461.39147201
_cell_formula_units_Z   8
loop_
 _symmetry_equiv_pos_site_id
 _symmetry_equiv_pos_as_xyz
  1  'x, y, z'
loop_
 _atom_site_type_symbol
 _atom_site_label
 _atom_site_symmetry_multiplicity
 _atom_site_fract_x
 _atom_site_fract_y
 _atom_site_fract_z
 _atom_site_occupancy
 _atom_site_hle17_ddec_charge
 _atom_site_hle17_ddec_spin_density
 _atom_site_hle17_ddec_sum_bond_order
 _atom_site_hle17_magmom
 _atom_site_hse06_10hf_ddec_charge
 _atom_site_hse06_10hf_ddec_spin_density
 _atom_site_hse06_10hf_ddec_sum_bond_order
 _atom_site_hse06_10hf_magmom
 _atom_site_hse06_ddec_charge
 _atom_site_hse06_ddec_spin_density
 _atom_site_hse06_ddec_sum_bond_order
 _atom_site_hse06_magmom
 _atom_site_pbe_bader_charge
 _atom_site_pbe_bader_spin_density
 _atom_site_pbe_cm5_charge
 _atom_site_pbe_ddec_charge
 _atom_site_pbe_ddec_spin_density
 _atom_site_pbe_ddec_sum_bond_order
 _atom_site_pbe_magmom
Mn  Mn0  1  0.26054984  0.92615101  0.22154321  1  1.018077  -4.779409  1.92878  -4.652  0.859623  -4.698  2.434662  -4.508  0.921929  -4.750395  2.368286  -4.578  1.411738  -4.535873  0.499902  0.80974  -4.642212  2.484419  -4.437
Mn  Mn1  1  0.06981239  0.75935892  0.72168917  1  1.023715  4.788451  1.919016  4.654  0.865577  4.710124  2.422112  4.514  0.927866  4.760213  2.355984  4.582  1.411748  4.545829  0.502125  0.816318  4.658444  2.470918  4.447
Mn  Mn2  1  0.43006956  0.73997444  0.72144123  1  1.023787  4.786645  1.919879  4.653  0.866162  4.708129  2.422879  4.513  0.927885  4.758255  2.357302  4.581  1.412308  4.545589  0.50289  0.817365  4.656771  2.471589  4.446
Mn  Mn3  1  0.76011355  0.42740708  0.77849185  1  1.01523  -4.774123  1.935043  -4.646  0.85623  -4.687262  2.441522  -4.497  0.919359  -4.744765  2.374665  -4.572  1.407579  -4.5159  0.49902  0.805422  -4.624009  2.492093  -4.419
Mn  Mn4  1  0.73942484  0.07385343  0.77845361  1  1.017971  4.779429  1.928747  4.652  0.859504  4.698138  2.434519  4.509  0.921821  4.750527  2.368143  4.578  1.411953  4.535779  0.499925  0.809678  4.642243  2.484276  4.437
Mn  Mn5  1  0.93019639  0.24065799  0.27830446  1  1.023587  -4.788431  1.919121  -4.654  0.865386  -4.710181  2.422368  -4.514  0.927709  -4.76027  2.356195  -4.582  1.411895  -4.545862  0.502107  0.81613  -4.65855  2.471172  -4.447
Mn  Mn6  1  0.56991752  0.26000714  0.27855304  1  1.023644  -4.786738  1.919971  -4.653  0.866112  -4.708178  2.42294  -4.513  0.927891  -4.758301  2.357281  -4.581  1.412159  -4.545563  0.502851  0.817281  -4.656756  2.471666  -4.446
Mn  Mn7  1  0.23984666  0.57265659  0.22152090  1  1.015148  4.774241  1.934753  4.646  0.856293  4.687376  2.441054  4.497  0.919442  4.744896  2.374191  4.572  1.407587  4.51564  0.4988  0.805225  4.623684  2.491649  4.419
H  H8  1  0.87578042  0.39194230  0.45858478  1  0.071144  7.3e-05  0.96636  0.0  0.076421  -0.000363  1.03778  0.0  0.079083  -0.000164  1.035439  0.0  0.092742  -0.001464  0.11135  0.074318  -0.000558  1.039614  -0.001
H  H9  1  0.60785422  0.37514713  0.95858159  1  0.070711  -0.000142  0.966512  0.0  0.07665  -0.000543  1.037131  0.0  0.079225  -0.000408  1.034847  0.0  0.091177  -0.001032  0.111641  0.074564  -0.000702  1.038966  0.0
H  H10  1  0.89201583  0.12499432  0.95874412  1  0.070616  0.000183  0.966556  0.0  0.076415  0.000546  1.037368  0.0  0.079056  0.000435  1.03503  0.0  0.092676  0.000909  0.111469  0.074327  0.000683  1.039211  0.0
H  H11  1  0.37573522  0.89181464  0.54150637  1  0.071244  -6.8e-05  0.966396  0.0  0.076737  0.000428  1.03756  0.0  0.079398  0.000245  1.035197  0.0  0.097592  0.00134  0.111605  0.074611  0.000607  1.039456  0.001
H  H12  1  0.12423352  0.60804967  0.54141586  1  0.071218  -0.000105  0.966127  0.0  0.076463  0.000362  1.037586  0.0  0.079117  0.000165  1.035271  0.0  0.092487  0.001463  0.111338  0.074361  0.000557  1.039419  0.001
H  H13  1  0.39217728  0.62482718  0.04144582  1  0.070636  0.000155  0.966457  0.0  0.076566  0.000544  1.037094  0.0  0.079196  0.000409  1.034761  0.0  0.091185  0.00103  0.111597  0.074482  0.000702  1.038923  0.0
H  H14  1  0.10797538  0.87499454  0.04123548  1  0.070574  -0.000183  0.966522  0.0  0.076373  -0.000546  1.03732  0.0  0.07901  -0.000435  1.034985  0.0  0.09251  -0.000911  0.111473  0.074279  -0.000684  1.039169  0.0
H  H15  1  0.62428286  0.10820123  0.45850957  1  0.071225  3.1e-05  0.966323  0.0  0.076682  -0.000428  1.037523  0.0  0.079315  -0.000245  1.035231  0.0  0.097615  -0.001341  0.111562  0.074572  -0.000607  1.039366  -0.001
H  H16  1  0.94207046  0.35183506  0.61083598  1  0.122988  -0.000165  0.964952  0.0  0.129661  -0.00012  1.02779  0.0  0.1335  -6.8e-05  1.025408  0.0  0.136116  -0.000322  0.112186  0.126723  -0.000191  1.029892  0.0
H  H17  1  0.64798968  0.44197245  0.11072508  1  0.123779  -0.00013  0.964481  0.0  0.130223  -0.000221  1.027397  0.0  0.133939  -6.8e-05  1.025142  0.0  0.137906  -0.000945  0.112474  0.127365  -0.000391  1.029452  0.0
H  H18  1  0.85205499  0.05786768  0.11089207  1  0.124052  0.000649  0.964393  0.0  0.130486  0.000565  1.0273  0.0  0.134215  0.000566  1.025035  0.0  0.135197  0.000484  0.112532  0.127608  0.000551  1.029349  0.0
H  H19  1  0.44217198  0.85183416  0.38927620  1  0.123156  0.00037  0.964788  0.0  0.129765  0.000105  1.027656  0.0  0.133573  0.000148  1.025282  0.0  0.137686  0.000324  0.112429  0.126858  6.2e-05  1.029743  0.0
H  H20  1  0.05795484  0.64814341  0.38916402  1  0.123125  0.00017  0.964867  0.0  0.129739  0.000122  1.027735  0.0  0.133574  6.9e-05  1.025358  0.0  0.13598  0.000323  0.112209  0.126824  0.000193  1.029814  0.0
H  H21  1  0.35200359  0.55805382  0.88930361  1  0.123783  0.000136  0.964704  0.0  0.130243  0.000222  1.027627  0.0  0.133963  6.7e-05  1.025359  0.0  0.138024  0.000944  0.11243  0.127359  0.000389  1.029705  0.0
H  H22  1  0.14794965  0.94215650  0.88909582  1  0.124141  -0.000636  0.964358  0.0  0.130535  -0.000565  1.027318  0.0  0.134262  -0.000566  1.025062  0.0  0.135174  -0.000485  0.112579  0.12769  -0.000553  1.029318  0.0
H  H23  1  0.55781406  0.14819626  0.61072444  1  0.12314  -0.000375  0.964916  0.0  0.129719  -0.000104  1.027812  0.0  0.133524  -0.000146  1.025445  0.0  0.138241  -0.000325  0.112402  0.126796  -6.2e-05  1.029923  0.0
H  H24  1  0.11516264  0.16405109  0.64425854  1  0.106165  1.4e-05  0.946066  0.0  0.113443  4.8e-05  1.009061  0.0  0.116954  -5e-05  1.006421  0.0  0.139325  0.000899  0.102132  0.110045  0.000163  1.012567  0.0
H  H25  1  0.83564392  0.61489804  0.14411960  1  0.106577  -5e-05  0.945917  0.0  0.113777  -0.000639  1.008732  0.0  0.117218  -0.000438  1.006208  0.0  0.141316  -0.001243  0.102157  0.110341  -0.000873  1.012358  0.0
H  H26  1  0.66441831  0.88502239  0.14424898  1  0.106191  0.000368  0.945822  0.0  0.11328  0.000691  1.008951  0.0  0.116776  0.000628  1.006317  0.0  0.13995  0.00017  0.102072  0.109975  0.000729  1.01232  0.0
H  H27  1  0.61524091  0.66400239  0.35585682  1  0.106092  -0.000246  0.946381  0.0  0.113314  -0.000406  1.009352  0.0  0.116793  -0.000261  1.006767  0.0  0.139234  -0.001281  0.101832  0.109835  -0.000594  1.013032  0.0
H  H28  1  0.88486679  0.83593362  0.35573190  1  0.105994  -4e-06  0.945941  0.0  0.113361  -4.8e-05  1.008906  0.0  0.116881  4.9e-05  1.006237  0.0  0.139792  -0.0009  0.102064  0.109974  -0.000164  1.012408  0.0
H  H29  1  0.16430802  0.38516563  0.85589825  1  0.10673  3.3e-05  0.945872  0.0  0.11399  0.000638  1.008653  0.0  0.117436  0.000438  1.006113  0.0  0.141606  0.00124  0.102231  0.110532  0.000871  1.0123  0.0
H  H30  1  0.33558839  0.11501842  0.85575994  1  0.106186  -0.000383  0.94574  0.0  0.113264  -0.000691  1.008863  0.0  0.116759  -0.000628  1.006232  0.0  0.139856  -0.000172  0.102016  0.109945  -0.00073  1.012241  0.0
H  H31  1  0.38474203  0.33603738  0.64412470  1  0.1062  0.00025  0.946402  0.0  0.113451  0.000405  1.009296  0.0  0.116941  0.00026  1.006696  0.0  0.139138  0.001281  0.101874  0.109957  0.000592  1.012988  0.0
H  H32  1  0.21547443  0.02749528  0.52231953  1  0.107838  -0.00041  0.965151  0.0  0.114983  -0.000409  1.032743  0.0  0.118468  -0.000347  1.030908  0.0  0.11003  -0.000603  0.10617  0.1127  -0.000476  1.033544  0.0
H  H33  1  0.97195508  0.71507055  0.02197981  1  0.107887  -0.000418  0.964564  0.0  0.114954  -0.000374  1.032322  0.0  0.118408  -0.000342  1.030561  0.0  0.117379  -0.000491  0.106215  0.112629  -0.00042  1.033145  0.0
H  H34  1  0.52821979  0.78474389  0.02209326  1  0.107193  0.000312  0.965097  0.0  0.114195  0.000408  1.032983  0.0  0.117624  0.00029  1.031242  0.0  0.116035  0.001057  0.105904  0.111918  0.000549  1.033728  0.0
H  H35  1  0.71544420  0.52733645  0.47778500  1  0.108196  0.000513  0.965405  0.0  0.115221  0.000402  1.03303  0.0  0.118694  0.00042  1.031203  0.0  0.110293  6.9e-05  0.106304  0.112947  0.00039  1.033803  0.0
H  H36  1  0.78454881  0.97248942  0.47766581  1  0.107903  0.000391  0.965274  0.0  0.115035  0.000408  1.032839  0.0  0.118523  0.000348  1.031003  0.0  0.110316  0.000602  0.106224  0.112759  0.000475  1.03363  0.0
H  H37  1  0.02810123  0.28487883  0.97806098  1  0.107774  0.000415  0.964688  0.0  0.114931  0.000374  1.032366  0.0  0.118413  0.000343  1.030579  0.0  0.116885  0.000489  0.106228  0.112599  0.000419  1.033183  0.0
H  H38  1  0.47178382  0.21525432  0.97793606  1  0.107214  -0.000297  0.965098  0.0  0.114322  -0.000408  1.032903  0.0  0.117726  -0.00029  1.031185  0.0  0.115858  -0.001059  0.105971  0.11208  -0.000549  1.033566  0.0
H  H39  1  0.28453048  0.47265760  0.52217739  1  0.108229  -0.000543  0.96558  0.0  0.115253  -0.000402  1.033209  0.0  0.118735  -0.000419  1.031389  0.0  0.113101  -7.1e-05  0.106394  0.112987  -0.000391  1.033954  0.0
C  C40  1  0.95133146  0.31300481  0.47606346  1  0.138177  -0.005744  3.687041  -0.006  0.10925  -0.008071  3.939018  -0.007  0.115269  -0.006965  3.95713  -0.006  0.564087  -0.011665  0.058201  0.105198  -0.009614  3.926463  -0.008
C  C41  1  0.68686871  0.45061317  0.97596275  1  0.13927  -0.006636  3.683016  -0.006  0.110065  -0.008198  3.935035  -0.007  0.116122  -0.007425  3.953222  -0.006  0.498538  -0.011454  0.057977  0.106007  -0.009498  3.922435  -0.008
C  C42  1  0.81301168  0.04951270  0.97612337  1  0.138982  0.00596  3.684803  0.006  0.109881  0.007916  3.936909  0.007  0.115874  0.006919  3.95509  0.006  0.49771  0.011157  0.057609  0.105874  0.009289  3.924241  0.008
C  C43  1  0.45125526  0.81286052  0.52402514  1  0.138764  0.006563  3.68479  0.006  0.109585  0.008224  3.936856  0.007  0.115551  0.007337  3.955043  0.006  0.559423  0.011672  0.058568  0.105575  0.009614  3.924292  0.008
C  C44  1  0.04868661  0.68698925  0.52393336  1  0.138  0.005799  3.686808  0.006  0.109127  0.008078  3.93874  0.007  0.115131  0.006961  3.95686  0.006  0.564282  0.011664  0.058186  0.105075  0.009613  3.92618  0.008
C  C45  1  0.31314109  0.54939128  0.02405956  1  0.139379  0.006511  3.682622  0.006  0.110203  0.008213  3.93472  0.007  0.11621  0.007387  3.952895  0.006  0.496314  0.011462  0.057871  0.106137  0.009499  3.922111  0.008
C  C46  1  0.18699400  0.95046888  0.02386643  1  0.139342  -0.005819  3.685031  -0.005  0.110303  -0.007922  3.937007  -0.007  0.1163  -0.00691  3.955189  -0.006  0.498023  -0.011166  0.057792  0.106286  -0.009294  3.924349  -0.008
C  C47  1  0.54874421  0.18714392  0.47597168  1  0.138785  -0.006365  3.684714  -0.006  0.10965  -0.008231  3.936726  -0.007  0.115607  -0.007334  3.954902  -0.006  0.559529  -0.011678  0.058619  0.105644  -0.009619  3.924194  -0.008
C  C48  1  0.98921650  0.29012705  0.56066580  1  -0.090117  0.002374  3.678101  0.002  -0.104342  0.00102  3.926632  0.001  -0.108604  0.002004  3.945067  0.002  -0.062169  3.5e-05  -0.068831  -0.101999  0.000257  3.914688  0.0
C  C49  1  0.70970141  0.48886467  0.06053450  1  -0.09074  0.004632  3.675588  0.004  -0.104875  0.003415  3.924371  0.002  -0.109033  0.00414  3.942762  0.003  -0.006309  0.003275  -0.068909  -0.102574  0.003106  3.912364  0.002
C  C50  1  0.79032673  0.01108144  0.06067918  1  -0.091691  -0.002449  3.676862  -0.002  -0.105637  -0.000818  3.92527  -0.001  -0.109841  -0.001737  3.943776  -0.002  -0.003081  -0.000205  -0.069463  -0.103275  8e-06  3.913255  -0.001
C  C51  1  0.48922607  0.79003161  0.43943363  1  -0.089865  -0.004369  3.676734  -0.004  -0.104046  -0.003258  3.925416  -0.002  -0.108347  -0.003926  3.943933  -0.003  -0.061706  -0.003495  -0.068611  -0.101696  -0.003067  3.913347  -0.002
C  C52  1  0.01080983  0.70985972  0.43932783  1  -0.090281  -0.002355  3.677733  -0.002  -0.10444  -0.001029  3.926221  -0.001  -0.108701  -0.001995  3.944661  -0.002  -0.062556  -3.4e-05  -0.068807  -0.102074  -0.000255  3.91422  0.0
C  C53  1  0.29028153  0.51115744  0.93948462  1  -0.090816  -0.004583  3.675905  -0.004  -0.104948  -0.003435  3.924749  -0.002  -0.109108  -0.004109  3.94316  -0.003  -0.006113  -0.003281  -0.068833  -0.102661  -0.003111  3.9128  -0.002
C  C54  1  0.20968617  0.98892300  0.93931253  1  -0.091826  0.002264  3.677203  0.002  -0.105792  0.000825  3.925602  0.001  -0.109994  0.001725  3.944105  0.002  -0.003015  0.000204  -0.069594  -0.103485  -8e-06  3.913601  0.001
C  C55  1  0.51076411  0.20998738  0.56056191  1  -0.089865  0.004306  3.676778  0.003  -0.104067  0.003262  3.925418  0.002  -0.108358  0.003922  3.943931  0.003  -0.062447  0.003497  -0.068569  -0.101737  0.003069  3.91338  0.002
C  C56  1  0.08506415  0.18621397  0.57870473  1  -0.000684  -0.005084  3.692571  -0.004  -0.018724  -0.006421  3.944414  -0.005  -0.016949  -0.005752  3.962418  -0.004  -0.104232  -0.009855  -0.062001  -0.020397  -0.007845  3.933229  -0.006
C  C57  1  0.81358616  0.58469084  0.07856451  1  -0.000468  -0.006365  3.693823  -0.006  -0.018316  -0.007519  3.945469  -0.006  -0.01647  -0.006889  3.963368  -0.006  -0.102371  -0.011766  -0.061454  -0.020068  -0.009016  3.934388  -0.007
C  C58  1  0.68646781  0.91523997  0.07869007  1  9.2e-05  0.005452  3.692516  0.004  -0.017682  0.006949  3.943898  0.005  -0.015873  0.006228  3.961825  0.005  -0.106214  0.010358  -0.061284  -0.019345  0.008389  3.932665  0.006
C  C59  1  0.58506182  0.68608320  0.42140299  1  0.000299  0.006037  3.692367  0.005  -0.01761  0.006708  3.944206  0.005  -0.015771  0.006232  3.96214  0.005  -0.103129  0.010346  -0.061229  -0.019323  0.008008  3.933082  0.006
C  C60  1  0.91496219  0.81377800  0.42128507  1  -0.000442  0.005025  3.69195  0.004  -0.018564  0.006427  3.94379  0.005  -0.016786  0.00575  3.961801  0.004  -0.104059  0.009858  -0.061981  -0.02023  0.007847  3.932575  0.006
C  C61  1  0.18639575  0.41534997  0.92145334  1  -0.00054  0.006398  3.69433  0.006  -0.018537  0.007519  3.946059  0.006  -0.016698  0.006875  3.96398  0.006  -0.10246  0.01176  -0.061548  -0.020314  0.009011  3.93504  0.007
C  C62  1  0.31353993  0.08477175  0.92131439  1  -1.9e-05  -0.005263  3.692862  -0.004  -0.0177  -0.006953  3.944243  -0.005  -0.015891  -0.006222  3.962165  -0.005  -0.106629  -0.010365  -0.061296  -0.019392  -0.008394  3.933077  -0.006
C  C63  1  0.41492319  0.31393579  0.57858172  1  0.000353  -0.006019  3.692522  -0.005  -0.017478  -0.006711  3.944218  -0.005  -0.015654  -0.006232  3.962164  -0.005  -0.102636  -0.010351  -0.061226  -0.0192  -0.008012  3.933133  -0.006
C  C64  1  0.14077375  0.10991047  0.51144021  1  -0.104302  0.002401  3.712989  0.002  -0.129196  0.000819  3.963983  0.001  -0.13365  0.001706  3.985903  0.002  0.036239  9e-06  -0.073429  -0.125833  0.000163  3.949483  0.001
C  C65  1  0.88971272  0.64018223  0.01127449  1  -0.104879  0.004365  3.713276  0.004  -0.130011  0.003109  3.963948  0.003  -0.134464  0.003668  3.985947  0.003  0.030096  0.003938  -0.073122  -0.126588  0.002967  3.949422  0.003
C  C66  1  0.61036605  0.85973404  0.01138348  1  -0.104734  -0.002413  3.712814  -0.002  -0.129543  -0.000551  3.96345  -0.001  -0.133988  -0.001519  3.98544  -0.001  0.031602  0.000498  -0.073224  -0.126108  0.00021  3.948936  0.0
C  C67  1  0.64069909  0.60971735  0.48865604  1  -0.105112  -0.004387  3.714011  -0.004  -0.130185  -0.003334  3.965237  -0.003  -0.134642  -0.00386  3.987127  -0.004  0.038261  -0.004265  -0.073728  -0.126828  -0.003233  3.950727  -0.003
C  C68  1  0.85925259  0.89007839  0.48854896  1  -0.104427  -0.002355  3.713259  -0.002  -0.129315  -0.000817  3.964289  -0.001  -0.133776  -0.001718  3.986206  -0.002  0.035967  -1.2e-05  -0.073413  -0.125952  -0.000166  3.949791  -0.001
C  C69  1  0.11030328  0.35981287  0.98874017  1  -0.104956  -0.004337  3.712767  -0.004  -0.130036  -0.003102  3.963466  -0.003  -0.134547  -0.003683  3.985428  -0.003  0.029605  -0.003943  -0.073195  -0.126613  -0.002971  3.949007  -0.003
C  C70  1  0.38964273  0.14025689  0.98862544  1  -0.104676  0.002237  3.712801  0.002  -0.129683  0.000551  3.963588  0.001  -0.134105  0.00152  3.985584  0.001  0.030713  -0.000499  -0.073319  -0.126266  -0.00021  3.949103  0.0
C  C71  1  0.35928075  0.39027359  0.51132229  1  -0.105601  0.004394  3.714428  0.004  -0.130651  0.003331  3.965768  0.003  -0.13512  0.003865  3.987679  0.004  0.035982  0.004268  -0.073943  -0.127304  0.003233  3.951277  0.003
C  C72  1  0.09824219  0.13955138  0.42865948  1  0.088223  -0.003195  3.752214  -0.003  0.094015  -0.005521  3.989624  -0.005  0.094147  -0.004554  4.010257  -0.004  0.446428  -0.010142  0.111676  0.093099  -0.007168  3.976802  -0.006
C  C73  1  0.86009986  0.59727579  0.92853838  1  0.090678  -0.006857  3.753454  -0.007  0.097391  -0.008024  3.989739  -0.007  0.097467  -0.007423  4.010463  -0.007  0.442801  -0.01113  0.112587  0.096444  -0.00921  3.976887  -0.008
C  C74  1  0.63983219  0.90280984  0.92866075  1  0.089645  0.003206  3.753535  0.003  0.096054  0.005398  3.989962  0.005  0.096177  0.004482  4.010598  0.004  0.434833  0.009824  0.112112  0.095159  0.006942  3.977101  0.006
C  C75  1  0.59812620  0.63935099  0.57142784  1  0.088501  0.006681  3.754291  0.007  0.094549  0.007982  3.991327  0.007  0.094739  0.007326  4.011865  0.007  0.451991  0.011449  0.112323  0.093554  0.009297  3.978647  0.009
C  C76  1  0.90177382  0.86044475  0.57133160  1  0.088313  0.003186  3.752672  0.003  0.094027  0.005516  3.990039  0.005  0.094166  0.004571  4.010665  0.004  0.445967  0.010145  0.111728  0.0931  0.00717  3.977233  0.006
C  C77  1  0.13990788  0.40274216  0.07147692  1  0.091019  0.006758  3.752913  0.007  0.09754  0.008006  3.989382  0.007  0.09771  0.007433  4.010008  0.007  0.444406  0.011126  0.112561  0.09653  0.009207  3.976578  0.008
C  C78  1  0.36017658  0.09714888  0.07134435  1  0.089748  -0.003052  3.753408  -0.003  0.096088  -0.005392  3.989958  -0.005  0.096221  -0.004488  4.010574  -0.004  0.436345  -0.009826  0.112101  0.095191  -0.006945  3.977087  -0.006
C  C79  1  0.40185468  0.36062021  0.42855176  1  0.089151  -0.006604  3.754078  -0.006  0.094812  -0.007982  3.991467  -0.007  0.09499  -0.007341  4.01202  -0.007  0.450891  -0.011457  0.112311  0.093832  -0.009303  3.978764  -0.009
C  C80  1  0.15128600  0.06195738  0.35280317  1  0.611599  -0.00544  3.886766  -0.004  0.560142  -0.011793  4.172305  -0.009  0.594578  -0.008943  4.167766  -0.007  1.563774  -0.013525  0.218613  0.536522  -0.014697  4.173946  -0.011
C  C81  1  0.93738055  0.65065167  0.85287710  1  0.609825  0.003072  3.884992  0.001  0.557966  0.00411  4.170588  0.002  0.592399  0.003749  4.166202  0.002  1.556379  0.003485  0.218254  0.534314  0.004439  4.172208  0.002
C  C82  1  0.56270752  0.84940279  0.85290323  1  0.610744  0.005546  3.88728  0.004  0.559508  0.011931  4.172266  0.009  0.593888  0.009084  4.167712  0.007  1.558368  0.01344  0.218358  0.53585  0.014686  4.174015  0.011
C  C83  1  0.65143453  0.56202506  0.64727778  1  0.612167  -0.002865  3.881995  -0.001  0.560549  -0.003554  4.167389  -0.001  0.594953  -0.003478  4.163019  -0.001  1.561999  -0.002263  0.219415  0.536916  -0.003549  4.168874  -0.001
C  C84  1  0.84871244  0.93803668  0.64718727  1  0.611435  0.005436  3.887395  0.004  0.560179  0.011794  4.172635  0.009  0.594614  0.008942  4.168089  0.007  1.5628  0.013527  0.218517  0.536567  0.014691  4.174275  0.011
C  C85  1  0.06259619  0.34934238  0.14712545  1  0.609353  -0.003046  3.885894  -0.001  0.557717  -0.004119  4.171215  -0.002  0.592107  -0.003752  4.166863  -0.002  1.556233  -0.003496  0.218207  0.534091  -0.004451  4.172818  -0.002
C  C86  1  0.43732192  0.15056009  0.14709549  1  0.610499  -0.005557  3.888122  -0.004  0.559365  -0.01194  4.172978  -0.009  0.593743  -0.009089  4.168442  -0.007  1.558536  -0.013443  0.218327  0.535706  -0.014695  4.174728  -0.011
C  C87  1  0.34853188  0.43796276  0.35271266  1  0.61124  0.002901  3.882926  0.001  0.560098  0.003554  4.167917  0.001  0.594517  0.003482  4.163552  0.001  1.562373  0.002271  0.219293  0.536438  0.003556  4.169413  0.001
N  N88  1  0.00396974  0.23932386  0.41115403  1  -0.337992  -0.027143  3.269943  -0.014  -0.27309  -0.030802  3.536784  -0.012  -0.292428  -0.026323  3.554551  -0.009  -1.270516  -0.054105  -0.316249  -0.259095  -0.035208  3.524674  -0.016
N  N89  1  0.76062604  0.50278375  0.91100361  1  -0.338399  -0.025347  3.268846  -0.011  -0.274067  -0.027935  3.536733  -0.009  -0.293644  -0.024095  3.554512  -0.006  -1.263335  -0.047723  -0.316595  -0.259727  -0.031265  3.524711  -0.011
N  N90  1  0.73914379  0.99752112  0.91116614  1  -0.338438  0.026955  3.267204  0.014  -0.274187  0.030562  3.534795  0.012  -0.293633  0.026114  3.552604  0.009  -1.25505  0.053025  -0.315601  -0.259979  0.034785  3.522625  0.016
N  N91  1  0.50384135  0.73909229  0.58891800  1  -0.338444  0.025191  3.27235  0.011  -0.273521  0.027988  3.539621  0.009  -0.292841  0.023959  3.557238  0.006  -1.279578  0.049939  -0.317284  -0.259601  0.031793  3.527786  0.012
N  N92  1  0.99604937  0.76067435  0.58883960  1  -0.337941  0.027148  3.270162  0.014  -0.27305  0.030798  3.537011  0.012  -0.292385  0.026312  3.554783  0.009  -1.270278  0.054095  -0.316224  -0.259064  0.035204  3.524917  0.016
N  N93  1  0.23935690  0.49723835  0.08901233  1  -0.338503  0.025448  3.269307  0.011  -0.27419  0.027941  3.53732  0.009  -0.293798  0.024115  3.55509  0.006  -1.262156  0.047715  -0.316522  -0.25978  0.031259  3.525254  0.011
N  N94  1  0.26086188  0.00244280  0.08882749  1  -0.338751  -0.027111  3.2678  -0.014  -0.274484  -0.030573  3.535386  -0.012  -0.293925  -0.026125  3.553176  -0.009  -1.255024  -0.053021  -0.315708  -0.260256  -0.034798  3.523186  -0.016
N  N95  1  0.49614882  0.26088514  0.41107117  1  -0.338509  -0.025324  3.272165  -0.011  -0.273451  -0.027981  3.539439  -0.009  -0.292763  -0.023958  3.557051  -0.006  -1.279671  -0.049926  -0.317227  -0.25953  -0.031786  3.527588  -0.012
Cl  Cl96  1  0.43186534  0.74043266  0.20942356  1  -0.538275  -0.004625  1.015378  -0.004  -0.475856  -0.004602  1.320071  -0.004  -0.501632  -0.003606  1.291001  -0.003  -0.697652  -0.008751  -0.218809  -0.453473  -0.005886  1.341519  -0.005
Cl  Cl97  1  0.25842652  0.93048488  0.70961477  1  -0.548231  0.089829  0.997724  0.052  -0.486297  0.117316  1.299405  0.06  -0.511469  0.101882  1.270557  0.049  -0.699558  0.169049  -0.225141  -0.464516  0.131255  1.320062  0.07
Cl  Cl98  1  0.24167241  0.56910097  0.70939743  1  -0.547421  0.090727  0.999361  0.052  -0.48507  0.118616  1.301061  0.06  -0.510513  0.103067  1.272432  0.049  -0.69848  0.17053  -0.224267  -0.463262  0.133063  1.322145  0.07
Cl  Cl99  1  0.93140528  0.24122427  0.79084541  1  -0.538459  -0.00394  1.014984  -0.003  -0.475941  -0.00346  1.31928  -0.002  -0.501684  -0.003064  1.290193  -0.002  -0.695737  -0.004528  -0.218859  -0.453435  -0.003873  1.340552  -0.003
Cl  Cl100  1  0.56813516  0.25960607  0.79059492  1  -0.538338  0.004598  1.015473  0.004  -0.475907  0.004572  1.320182  0.004  -0.501678  0.003578  1.291103  0.003  -0.697579  0.008734  -0.218746  -0.453456  0.00584  1.341608  0.005
Cl  Cl101  1  0.74160602  0.06952995  0.29038714  1  -0.548151  -0.089832  0.99779  -0.052  -0.486256  -0.117315  1.299571  -0.06  -0.511445  -0.101885  1.270714  -0.049  -0.699675  -0.169092  -0.225113  -0.464444  -0.13126  1.320152  -0.07
Cl  Cl102  1  0.75828883  0.43088789  0.29061213  1  -0.547435  -0.090727  0.999499  -0.052  -0.484999  -0.118608  1.301091  -0.06  -0.51046  -0.103065  1.272445  -0.049  -0.69857  -0.170531  -0.224283  -0.463204  -0.133061  1.322185  -0.07
Cl  Cl103  1  0.06854563  0.75881654  0.20914184  1  -0.538468  0.003934  1.014888  0.003  -0.476004  0.00345  1.319239  0.002  -0.501747  0.003055  1.29015  0.002  -0.69573  0.004492  -0.218936  -0.453583  0.003837  1.34054  0.003
O  O104  1  0.24500567  0.97120828  0.36074866  1  -0.58073  -0.02964  1.981086  -0.022  -0.518772  -0.036641  2.222739  -0.027  -0.548762  -0.031533  2.214427  -0.022  -1.180971  -0.061709  -0.291435  -0.495917  -0.041922  2.227041  -0.032
O  O105  1  0.02742135  0.74496915  0.86100361  1  -0.578303  0.0215  1.980844  0.013  -0.51634  0.023345  2.222243  0.012  -0.546345  0.021479  2.214077  0.011  -1.170427  0.039532  -0.29015  -0.493635  0.025005  2.226531  0.014
O  O106  1  0.47283773  0.75483802  0.86093350  1  -0.579677  0.029349  1.978786  0.022  -0.518332  0.03615  2.220142  0.026  -0.548144  0.031271  2.211936  0.022  -1.170438  0.060837  -0.291189  -0.495758  0.041265  2.224489  0.031
O  O107  1  0.74541974  0.47162167  0.63940559  1  -0.579054  -0.021866  1.982507  -0.013  -0.51681  -0.023445  2.224057  -0.012  -0.547191  -0.021763  2.216092  -0.011  -1.179539  -0.038481  -0.290621  -0.493487  -0.024838  2.228001  -0.013
O  O108  1  0.75494421  0.02872759  0.63924624  1  -0.580646  0.029625  1.981409  0.022  -0.518769  0.036638  2.222973  0.027  -0.548755  0.031526  2.214662  0.022  -1.180633  0.061687  -0.291499  -0.495912  0.04192  2.227274  0.032
O  O109  1  0.97261842  0.25501140  0.13899193  1  -0.577954  -0.021512  1.982023  -0.013  -0.516061  -0.023351  2.223355  -0.012  -0.546051  -0.021488  2.215202  -0.011  -1.170717  -0.039538  -0.290058  -0.493401  -0.025016  2.227649  -0.014
O  O110  1  0.52717207  0.24511551  0.13906523  1  -0.57959  -0.029346  1.979454  -0.022  -0.518187  -0.036138  2.220687  -0.026  -0.547997  -0.031269  2.212479  -0.022  -1.17067  -0.060847  -0.291206  -0.495657  -0.041256  2.225061  -0.031
O  O111  1  0.25458594  0.52838589  0.36059250  1  -0.57862  0.021847  1.98309  0.013  -0.516448  0.023445  2.224483  0.012  -0.546787  0.021762  2.216425  0.011  -1.179813  0.0385  -0.290476  -0.493141  0.024822  2.228454  0.013
O  O112  1  0.09818329  0.09082628  0.27985965  1  -0.611438  -0.049574  2.080031  -0.035  -0.537494  -0.062114  2.345861  -0.044  -0.571576  -0.055687  2.333843  -0.038  -1.187072  -0.095339  -0.289672  -0.511916  -0.068022  2.353328  -0.049
O  O113  1  0.90895695  0.59742230  0.77970094  1  -0.610884  -0.011441  2.076783  -0.01  -0.535903  -0.008619  2.342492  -0.006  -0.570657  -0.008274  2.330602  -0.006  -1.183625  -0.013482  -0.288395  -0.509632  -0.008923  2.350114  -0.007
O  O114  1  0.59125304  0.90277348  0.77989152  1  -0.611901  0.04988  2.078861  0.035  -0.537613  0.062593  2.344416  0.044  -0.571755  0.056079  2.332408  0.038  -1.185689  0.096123  -0.289608  -0.511946  0.068674  2.352031  0.05
O  O115  1  0.59833595  0.59081499  0.72035005  1  -0.611192  0.012681  2.076699  0.011  -0.536363  0.010585  2.342103  0.008  -0.570995  0.009799  2.330339  0.007  -1.183614  0.01859  -0.288695  -0.510286  0.011206  2.349735  0.008
O  O116  1  0.90186268  0.90921557  0.72012633  1  -0.611374  0.049573  2.080028  0.035  -0.537521  0.062096  2.345748  0.044  -0.571594  0.055678  2.333724  0.038  -1.186153  0.095294  -0.289567  -0.511931  0.068006  2.353168  0.049
O  O117  1  0.09097846  0.40261436  0.22030989  1  -0.610791  0.011397  2.076543  0.01  -0.535906  0.00859  2.342268  0.006  -0.570692  0.008245  2.330418  0.006  -1.183392  0.013381  -0.288395  -0.509599  0.008872  2.349858  0.007
O  O118  1  0.40878776  0.09716758  0.22011167  1  -0.611831  -0.049876  2.07903  -0.035  -0.537648  -0.062618  2.344576  -0.044  -0.571803  -0.056098  2.332578  -0.038  -1.185884  -0.096164  -0.289573  -0.511971  -0.068705  2.352187  -0.05
O  O119  1  0.40161186  0.40916140  0.27962892  1  -0.610861  -0.012696  2.076486  -0.011  -0.536489  -0.010596  2.342  -0.008  -0.57116  -0.009811  2.330256  -0.007  -1.183524  -0.018551  -0.288782  -0.510373  -0.011226  2.349606  -0.008
