# generated using pymatgen
data_MgH10(CO2)4
_symmetry_space_group_name_H-M   'P 1'
_cell_length_a   5.30462162
_cell_length_b   6.91181378
_cell_length_c   12.55148619
_cell_angle_alpha   89.68080197
_cell_angle_beta   89.14292829
_cell_angle_gamma   67.45437954
_symmetry_Int_Tables_number   1
_chemical_formula_structural   MgH10(CO2)4
_chemical_formula_sum   'Mg2 H20 C8 O16'
_cell_volume   424.97652881
_cell_formula_units_Z   2
loop_
 _symmetry_equiv_pos_site_id
 _symmetry_equiv_pos_as_xyz
  1  'x, y, z'
loop_
 _atom_site_type_symbol
 _atom_site_label
 _atom_site_symmetry_multiplicity
 _atom_site_fract_x
 _atom_site_fract_y
 _atom_site_fract_z
 _atom_site_occupancy
 _atom_site_hle17_bader_spin_density
 _atom_site_hle17_ddec_charge
 _atom_site_hle17_ddec_spin_density
 _atom_site_hle17_ddec_sum_bond_order
 _atom_site_hle17_magmom
 _atom_site_hse06_10hf_bader_spin_density
 _atom_site_hse06_10hf_ddec_charge
 _atom_site_hse06_10hf_ddec_spin_density
 _atom_site_hse06_10hf_ddec_sum_bond_order
 _atom_site_hse06_10hf_magmom
 _atom_site_hse06_bader_spin_density
 _atom_site_hse06_ddec_charge
 _atom_site_hse06_ddec_spin_density
 _atom_site_hse06_ddec_sum_bond_order
 _atom_site_hse06_magmom
 _atom_site_pbe_bader_spin_density
 _atom_site_pbe_cm5_charge
 _atom_site_pbe_ddec_charge
 _atom_site_pbe_ddec_spin_density
 _atom_site_pbe_ddec_sum_bond_order
 _atom_site_pbe_magmom
Mg  Mg0  1  0.46762003  0.06474115  0.25005973  1  0  1.531753  0  1.075316  0  0  1.425216  0  1.329392  0  0  1.4483  0  1.29218  0  0  0.796429  1.408853  0  1.355496  0
Mg  Mg1  1  0.53237617  0.93525307  0.74994786  1  0  1.531776  0  1.075215  0  0  1.425288  0  1.329196  0  0  1.448371  0  1.291988  0  0  0.796418  1.408924  0  1.355299  0
H  H2  1  0.21328235  0.61457535  0.45282665  1  0  0.120035  0  0.981582  0  0  0.123958  0  1.049946  0  0  0.12863  0  1.046643  0  0  0.107271  0.12063  0  1.052453  0
H  H3  1  0.82805355  0.38565011  0.95237231  1  0  0.118942  0  0.982125  0  0  0.123443  0  1.049847  0  0  0.128123  0  1.046519  0  0  0.107073  0.12012  0  1.052367  0
H  H4  1  0.78665556  0.38540789  0.54716232  1  0  0.120092  0  0.981526  0  0  0.124151  0  1.049774  0  0  0.128825  0  1.04648  0  0  0.107388  0.120824  0  1.052279  0
H  H5  1  0.17197562  0.61436448  0.04763200  1  0  0.118821  0  0.982191  0  0  0.123298  0  1.049985  0  0  0.127968  0  1.046673  0  0  0.106995  0.119977  0  1.052503  0
H  H6  1  0.90979736  0.11319593  0.34905236  1  0  0.444857  0  0.839184  0  0  0.415302  0  0.899167  0  0  0.425138  0  0.884682  0  0  0.307865  0.408324  0  0.909456  0
H  H7  1  0.02271118  0.88692778  0.84900973  1  0  0.444208  0  0.840009  0  0  0.414699  0  0.899885  0  0  0.42453  0  0.885413  0  0  0.307548  0.407748  0  0.910122  0
H  H8  1  0.09019183  0.88679673  0.65095220  1  0  0.444916  0  0.839139  0  0  0.415368  0  0.899107  0  0  0.425207  0  0.884619  0  0  0.307851  0.408389  0  0.909397  0
H  H9  1  0.97730287  0.11308211  0.15098856  1  0  0.444102  0  0.840163  0  0  0.414604  0  0.900015  0  0  0.424437  0  0.88554  0  0  0.307509  0.407654  0  0.910247  0
H  H10  1  0.80647934  0.93956974  0.40030657  1  0  0.432088  0  0.869663  0  0  0.394764  0  0.942426  0  0  0.406842  0  0.92467  0  0  0.296934  0.386247  0  0.954927  0
H  H11  1  0.74586953  0.06035021  0.90038016  1  0  0.431007  0  0.871132  0  0  0.394374  0  0.942944  0  0  0.40649  0  0.925132  0  0  0.296722  0.385845  0  0.955458  0
H  H12  1  0.19351539  0.06041509  0.59969476  1  0  0.432147  0  0.869592  0  0  0.394802  0  0.942381  0  0  0.406884  0  0.924617  0  0  0.296956  0.386283  0  0.954884  0
H  H13  1  0.25414894  0.93965811  0.09961646  1  0  0.431013  0  0.871118  0  0  0.394396  0  0.942915  0  0  0.40651  0  0.9251  0  0  0.296702  0.385866  0  0.955431  0
H  H14  1  0.04311205  0.43074669  0.31640700  1  0  0.439056  0  0.808528  0  0  0.419933  0  0.861197  0  0  0.427497  0  0.852996  0  0  0.331195  0.414594  0  0.867074  0
H  H15  1  0.47394304  0.56951669  0.81633168  1  0  0.439448  0  0.807114  0  0  0.420154  0  0.860347  0  0  0.427762  0  0.852007  0  0  0.331114  0.414792  0  0.866287  0
H  H16  1  0.95690420  0.56926947  0.68358719  1  0  0.439065  0  0.808653  0  0  0.419928  0  0.86133  0  0  0.427491  0  0.853129  0  0  0.331205  0.414587  0  0.867206  0
H  H17  1  0.52607473  0.43047910  0.18367226  1  0  0.439395  0  0.807142  0  0  0.420094  0  0.860387  0  0  0.427701  0  0.852049  0  0  0.331079  0.414734  0  0.866325  0
H  H18  1  0.18020246  0.29238785  0.41798423  1  0  0.436745  0  0.871087  0  0  0.397589  0  0.948016  0  0  0.408952  0  0.931866  0  0  0.295881  0.389626  0  0.959304  0
H  H19  1  0.47239256  0.70789144  0.91797362  1  0  0.43639  0  0.871577  0  0  0.396775  0  0.949043  0  0  0.408149  0  0.93289  0  0  0.295725  0.388829  0  0.960297  0
H  H20  1  0.81977537  0.70761107  0.58201172  1  0  0.436681  0  0.871188  0  0  0.397519  0  0.948124  0  0  0.408878  0  0.931981  0  0  0.295836  0.38956  0  0.959405  0
H  H21  1  0.52763294  0.29210748  0.08202853  1  0  0.4363  0  0.871701  0  0  0.396703  0  0.949147  0  0  0.408086  0  0.932981  0  0  0.295696  0.388756  0  0.960402  0
C  C22  1  0.53882445  0.72973873  0.42271698  1  0  0.715437  0  3.865968  0  0  0.664895  0  4.161127  0  0  0.699605  0  4.150623  0  0  0.218224  0.641403  0  4.167582  0
C  C23  1  0.26863654  0.27057225  0.92263746  1  0  0.714958  0  3.868666  0  0  0.665047  0  4.162834  0  0  0.699757  0  4.152343  0  0  0.218661  0.641554  0  4.16928  0
C  C24  1  0.46115800  0.27029778  0.57726495  1  0  0.715735  0  3.867578  0  0  0.665123  0  4.162784  0  0  0.699839  0  4.152243  0  0  0.218157  0.641617  0  4.169275  0
C  C25  1  0.73139341  0.72943765  0.07737087  1  0  0.714994  0  3.868923  0  0  0.66509  0  4.163139  0  0  0.699748  0  4.152715  0  0  0.218807  0.641598  0  4.169584  0
C  C26  1  0.42588672  0.58296651  0.47067112  1  0  -0.169057  0  3.661896  0  0  -0.191388  0  3.924979  0  0  -0.196059  0  3.936741  0  0  -0.089083  -0.188438  0  3.917303  0
C  C27  1  0.00894772  0.41716224  0.97047920  1  0  -0.167688  0  3.661608  0  0  -0.190697  0  3.924456  0  0  -0.195352  0  3.936168  0  0  -0.088732  -0.187755  0  3.916808  0
C  C28  1  0.57407506  0.41695408  0.52934271  1  0  -0.168858  0  3.663049  0  0  -0.191479  0  3.926165  0  0  -0.196184  0  3.937936  0  0  -0.089044  -0.188513  0  3.918492  0
C  C29  1  0.99107471  0.58284609  0.02951973  1  0  -0.16757  0  3.661577  0  0  -0.190565  0  3.924433  0  0  -0.195215  0  3.936176  0  0  -0.088711  -0.187625  0  3.916783  0
O  O30  1  0.40842802  0.83998772  0.34518710  1  0  -0.709962  0  1.956307  0  0  -0.651652  0  2.18881  0  0  -0.674642  0  2.175177  0  0  -0.353203  -0.635742  0  2.197788  0
O  O31  1  0.24866489  0.16055284  0.84492989  1  0  -0.710439  0  1.955292  0  0  -0.652561  0  2.187709  0  0  -0.675539  0  2.174064  0  0  -0.353808  -0.636647  0  2.196689  0
O  O32  1  0.59146232  0.16005661  0.65477750  1  0  -0.710217  0  1.956723  0  0  -0.651878  0  2.189239  0  0  -0.674867  0  2.175594  0  0  -0.353369  -0.635966  0  2.198227  0
O  O33  1  0.75134989  0.83943512  0.15508216  1  0  -0.710341  0  1.955551  0  0  -0.65244  0  2.187982  0  0  -0.675408  0  2.174368  0  0  -0.353814  -0.636528  0  2.196962  0
O  O34  1  0.76126109  0.73581536  0.45903768  1  0  -0.658904  0  2.011652  0  0  -0.586627  0  2.226665  0  0  -0.613527  0  2.214953  0  0  -0.309327  -0.567929  0  2.234293  0
O  O35  1  0.49716694  0.26401488  0.95909920  1  0  -0.657493  0  2.013343  0  0  -0.585549  0  2.228078  0  0  -0.612549  0  2.216403  0  0  -0.309028  -0.566828  0  2.235666  0
O  O36  1  0.23876374  0.26414910  0.54097680  1  0  -0.659145  0  2.011935  0  0  -0.586711  0  2.226809  0  0  -0.61362  0  2.215088  0  0  -0.309336  -0.568  0  2.234445  0
O  O37  1  0.50285769  0.73599658  0.04089965  1  0  -0.657596  0  2.01338  0  0  -0.58572  0  2.228223  0  0  -0.612653  0  2.216535  0  0  -0.3091  -0.566998  0  2.235809  0
O  O38  1  0.75318820  0.07242817  0.35825799  1  0  -0.922142  0  1.874175  0  0  -0.864638  0  2.064781  0  0  -0.882939  0  2.031425  0  0  -0.619289  -0.851675  0  2.088088  0
O  O39  1  0.82540973  0.92758974  0.85822536  1  0  -0.920738  0  1.875425  0  0  -0.863781  0  2.065065  0  0  -0.882085  0  2.031634  0  0  -0.618991  -0.850824  0  2.088351  0
O  O40  1  0.24680363  0.92756762  0.64175206  1  0  -0.922244  0  1.874045  0  0  -0.864821  0  2.064785  0  0  -0.883125  0  2.031413  0  0  -0.619337  -0.851856  0  2.088099  0
O  O41  1  0.17461257  0.07241859  0.14177198  1  0  -0.920633  0  1.875545  0  0  -0.863671  0  2.065136  0  0  -0.88198  0  2.031714  0  0  -0.61895  -0.850718  0  2.088434  0
O  O42  1  0.14126526  0.28660328  0.33878135  1  0  -0.894064  0  1.851607  0  0  -0.834688  0  2.04128  0  0  -0.853582  0  2.013752  0  0  -0.584591  -0.821422  0  2.060387  0
O  O43  1  0.42751153  0.71369754  0.83877520  1  0  -0.894505  0  1.850269  0  0  -0.834614  0  2.04042  0  0  -0.853539  0  2.012908  0  0  -0.584544  -0.821358  0  2.059486  0
O  O44  1  0.85873069  0.71340034  0.66121100  1  0  -0.894  0  1.851655  0  0  -0.834565  0  2.04132  0  0  -0.853462  0  2.013799  0  0  -0.584536  -0.8213  0  2.060419  0
O  O45  1  0.57250856  0.28630139  0.16123026  1  0  -0.894363  0  1.850337  0  0  -0.834468  0  2.040418  0  0  -0.853393  0  2.012901  0  0  -0.584448  -0.821212  0  2.059482  0
