# generated using pymatgen
data_Zn2H24C17N12
_symmetry_space_group_name_H-M   'P 1'
_cell_length_a   10.82580794
_cell_length_b   12.26126717
_cell_length_c   16.90348658
_cell_angle_alpha   90.00000473
_cell_angle_beta   95.93758882
_cell_angle_gamma   89.99976285
_symmetry_Int_Tables_number   1
_chemical_formula_structural   Zn2H24C17N12
_chemical_formula_sum   'Zn8 H96 C68 N48'
_cell_volume   2231.69981311
_cell_formula_units_Z   4
loop_
 _symmetry_equiv_pos_site_id
 _symmetry_equiv_pos_as_xyz
  1  'x, y, z'
loop_
 _atom_site_type_symbol
 _atom_site_label
 _atom_site_symmetry_multiplicity
 _atom_site_fract_x
 _atom_site_fract_y
 _atom_site_fract_z
 _atom_site_occupancy
 _atom_site_pbe_bader_charge
 _atom_site_pbe_bader_spin_density
 _atom_site_pbe_cm5_charge
 _atom_site_pbe_ddec_charge
 _atom_site_pbe_ddec_spin_density
 _atom_site_pbe_ddec_sum_bond_order
 _atom_site_pbe_magmom
Zn  Zn0  1  0.73094444  0.73629454  0.59952412  1  1.19311  0  0.738425  0.666689  0  2.513384  0
Zn  Zn1  1  0.76905522  0.23629559  0.90047713  1  1.193079  0  0.738444  0.666706  0  2.513406  0
Zn  Zn2  1  0.26905636  0.26370311  0.40047679  1  1.193093  0  0.738446  0.666751  0  2.513359  0
Zn  Zn3  1  0.23094371  0.76370531  0.09952188  1  1.193059  0  0.73846  0.666735  0  2.513355  0
Zn  Zn4  1  0.21016372  0.74772171  0.46047939  1  1.193957  0  0.744072  0.668783  0  2.515779  0
Zn  Zn5  1  0.28983549  0.24772101  0.03951981  1  1.193982  0  0.744101  0.668827  0  2.515792  0
Zn  Zn6  1  0.78983613  0.25228002  0.53951909  1  1.194144  0  0.744097  0.668762  0  2.515752  0
Zn  Zn7  1  0.71016437  0.75227908  0.96048044  1  1.193976  0  0.744087  0.668793  0  2.515765  0
H  H8  1  0.12621777  0.57873279  0.29832261  1  0.093863  0  0.101043  0.15213  0  1.013144  0
H  H9  1  0.37378040  0.07872773  0.20167711  1  0.093819  0  0.101082  0.152161  0  1.013272  0
H  H10  1  0.87378022  0.42126812  0.70167516  1  0.093852  0  0.10106  0.152156  0  1.013215  0
H  H11  1  0.62622692  0.92126747  0.79832775  1  0.093837  0  0.101074  0.152224  0  1.013243  0
H  H12  1  0.07024530  0.63401510  0.20450390  1  0.053459  0  0.100126  0.139913  0  1.039757  0
H  H13  1  0.42975352  0.13401148  0.29549528  1  0.05348  0  0.100146  0.13992  0  1.039821  0
H  H14  1  0.92975268  0.36598744  0.79549387  1  0.053511  0  0.100156  0.139935  0  1.039734  0
H  H15  1  0.57024915  0.86599187  0.70450930  1  0.05369  0  0.100152  0.139933  0  1.039744  0
H  H16  1  0.00681847  0.67863949  0.29181655  1  0.059683  0  0.102406  0.149206  0  0.995567  0
H  H17  1  0.49317828  0.17863562  0.20818190  1  0.059723  0  0.102404  0.149208  0  0.995588  0
H  H18  1  0.99318138  0.32136224  0.70818193  1  0.059679  0  0.102405  0.149241  0  0.995533  0
H  H19  1  0.50682440  0.82136610  0.79182267  1  0.059719  0  0.102432  0.149268  0  0.99557  0
H  H20  1  0.34634982  0.99789625  0.40461077  1  0.084178  0  0.110004  0.1296  0  0.995632  0
H  H21  1  0.15365008  0.49789606  0.09539026  1  0.084192  0  0.110008  0.129614  0  0.995635  0
H  H22  1  0.65365191  0.00209977  0.59539078  1  0.084165  0  0.10999  0.129568  0  0.995603  0
H  H23  1  0.84634886  0.50209832  0.90461112  1  0.084108  0  0.109988  0.129576  0  0.995663  0
H  H24  1  0.47795644  0.96072938  0.35667859  1  0.087273  0  0.120369  0.14911  0  0.968705  0
H  H25  1  0.02204271  0.46073049  0.14332122  1  0.087241  0  0.120351  0.149082  0  0.968727  0
H  H26  1  0.52204435  0.03926990  0.64332113  1  0.087266  0  0.120364  0.149114  0  0.968687  0
H  H27  1  0.97795717  0.53926797  0.85668081  1  0.087685  0  0.120368  0.149121  0  0.968716  0
H  H28  1  0.49428100  0.66722299  0.66650448  1  0.053008  0  0.096528  0.135384  0  1.033116  0
H  H29  1  0.00571783  0.16722337  0.83349543  1  0.053007  0  0.096535  0.135395  0  1.033103  0
H  H30  1  0.50571515  0.33277547  0.33349554  1  0.052974  0  0.096537  0.135367  0  1.033178  0
H  H31  1  0.99427924  0.83277917  0.16650465  1  0.053003  0  0.09653  0.135405  0  1.033097  0
H  H32  1  0.35434999  0.63334013  0.60608329  1  0.064646  0  0.101423  0.148303  0  1.017181  0
H  H33  1  0.14564715  0.13333837  0.89391769  1  0.06457  0  0.101431  0.148292  0  1.017167  0
H  H34  1  0.64564523  0.36665997  0.39391726  1  0.064606  0  0.101384  0.148289  0  1.017232  0
H  H35  1  0.85434991  0.86666172  0.10608061  1  0.064539  0  0.101455  0.148346  0  1.017196  0
H  H36  1  0.35926324  0.74995939  0.66751121  1  0.059784  0  0.105849  0.15667  0  0.99552  0
H  H37  1  0.14073613  0.24995683  0.83248873  1  0.05983  0  0.105835  0.156647  0  0.995533  0
H  H38  1  0.64073290  0.25004070  0.33248880  1  0.059838  0  0.105818  0.156616  0  0.995588  0
H  H39  1  0.85926280  0.75004408  0.16751087  1  0.059893  0  0.105804  0.156605  0  0.995458  0
H  H40  1  0.87340019  0.00920467  0.64590046  1  0.057404  0  0.092929  0.136951  0  1.024783  0
H  H41  1  0.62659406  0.50920892  0.85410339  1  0.057063  0  0.092944  0.136911  0  1.024851  0
H  H42  1  0.12660341  0.99079135  0.35410299  1  0.057228  0  0.092913  0.136921  0  1.024752  0
H  H43  1  0.37339837  0.49078955  0.14589521  1  0.05694  0  0.092918  0.136925  0  1.024732  0
H  H44  1  0.02934394  0.99099788  0.68813350  1  0.071938  0  0.104116  0.155133  0  0.995212  0
H  H45  1  0.47065154  0.49099983  0.81187035  1  0.07188  0  0.104106  0.155115  0  0.995213  0
H  H46  1  0.97065782  0.00899487  0.31187160  1  0.071919  0  0.104102  0.155051  0  0.99526  0
H  H47  1  0.52934366  0.50899537  0.18812606  1  0.071899  0  0.104097  0.155064  0  0.995247  0
H  H48  1  0.91044157  0.90100395  0.71439759  1  0.034562  0  0.094255  0.135106  0  1.020319  0
H  H49  1  0.58955731  0.40100891  0.78560479  1  0.034486  0  0.094206  0.135018  0  1.02028  0
H  H50  1  0.08955831  0.09898962  0.28560562  1  0.034527  0  0.094203  0.13504  0  1.020293  0
H  H51  1  0.41043974  0.59899037  0.21439173  1  0.034156  0  0.09424  0.135067  0  1.020295  0
H  H52  1  0.82969643  0.70094808  0.40812475  1  0.072396  0  0.112138  0.133303  0  0.98759  0
H  H53  1  0.67030879  0.20094702  0.09187435  1  0.072407  0  0.112152  0.133337  0  0.98752  0
H  H54  1  0.17030899  0.29905364  0.59187349  1  0.072425  0  0.112118  0.133319  0  0.987556  0
H  H55  1  0.32969477  0.79905634  0.90812437  1  0.072407  0  0.112155  0.133346  0  0.987535  0
H  H56  1  0.97055904  0.62602001  0.42359017  1  0.086825  0  0.115478  0.136896  0  0.994703  0
H  H57  1  0.52944562  0.12602109  0.07641185  1  0.086862  0  0.115458  0.136861  0  0.994727  0
H  H58  1  0.02944639  0.37398090  0.57640985  1  0.086879  0  0.115466  0.136872  0  0.994792  0
H  H59  1  0.47055796  0.87398227  0.92358983  1  0.086816  0  0.115488  0.136884  0  0.994729  0
H  H60  1  0.63409702  0.50410094  0.67632061  1  0.08079  0  0.098959  0.143883  0  1.020304  0
H  H61  1  0.86590651  0.00410245  0.82367851  1  0.080946  0  0.098943  0.143881  0  1.020304  0
H  H62  1  0.36590467  0.49589589  0.32367562  1  0.080892  0  0.09894  0.143861  0  1.020238  0
H  H63  1  0.13409335  0.99589765  0.17632056  1  0.080948  0  0.09894  0.143884  0  1.020313  0
H  H64  1  0.60884024  0.37487943  0.62887439  1  0.043759  0  0.100465  0.147291  0  1.014344  0
H  H65  1  0.89116153  0.87488108  0.87112463  1  0.043772  0  0.100455  0.147269  0  1.014354  0
H  H66  1  0.39116237  0.62511659  0.37112072  1  0.043769  0  0.100484  0.147218  0  1.014428  0
H  H67  1  0.10883554  0.12511901  0.12887426  1  0.043793  0  0.100445  0.147267  0  1.014317  0
H  H68  1  0.52236819  0.49040435  0.59223810  1  0.063801  0  0.101435  0.153042  0  0.982041  0
H  H69  1  0.97763582  0.99040243  0.90776107  1  0.063751  0  0.101435  0.153048  0  0.981996  0
H  H70  1  0.47763350  0.50959248  0.40775813  1  0.063807  0  0.101425  0.153043  0  0.982016  0
H  H71  1  0.02236311  0.00959441  0.09223794  1  0.063721  0  0.101439  0.153051  0  0.982032  0
H  H72  1  0.67114306  0.75410600  0.20689758  1  0.042775  0  0.079888  0.107328  0  1.032197  0
H  H73  1  0.82886194  0.25410030  0.29310623  1  0.042675  0  0.079843  0.107325  0  1.032185  0
H  H74  1  0.32885027  0.24590062  0.79309811  1  0.042789  0  0.079859  0.107309  0  1.032179  0
H  H75  1  0.17114447  0.74590958  0.70690154  1  0.042749  0  0.07983  0.107311  0  1.032197  0
H  H76  1  0.55564493  0.78223055  0.27018912  1  0.029508  0  0.078111  0.109894  0  1.038952  0
H  H77  1  0.94436365  0.28222279  0.22981610  1  0.029398  0  0.078169  0.109997  0  1.038886  0
H  H78  1  0.44435305  0.21777770  0.72980805  1  0.029528  0  0.078179  0.110008  0  1.038867  0
H  H79  1  0.05564182  0.71778301  0.77018983  1  0.029467  0  0.078176  0.109989  0  1.038875  0
H  H80  1  0.67865888  0.69094449  0.30170175  1  -0.012706  0  0.075903  0.096822  0  1.032384  0
H  H81  1  0.82134827  0.19093962  0.19830220  1  -0.012697  0  0.075937  0.096865  0  1.032306  0
H  H82  1  0.32133724  0.30906131  0.69829412  1  -0.012252  0  0.075898  0.096844  0  1.032338  0
H  H83  1  0.17865722  0.80906455  0.80170728  1  -0.012407  0  0.075959  0.096904  0  1.032144  0
H  H84  1  0.83119960  0.84807561  0.30498825  1  -0.006285  0  0.075059  0.052151  0  1.003259  0
H  H85  1  0.66880866  0.34807130  0.19501459  1  -0.00618  0  0.075032  0.052112  0  1.003262  0
H  H86  1  0.16879930  0.15192856  0.69500662  1  -0.0063  0  0.075089  0.052233  0  1.0032  0
H  H87  1  0.33119495  0.65193124  0.80499122  1  -0.006247  0  0.075057  0.052133  0  1.003286  0
H  H88  1  0.71563539  0.87272662  0.36891571  1  0.056275  0  0.081381  0.068384  0  1.019992  0
H  H89  1  0.78437274  0.37271862  0.13108594  1  0.056306  0  0.081348  0.068352  0  1.019916  0
H  H90  1  0.28436537  0.12727755  0.63107986  1  0.056227  0  0.081499  0.068637  0  1.019864  0
H  H91  1  0.21562900  0.62727985  0.86891739  1  0.056289  0  0.081375  0.068416  0  1.020047  0
H  H92  1  0.71768809  0.96809603  0.19998556  1  0.044402  0  0.077323  0.105672  0  1.028447  0
H  H93  1  0.78231773  0.46809295  0.30001477  1  0.044421  0  0.077283  0.105667  0  1.028443  0
H  H94  1  0.28231175  0.03191059  0.80001114  1  0.044463  0  0.077315  0.105668  0  1.02845  0
H  H95  1  0.21768306  0.53191612  0.69998554  1  0.044403  0  0.077295  0.105653  0  1.028419  0
H  H96  1  0.74729881  0.04037050  0.29198610  1  0.02261  0  0.080151  0.10454  0  1.045524  0
H  H97  1  0.75270625  0.54036530  0.20801475  1  0.022719  0  0.080134  0.10453  0  1.04539  0
H  H98  1  0.25270103  0.95963530  0.70801178  1  0.022666  0  0.080139  0.104518  0  1.045442  0
H  H99  1  0.24729360  0.45963887  0.79198373  1  0.022812  0  0.080145  0.104535  0  1.04536  0
H  H100  1  0.59715292  0.98706982  0.26099480  1  0.009959  0  0.08036  0.108908  0  1.030123  0
H  H101  1  0.90285282  0.48706711  0.23900729  1  0.009978  0  0.080343  0.108895  0  1.030112  0
H  H102  1  0.40284693  0.01293680  0.73900308  1  0.009922  0  0.080322  0.108864  0  1.030192  0
H  H103  1  0.09714704  0.51294114  0.76099355  1  0.009834  0  0.080341  0.108901  0  1.030186  0
C  C104  1  0.09271977  0.65371042  0.26749252  1  -0.059617  0  -0.234605  -0.476305  0  3.940906  0
C  C105  1  0.40727803  0.15370606  0.23250600  1  -0.059626  0  -0.234678  -0.476416  0  3.941097  0
C  C106  1  0.90728008  0.34629130  0.73250596  1  -0.05965  0  -0.234654  -0.476422  0  3.940943  0
C  C107  1  0.59272371  0.84629322  0.76749792  1  -0.059985  0  -0.234718  -0.476538  0  3.94089  0
C  C108  1  0.18720701  0.74185448  0.27659931  1  0.990865  0  0.211338  0.376087  0  4.022404  0
C  C109  1  0.31279130  0.24185128  0.22339925  1  0.991115  0  0.211304  0.376204  0  4.022411  0
C  C110  1  0.81279190  0.25814561  0.72339793  1  0.990884  0  0.211293  0.376139  0  4.022501  0
C  C111  1  0.68720950  0.75814310  0.77660284  1  0.991095  0  0.211365  0.376214  0  4.022344  0
C  C112  1  0.32066795  0.86002392  0.32646670  1  1.000863  0  0.207857  0.322063  0  4.034147  0
C  C113  1  0.17933165  0.36002120  0.17353135  1  1.000923  0  0.207953  0.322132  0  4.034239  0
C  C114  1  0.67933283  0.13997617  0.67353243  1  1.000841  0  0.207927  0.322094  0  4.034276  0
C  C115  1  0.82066727  0.63997400  0.82646766  1  1.000882  0  0.207862  0.321905  0  4.034621  0
C  C116  1  0.39983187  0.92783080  0.38542746  1  0.005656  0  -0.138404  -0.326691  0  3.945279  0
C  C117  1  0.10016650  0.42783162  0.11457288  1  0.005609  0  -0.138406  -0.326709  0  3.945299  0
C  C118  1  0.60016892  0.07216685  0.61457285  1  0.005612  0  -0.13839  -0.326682  0  3.945277  0
C  C119  1  0.89983152  0.57216358  0.88542962  1  0.005243  0  -0.138388  -0.326673  0  3.945341  0
C  C120  1  0.44945099  0.86638763  0.45817285  1  0.995395  0  0.211274  0.339158  0  4.014196  0
C  C121  1  0.05054859  0.36638863  0.04182698  1  0.9954  0  0.211343  0.339272  0  4.014198  0
C  C122  1  0.55055165  0.13360838  0.54182699  1  0.995385  0  0.21138  0.339357  0  4.014001  0
C  C123  1  0.94944850  0.63360657  0.95817547  1  0.995364  0  0.211436  0.339344  0  4.014096  0
C  C124  1  0.45373550  0.76829500  0.56382026  1  0.996684  0  0.213694  0.382214  0  4.007533  0
C  C125  1  0.04626378  0.26829524  0.93617908  1  0.996678  0  0.213676  0.382229  0  4.007479  0
C  C126  1  0.54626250  0.23170265  0.43617987  1  0.996699  0  0.21375  0.38235  0  4.007408  0
C  C127  1  0.95373609  0.73170404  0.06382176  1  0.996679  0  0.213693  0.382232  0  4.007519  0
C  C128  1  0.41413542  0.70067971  0.62961204  1  -0.034765  0  -0.232304  -0.471632  0  3.939142  0
C  C129  1  0.08586326  0.20067899  0.87038845  1  -0.034731  0  -0.232286  -0.471585  0  3.93913  0
C  C130  1  0.58586166  0.29932038  0.37038863  1  -0.0347  0  -0.232259  -0.471607  0  3.939253  0
C  C131  1  0.91413474  0.79932274  0.12961109  1  -0.034786  0  -0.232295  -0.471638  0  3.939091  0
C  C132  1  0.94412126  0.94806509  0.66569447  1  -0.043264  0  -0.231906  -0.454433  0  3.925405  0
C  C133  1  0.55587555  0.44806773  0.83430897  1  -0.042759  0  -0.23184  -0.454212  0  3.925425  0
C  C134  1  0.05588142  0.05193011  0.33431070  1  -0.043016  0  -0.231839  -0.454243  0  3.92541  0
C  C135  1  0.44411872  0.55192992  0.16568797  1  -0.042293  0  -0.231874  -0.454274  0  3.925467  0
C  C136  1  0.97006992  0.87482628  0.59943588  1  0.974601  0  0.210314  0.385082  0  4.019866  0
C  C137  1  0.52992816  0.37482821  0.90056646  1  0.974632  0  0.210285  0.385011  0  4.020154  0
C  C138  1  0.02993275  0.12516729  0.40056751  1  0.974587  0  0.210344  0.38511  0  4.02006  0
C  C139  1  0.47006610  0.62516699  0.09942989  1  0.975606  0  0.210316  0.38497  0  4.020113  0
C  C140  1  0.94898318  0.75053002  0.50914180  1  1.022467  0  0.219337  0.348781  0  3.989475  0
C  C141  1  0.55101920  0.25052862  0.99085961  1  1.022432  0  0.219309  0.348783  0  3.989426  0
C  C142  1  0.05101947  0.24947089  0.49085863  1  1.022454  0  0.219335  0.348801  0  3.989377  0
C  C143  1  0.44898159  0.74947147  0.00914011  1  1.022442  0  0.219315  0.348792  0  3.989241  0
C  C144  1  0.89631963  0.66304160  0.45386264  1  0.014001  0  -0.137088  -0.333944  0  3.967549  0
C  C145  1  0.60368391  0.16304159  0.04613753  1  0.013946  0  -0.137055  -0.333914  0  3.967536  0
C  C146  1  0.10368393  0.33695931  0.54613607  1  0.013968  0  -0.137  -0.333865  0  3.967601  0
C  C147  1  0.39631873  0.83696095  0.95386231  1  0.013903  0  -0.137096  -0.334002  0  3.967502  0
C  C148  1  0.83253288  0.57317825  0.49352277  1  0.978776  0  0.210444  0.339435  0  4.012432  0
C  C149  1  0.66746923  0.07317882  0.00647672  1  0.978519  0  0.210401  0.339417  0  4.012508  0
C  C150  1  0.16746975  0.42682102  0.50647470  1  0.97841  0  0.210371  0.339365  0  4.012644  0
C  C151  1  0.33253156  0.92682127  0.99352300  1  0.978858  0  0.210362  0.33944  0  4.012365  0
C  C152  1  0.71119125  0.48846211  0.56551126  1  0.994138  0  0.209651  0.375205  0  4.025365  0
C  C153  1  0.78881183  0.98846333  0.93448608  1  0.993805  0  0.209634  0.375164  0  4.025297  0
C  C154  1  0.28881137  0.51153635  0.43448444  1  0.993812  0  0.209687  0.375245  0  4.025226  0
C  C155  1  0.21118708  0.01153758  0.06551116  1  0.993808  0  0.209634  0.375183  0  4.025244  0
C  C156  1  0.61409556  0.46289805  0.61876112  1  -0.063912  0  -0.232719  -0.463901  0  3.934918  0
C  C157  1  0.88590673  0.96289891  0.88123911  1  -0.063828  0  -0.232688  -0.463896  0  3.934929  0
C  C158  1  0.38590614  0.53709878  0.38123569  1  -0.063873  0  -0.232722  -0.463823  0  3.934865  0
C  C159  1  0.11409127  0.03710118  0.11876043  1  -0.063797  0  -0.23269  -0.463913  0  3.934861  0
C  C160  1  0.65567679  0.76742765  0.26946899  1  -0.078119  0  -0.253586  -0.358724  0  3.954755  0
C  C161  1  0.84433093  0.26742352  0.23053441  1  -0.077688  0  -0.253686  -0.358956  0  3.954842  0
C  C162  1  0.34432026  0.23257733  0.73052694  1  -0.07828  0  -0.253656  -0.358845  0  3.954841  0
C  C163  1  0.15567455  0.73258228  0.76947152  1  -0.077754  0  -0.25372  -0.35896  0  3.954575  0
C  C164  1  0.73089812  0.86398850  0.30578122  1  -0.028033  0  -0.174792  -0.051197  0  3.98715  0
C  C165  1  0.76911007  0.36398219  0.19422221  1  -0.028457  0  -0.174647  -0.050955  0  3.986967  0
C  C166  1  0.26910079  0.13601730  0.69421543  1  -0.028406  0  -0.17485  -0.051527  0  3.987382  0
C  C167  1  0.23089446  0.63602035  0.80578248  1  -0.028561  0  -0.174653  -0.051044  0  3.987141  0
C  C168  1  0.69735680  0.97109821  0.26243367  1  -0.085681  0  -0.251336  -0.357889  0  3.938248  0
C  C169  1  0.80264994  0.47109423  0.23756730  1  -0.085778  0  -0.2513  -0.357925  0  3.937998  0
C  C170  1  0.30264397  0.02890760  0.73756309  1  -0.085636  0  -0.251328  -0.357813  0  3.93827  0
C  C171  1  0.19734992  0.52891239  0.76243295  1  -0.085857  0  -0.251345  -0.357932  0  3.938133  0
N  N172  1  0.88755217  0.79892481  0.56549183  1  -1.258541  0  -0.365504  -0.421749  0  3.43617  0
N  N173  1  0.61244811  0.29892562  0.93450945  1  -1.258474  0  -0.365476  -0.421716  0  3.436245  0
N  N174  1  0.11245048  0.20107284  0.43450978  1  -1.258457  0  -0.36552  -0.421823  0  3.436271  0
N  N175  1  0.38754895  0.70107284  0.06548825  1  -1.258421  0  -0.365497  -0.421724  0  3.436136  0
N  N176  1  0.07602264  0.87458323  0.56650158  1  -0.683305  0  -0.253597  -0.298062  0  3.129475  0
N  N177  1  0.42397709  0.37458373  0.93350076  1  -0.68334  0  -0.253607  -0.298101  0  3.129635  0
N  N178  1  0.92398097  0.12541278  0.43350246  1  -0.683401  0  -0.253624  -0.298124  0  3.12955  0
N  N179  1  0.57601903  0.62541147  0.06649630  1  -0.684425  0  -0.253615  -0.298078  0  3.129495  0
N  N180  1  0.06180895  0.79491123  0.50865771  1  -0.833414  0  -0.27368  -0.253067  0  3.586722  0
N  N181  1  0.43819115  0.29491005  0.99134405  1  -0.833433  0  -0.273681  -0.253098  0  3.586613  0
N  N182  1  0.93819278  0.20508805  0.49134384  1  -0.83337  0  -0.27367  -0.253031  0  3.586575  0
N  N183  1  0.56180778  0.70508760  0.00865555  1  -0.833412  0  -0.273656  -0.253028  0  3.58652  0
N  N184  1  0.74622688  0.59013833  0.54603572  1  -1.269222  0  -0.370646  -0.432062  0  3.444057  0
N  N185  1  0.75377346  0.09013863  0.95396379  1  -1.269251  0  -0.370633  -0.431967  0  3.443986  0
N  N186  1  0.25377483  0.40986095  0.45396228  1  -1.269198  0  -0.370642  -0.431949  0  3.443922  0
N  N187  1  0.24622454  0.90986228  0.04603516  1  -1.269165  0  -0.370634  -0.431979  0  3.443934  0
N  N188  1  0.85139382  0.46819478  0.48041018  1  -0.693878  0  -0.249098  -0.286421  0  3.179812  0
N  N189  1  0.64860828  0.96819401  0.01958932  1  -0.693846  0  -0.249053  -0.286417  0  3.179811  0
N  N190  1  0.14860881  0.53180613  0.51958729  1  -0.693744  0  -0.24903  -0.286426  0  3.179922  0
N  N191  1  0.35139158  0.03180853  0.98041034  1  -0.693777  0  -0.248965  -0.286412  0  3.179718  0
N  N192  1  0.77395057  0.41433507  0.52714489  1  -0.824395  0  -0.275278  -0.280311  0  3.569668  0
N  N193  1  0.72605193  0.91433408  0.97285299  1  -0.824031  0  -0.2753  -0.280372  0  3.569644  0
N  N194  1  0.22605205  0.58566583  0.47285140  1  -0.824032  0  -0.275351  -0.280427  0  3.569754  0
N  N195  1  0.27394607  0.08566601  0.02714596  1  -0.824408  0  -0.275349  -0.28038  0  3.56967  0
N  N196  1  0.57015343  0.80036651  0.55505623  1  -0.836586  0  -0.278674  -0.283365  0  3.581198  0
N  N197  1  0.92984592  0.30036698  0.94494441  1  -0.83666  0  -0.278665  -0.283417  0  3.58124  0
N  N198  1  0.42984737  0.19963032  0.44494467  1  -0.836658  0  -0.278675  -0.283442  0  3.581224  0
N  N199  1  0.07015209  0.69963148  0.05505632  1  -0.83664  0  -0.278649  -0.283341  0  3.581211  0
N  N200  1  0.56803769  0.86310146  0.48702654  1  -0.719823  0  -0.245622  -0.281023  0  3.156853  0
N  N201  1  0.93196027  0.36310188  0.01297387  1  -0.719798  0  -0.245694  -0.281107  0  3.156915  0
N  N202  1  0.43196217  0.13689455  0.51297371  1  -0.719776  0  -0.245762  -0.281228  0  3.156821  0
N  N203  1  0.06803682  0.63689414  0.98702798  1  -0.719746  0  -0.24578  -0.281218  0  3.156901  0
N  N204  1  0.37490485  0.80870124  0.50370749  1  -1.258838  0  -0.370927  -0.42172  0  3.452696  0
N  N205  1  0.12509331  0.30870283  0.99629179  1  -1.258804  0  -0.370944  -0.421735  0  3.45271  0
N  N206  1  0.62509500  0.19129722  0.49629158  1  -1.258833  0  -0.370955  -0.421751  0  3.452598  0
N  N207  1  0.87490377  0.69129481  0.00370947  1  -1.258841  0  -0.370969  -0.421763  0  3.452684  0
N  N208  1  0.23320866  0.78690929  0.34673770  1  -1.277301  0  -0.370378  -0.443132  0  3.478968  0
N  N209  1  0.26678853  0.28690625  0.15326257  1  -1.27738  0  -0.370355  -0.443112  0  3.479231  0
N  N210  1  0.76679120  0.21309162  0.65326197  1  -1.277529  0  -0.370372  -0.443131  0  3.479073  0
N  N211  1  0.73321134  0.71308977  0.84673828  1  -1.277408  0  -0.370374  -0.443059  0  3.479184  0
N  N212  1  0.32811079  0.86269165  0.24863622  1  -0.736693  0  -0.24895  -0.289841  0  3.17772  0
N  N213  1  0.17188789  0.36268978  0.25136414  1  -0.736627  0  -0.249  -0.289924  0  3.177812  0
N  N214  1  0.67188999  0.13730844  0.75136290  1  -0.736632  0  -0.24896  -0.289871  0  3.177939  0
N  N215  1  0.82811013  0.63730460  0.74863837  1  -0.736702  0  -0.24897  -0.289868  0  3.177998  0
N  N216  1  0.24248489  0.78689458  0.21703426  1  -0.82905  0  -0.273032  -0.273632  0  3.566765  0
N  N217  1  0.25751136  0.28689159  0.28296535  1  -0.829324  0  -0.273012  -0.273703  0  3.566918  0
N  N218  1  0.75751404  0.21310633  0.78296534  1  -0.829017  0  -0.273036  -0.273657  0  3.566855  0
N  N219  1  0.74248572  0.71310361  0.71703591  1  -0.828978  0  -0.272999  -0.273592  0  3.566767  0
