# generated using pymatgen
data_MgH4C8O7
_symmetry_space_group_name_H-M   'P 1'
_cell_length_a   8.89537565
_cell_length_b   8.89537039
_cell_length_c   10.92078827
_cell_angle_alpha   90.00035603
_cell_angle_beta   89.99935012
_cell_angle_gamma   120.00050087
_symmetry_Int_Tables_number   1
_chemical_formula_structural   MgH4C8O7
_chemical_formula_sum   'Mg3 H12 C24 O21'
_cell_volume   748.36032693
_cell_formula_units_Z   3
loop_
 _symmetry_equiv_pos_site_id
 _symmetry_equiv_pos_as_xyz
  1  'x, y, z'
loop_
 _atom_site_type_symbol
 _atom_site_label
 _atom_site_symmetry_multiplicity
 _atom_site_fract_x
 _atom_site_fract_y
 _atom_site_fract_z
 _atom_site_occupancy
 _atom_site_pbe_bader_charge
 _atom_site_pbe_bader_spin_density
 _atom_site_pbe_cm5_charge
 _atom_site_pbe_ddec_charge
 _atom_site_pbe_ddec_spin_density
 _atom_site_pbe_ddec_sum_bond_order
 _atom_site_pbe_magmom
Mg  Mg0  1  0.99998932  0.97815187  0.16666531  1  1.687751  0  0.826235  1.361445  0  1.442849  0
Mg  Mg1  1  0.97815467  0.99999359  0.83333438  1  1.68775  0  0.82623  1.361439  0  1.442859  0
Mg  Mg2  1  0.02183256  0.02183227  0.49999958  1  1.687481  0  0.826191  1.361439  0  1.442723  0
H  H3  1  0.75036689  0.64188925  0.27761640  1  0.652104  0  0.333253  0.379292  0  0.916057  0
H  H4  1  0.24963342  0.89155280  0.05570313  1  0.646479  0  0.333257  0.379297  0  0.916208  0
H  H5  1  0.89155243  0.24963419  0.94429556  1  0.646488  0  0.333255  0.379321  0  0.916201  0
H  H6  1  0.35811442  0.10849400  0.61093804  1  0.641923  0  0.333244  0.379391  0  0.916029  0
H  H7  1  0.64189663  0.75037032  0.72238268  1  0.65113  0  0.333267  0.379294  0  0.916077  0
H  H8  1  0.10849665  0.35811795  0.38905932  1  0.640899  0  0.33324  0.379374  0  0.915971  0
H  H9  1  0.48246706  0.39799162  0.18831485  1  0.107066  0  0.103281  0.128098  0  1.017499  0
H  H10  1  0.51751098  0.91551385  0.14501052  1  0.113298  0  0.103272  0.128099  0  1.017343  0
H  H11  1  0.91552010  0.51751329  0.85499122  1  0.113264  0  0.103272  0.128113  0  1.017404  0
H  H12  1  0.60198633  0.08446204  0.52164201  1  0.112963  0  0.103246  0.128082  0  1.017441  0
H  H13  1  0.39799221  0.48247388  0.81168621  1  0.107083  0  0.103262  0.128056  0  1.017474  0
H  H14  1  0.08447116  0.60199383  0.47835946  1  0.111966  0  0.103266  0.128105  0  1.017464  0
C  C15  1  0.74055048  0.74055207  0.00000028  1  0.692285  0  0.063148  0.146688  0  4.170905  0
C  C16  1  0.25943036  0.99998957  0.33332617  1  0.658486  0  0.063012  0.146551  0  4.170918  0
C  C17  1  0.99999553  0.25943492  0.66667319  1  0.658111  0  0.062957  0.146561  0  4.170876  0
C  C18  1  0.52719073  0.47976216  0.10693611  1  0.005458  0  -0.119078  -0.250945  0  4.036955  0
C  C19  1  0.47278536  0.95255407  0.22639139  1  0.005351  0  -0.119132  -0.251014  0  4.036659  0
C  C20  1  0.95256367  0.47278973  0.77361036  1  0.004758  0  -0.119163  -0.251124  0  4.036817  0
C  C21  1  0.52021139  0.04741080  0.44026355  1  0.009706  0  -0.119066  -0.250891  0  4.03697  0
C  C22  1  0.47976284  0.52719640  0.89306377  1  0.005521  0  -0.119047  -0.250856  0  4.03679  0
C  C23  1  0.04742344  0.52022104  0.55973908  1  0.010545  0  -0.119099  -0.251061  0  4.037055  0
C  C24  1  0.25912297  0.25912567  0.00000129  1  1.558431  0  0.216069  0.624824  0  4.201144  0
C  C25  1  0.74085204  0.99998558  0.33333127  1  1.549887  0  0.21597  0.624743  0  4.201051  0
C  C26  1  0.99998948  0.74085472  0.66666983  1  1.549794  0  0.215986  0.62469  0  4.201214  0
C  C27  1  0.68485388  0.63358691  0.10448265  1  0.343688  0  0.055097  0.191634  0  4.089863  0
C  C28  1  0.31512838  0.94871920  0.22884340  1  0.351207  0  0.055165  0.191826  0  4.08966  0
C  C29  1  0.94872763  0.31513152  0.77115686  1  0.351761  0  0.055112  0.191769  0  4.08965  0
C  C30  1  0.36639396  0.05125260  0.43780932  1  0.352875  0  0.055155  0.191683  0  4.090017  0
C  C31  1  0.63358527  0.68485735  0.89551658  1  0.343669  0  0.055131  0.19165  0  4.089778  0
C  C32  1  0.05126580  0.36640283  0.56219088  1  0.3528  0  0.055189  0.191832  0  4.089889  0
C  C33  1  0.42591588  0.42591994  0.00000186  1  0.030584  0  -0.043821  -0.037604  0  4.072604  0
C  C34  1  0.57406099  0.99997413  0.33332930  1  0.029548  0  -0.043823  -0.037631  0  4.072328  0
C  C35  1  0.99998731  0.57406770  0.66667215  1  0.030269  0  -0.043764  -0.037444  0  4.072347  0
C  C36  1  0.00007064  0.43330097  0.16667588  1  2.170804  0  0.40261  0.767022  0  4.054179  0
C  C37  1  0.43330783  0.00007706  0.83331422  1  2.171126  0  0.402567  0.766991  0  4.054407  0
C  C38  1  0.56672063  0.56672575  0.50000576  1  2.163437  0  0.402433  0.766661  0  4.054779  0
O  O39  1  0.80430047  0.69749033  0.19995248  1  -1.195728  0  -0.360256  -0.505441  0  2.409836  0
O  O40  1  0.19568424  0.89318180  0.13336810  1  -1.191834  0  -0.360251  -0.50544  0  2.409829  0
O  O41  1  0.89318721  0.19568688  0.86663070  1  -1.192317  0  -0.360243  -0.505465  0  2.409837  0
O  O42  1  0.30249487  0.10680294  0.53327997  1  -1.188405  0  -0.360259  -0.505532  0  2.409794  0
O  O43  1  0.69749059  0.80430331  0.80004546  1  -1.1948  0  -0.360301  -0.505477  0  2.409794  0
O  O44  1  0.10681330  0.30250089  0.46672024  1  -1.187031  0  -0.360269  -0.505563  0  2.409747  0
O  O45  1  0.17255008  0.21294478  0.09983319  1  -1.256772  0  -0.376489  -0.678776  0  2.250555  0
O  O46  1  0.82743456  0.04038753  0.23349774  1  -1.252402  0  -0.376422  -0.678724  0  2.250417  0
O  O47  1  0.04039142  0.82743949  0.76650152  1  -1.252443  0  -0.376449  -0.678715  0  2.250421  0
O  O48  1  0.78704133  0.95960091  0.43316532  1  -1.252488  0  -0.376426  -0.678723  0  2.250476  0
O  O49  1  0.21294454  0.17255199  0.90016799  1  -1.256708  0  -0.376457  -0.678762  0  2.250611  0
O  O50  1  0.95959343  0.78703653  0.56683759  1  -1.252251  0  -0.376399  -0.678659  0  2.25052  0
O  O51  1  0.89002101  0.89001946  0.99999921  1  -1.278794  0  -0.433693  -0.705417  0  2.377102  0
O  O52  1  0.10996276  0.99999416  0.33332961  1  -1.270035  0  -0.433484  -0.705378  0  2.377317  0
O  O53  1  0.99999716  0.10996559  0.66666915  1  -1.27001  0  -0.433451  -0.7054  0  2.377339  0
O  O54  1  0.90951542  0.39112485  0.08019063  1  -1.084149  0  -0.151161  -0.34239  0  2.226585  0
O  O55  1  0.09063063  0.48166987  0.25316384  1  -1.089961  0  -0.151082  -0.342391  0  2.226932  0
O  O56  1  0.48167614  0.09063653  0.74683146  1  -1.090114  0  -0.151041  -0.342383  0  2.227205  0
O  O57  1  0.60890278  0.51835655  0.41351718  1  -1.083439  0  -0.151049  -0.342194  0  2.226936  0
O  O58  1  0.39113060  0.90951849  0.91980314  1  -1.08434  0  -0.151174  -0.342384  0  2.226496  0
O  O59  1  0.51835580  0.60890706  0.58649252  1  -1.083727  0  -0.151029  -0.342188  0  2.227041  0
