# generated using pymatgen
data_ZnH9C22SNO11
_symmetry_space_group_name_H-M   'P 1'
_cell_length_a   13.74023373
_cell_length_b   14.01163320
_cell_length_c   14.98905941
_cell_angle_alpha   83.74939132
_cell_angle_beta   86.21154689
_cell_angle_gamma   82.91654457
_symmetry_Int_Tables_number   1
_chemical_formula_structural   ZnH9C22SNO11
_chemical_formula_sum   'Zn2 H18 C44 S2 N2 O22'
_cell_volume   2842.63408055
_cell_formula_units_Z   2
loop_
 _symmetry_equiv_pos_site_id
 _symmetry_equiv_pos_as_xyz
  1  'x, y, z'
loop_
 _atom_site_type_symbol
 _atom_site_label
 _atom_site_symmetry_multiplicity
 _atom_site_fract_x
 _atom_site_fract_y
 _atom_site_fract_z
 _atom_site_occupancy
 _atom_site_pbe_bader_charge
 _atom_site_pbe_bader_spin_density
 _atom_site_pbe_cm5_charge
 _atom_site_pbe_ddec_charge
 _atom_site_pbe_ddec_spin_density
 _atom_site_pbe_ddec_sum_bond_order
 _atom_site_pbe_magmom
Zn  Zn0  1  0.50390331  0.39151293  0.53111012  1  1.308223  0  0.690191  0.857075  0  2.30415  0
Zn  Zn1  1  0.52496555  0.60098718  0.48043739  1  1.323509  0  0.68987  0.873938  0  2.336375  0
H  H2  1  0.04617001  0.39853477  0.52289898  1  0.131336  0  0.124009  0.131444  0  0.954206  0
H  H3  1  0.73276382  0.93623012  0.37456831  1  0.119061  0  0.114231  0.128114  0  1.003265  0
H  H4  1  0.31117962  0.88214484  0.62950345  1  0.106736  0  0.119294  0.131082  0  0.975386  0
H  H5  1  0.71668233  0.10804862  0.40271612  1  0.098001  0  0.117235  0.120802  0  0.980619  0
H  H6  1  0.70223589  0.19555469  0.21508292  1  0.613841  0  0.34411  0.379611  0  0.85494  0
H  H7  1  0.19727255  0.62131895  0.77972929  1  0.602155  0  0.350646  0.386709  0  0.840522  0
H  H8  1  0.26206227  0.82289294  0.87845173  1  0.614518  0  0.349226  0.387533  0  0.840884  0
H  H9  1  0.86361645  0.37208111  0.15621881  1  0.622838  0  0.351225  0.394837  0  0.830306  0
H  H10  1  0.30313023  0.39048712  0.54155498  1  0.660323  0  0.298101  0.367713  0  0.986151  0
H  H11  1  0.63299594  0.79510148  0.23348092  1  0.636888  0  0.36162  0.414045  0  0.821894  0
H  H12  1  0.98224409  0.60460296  0.43358292  1  0.146977  0  0.12428  0.135312  0  0.956339  0
H  H13  1  0.38156513  0.55922649  0.24593613  1  0.073812  0  0.112435  0.122864  0  0.980893  0
H  H14  1  0.63878046  0.44334972  0.76979685  1  0.096914  0  0.116976  0.126213  0  0.974344  0
H  H15  1  0.29934947  0.63526944  0.11152646  1  0.099135  0  0.116409  0.125849  0  0.978386  0
H  H16  1  0.73315014  0.39120633  0.90331636  1  0.107243  0  0.118844  0.127621  0  0.975965  0
H  H17  1  0.62317722  0.24789311  0.47052881  1  0.172575  0  0.130095  0.121703  0  1.014895  0
H  H18  1  0.40390372  0.74232389  0.55835367  1  0.202601  0  0.132145  0.126504  0  1.003663  0
H  H19  1  0.29130916  0.05622517  0.65169592  1  0.162872  0  0.116173  0.138761  0  1.02777  0
C  C20  1  0.49901253  0.52386787  0.67073007  1  1.609783  0  0.223744  0.607413  0  4.148592  0
C  C21  1  0.67492571  0.40068313  0.03718198  1  -0.05603  0  -0.010207  -0.068908  0  3.948296  0
C  C22  1  0.56854462  0.20079435  0.49791688  1  0.495167  0  0.068376  0.075076  0  3.830556  0
C  C23  1  0.45522705  0.79089460  0.52725041  1  0.491253  0  0.069764  0.076683  0  3.814129  0
C  C24  1  0.41903514  0.18830273  0.58005170  1  0.423735  0  0.128083  0.025919  0  3.82002  0
C  C25  1  0.59691235  0.80835838  0.43629333  1  0.407384  0  0.117415  -0.001763  0  3.89749  0
C  C26  1  0.42376900  0.08788485  0.57196783  1  0.03715  0  0.013298  0.044946  0  3.960858  0
C  C27  1  0.59662849  0.90641277  0.45075065  1  0.026802  0  0.01035  0.044881  0  3.990418  0
C  C28  1  0.50648748  0.04601831  0.52033372  1  0.017539  0  0.018541  0.025016  0  3.922303  0
C  C29  1  0.51599884  0.94693760  0.50520651  1  -0.040672  0  0.019032  0.024553  0  3.919987  0
C  C30  1  0.57954429  0.10347517  0.48243231  1  0.00956  0  0.006043  0.045245  0  4.035493  0
C  C31  1  0.51222904  0.45345760  0.34439367  1  1.605875  0  0.222017  0.609292  0  4.176202  0
C  C32  1  0.44422592  0.88817666  0.54393062  1  -0.002811  0  0.011283  0.054406  0  4.016177  0
C  C33  1  0.35319592  0.02541534  0.61109139  1  -0.0224  0  -0.071941  -0.107756  0  3.934767  0
C  C34  1  0.66974025  0.96686601  0.41408815  1  0.040551  0  -0.078058  -0.112896  0  3.959143  0
C  C35  1  0.70042955  0.45917686  0.50977830  1  1.64047  0  0.224916  0.673516  0  4.223194  0
C  C36  1  0.32191753  0.55130387  0.48514325  1  1.627718  0  0.228489  0.675958  0  4.196229  0
C  C37  1  0.36388885  0.92946123  0.59822586  1  -0.028921  0  -0.067078  -0.099464  0  3.943445  0
C  C38  1  0.66130984  0.06174595  0.42999432  1  -0.043406  0  -0.065481  -0.095166  0  3.955473  0
C  C39  1  0.21921435  0.55853311  0.47036993  1  0.228213  0  -0.049495  -0.221531  0  3.957269  0
C  C40  1  0.80651776  0.44669933  0.50394264  1  0.220378  0  -0.027302  -0.159514  0  3.905572  0
C  C41  1  0.03198456  0.54326119  0.46147162  1  0.018107  0  -0.060304  -0.065709  0  4.035573  0
C  C42  1  0.51241891  0.49472125  0.05446920  1  0.022842  0  0.007084  -0.002445  0  3.91734  0
C  C43  1  0.99558375  0.45953523  0.49549481  1  0.169949  0  -0.048073  -0.025391  0  4.020912  0
C  C44  1  0.89508294  0.45003072  0.49869230  1  -0.472574  0  -0.027971  -0.007746  0  4.137148  0
C  C45  1  0.13201316  0.55284436  0.46392307  1  -0.52193  0  -0.01817  0.031492  0  4.138362  0
C  C46  1  0.58428635  0.40671470  0.18981503  1  0.055078  0  -0.001622  -0.08651  0  3.869729  0
C  C47  1  0.42430270  0.58096780  0.82226709  1  0.058412  0  0.004935  -0.07778  0  3.842153  0
C  C48  1  0.51160087  0.45695498  0.24345461  1  0.018794  0  0.004528  -0.006183  0  3.930015  0
C  C49  1  0.50023961  0.53263200  0.77016130  1  0.010992  0  0.004449  -0.013819  0  3.911735  0
C  C50  1  0.43753311  0.52091222  0.20357583  1  0.020387  0  -0.076965  -0.148365  0  3.935682  0
C  C51  1  0.58107710  0.48040517  0.81122809  1  -0.065552  0  -0.066869  -0.123025  0  3.920946  0
C  C52  1  0.43389038  0.53651905  0.10999992  1  -0.00745  0  -0.002502  0.086393  0  4.073637  0
C  C53  1  0.50904399  0.51461716  0.95911604  1  0.01597  0  0.010857  0.009571  0  3.911494  0
C  C54  1  0.58680004  0.47031200  0.90439168  1  0.025353  0  -0.002397  0.078645  0  4.071983  0
C  C55  1  0.64678320  0.32300839  0.23466401  1  1.490761  0  0.225646  0.571878  0  4.140491  0
C  C56  1  0.33436300  0.62842610  0.77606189  1  1.508971  0  0.232189  0.586189  0  4.11779  0
C  C57  1  0.27832681  0.70313721  0.95044949  1  1.51971  0  0.222309  0.566426  0  4.161936  0
C  C58  1  0.77403582  0.36003089  0.06825939  1  1.494251  0  0.222792  0.569093  0  4.163259  0
C  C59  1  0.59152785  0.43231576  0.09528003  1  0.004509  0  0.011989  0.056541  0  3.912189  0
C  C60  1  0.42853521  0.57469005  0.91760796  1  -0.006405  0  0.009188  0.041423  0  3.911094  0
C  C61  1  0.35700533  0.59982498  0.06875773  1  -0.011897  0  -0.067965  -0.130268  0  3.931971  0
C  C62  1  0.66986857  0.41705440  0.94571839  1  0.049386  0  -0.061546  -0.115311  0  3.91845  0
C  C63  1  0.35496119  0.62175822  0.97739878  1  -0.040986  0  -0.007188  -0.057819  0  3.936596  0
S  S64  1  0.31661600  0.25891480  0.63597888  1  3.180547  0  0.530243  1.112394  0  6.117495  0
S  S65  1  0.69078918  0.75273699  0.36216200  1  3.068396  0  0.550033  1.116174  0  5.990436  0
N  N66  1  0.49060807  0.24126210  0.54500212  1  -1.241466  0  -0.305266  -0.214254  0  3.531393  0
N  N67  1  0.52907776  0.75261237  0.47387478  1  -1.239079  0  -0.302085  -0.21156  0  3.537998  0
O  O68  1  0.51502657  0.43698958  0.65106132  1  -1.138026  0  -0.307585  -0.525502  0  2.366401  0
O  O69  1  0.66048547  0.24762350  0.18228888  1  -1.104206  0  -0.333482  -0.485116  0  2.241888  0
O  O70  1  0.33046656  0.69220340  0.71378337  1  -1.124185  0  -0.28516  -0.488511  0  2.145741  0
O  O71  1  0.25342615  0.58806636  0.81230994  1  -1.083697  0  -0.32602  -0.471536  0  2.217046  0
O  O72  1  0.19425983  0.71341248  0.98266915  1  -1.128211  0  -0.303321  -0.492285  0  2.05304  0
O  O73  1  0.31596055  0.77118215  0.89024982  1  -1.108724  0  -0.334615  -0.484061  0  2.242331  0
O  O74  1  0.83189863  0.30273124  0.02996060  1  -1.124436  0  -0.303603  -0.492739  0  2.054551  0
O  O75  1  0.79700300  0.40061003  0.14185457  1  -1.117502  0  -0.330261  -0.486209  0  2.242168  0
O  O76  1  0.24600404  0.19561991  0.67265185  1  -1.307297  0  -0.31596  -0.521305  0  2.167627  0
O  O77  1  0.36036306  0.31562586  0.69347476  1  -1.284253  0  -0.311318  -0.51551  0  2.162791  0
O  O78  1  0.27082890  0.32360517  0.55481888  1  -1.272413  0  -0.35572  -0.536589  0  2.242504  0
O  O79  1  0.53379876  0.53196819  0.36845349  1  -1.152765  0  -0.305077  -0.531665  0  2.398897  0
O  O80  1  0.78472814  0.76752389  0.39092160  1  -1.272147  0  -0.293339  -0.489211  0  2.112467  0
O  O81  1  0.66624859  0.66005056  0.34561020  1  -1.270476  0  -0.280562  -0.489781  0  2.253847  0
O  O82  1  0.67542359  0.82430958  0.27021282  1  -1.181226  0  -0.359406  -0.538542  0  2.126885  0
O  O83  1  0.48724773  0.59921868  0.61621812  1  -1.166177  0  -0.304637  -0.542448  0  2.39532  0
O  O84  1  0.48775187  0.38127646  0.39522318  1  -1.156003  0  -0.312595  -0.539081  0  2.309498  0
O  O85  1  0.65516744  0.38524707  0.50953726  1  -1.145059  0  -0.305011  -0.539658  0  2.292541  0
O  O86  1  0.37046959  0.62098435  0.45997618  1  -1.13741  0  -0.296769  -0.52201  0  2.238822  0
O  O87  1  0.66264139  0.54615171  0.51534247  1  -1.139169  0  -0.310766  -0.539631  0  2.301386  0
O  O88  1  0.35824316  0.46902420  0.52549332  1  -1.165066  0  -0.300134  -0.546607  0  2.392551  0
O  O89  1  0.67785363  0.31642756  0.30976059  1  -1.133528  0  -0.280884  -0.47567  0  2.140615  0
