# generated using pymatgen
data_Al2H15C24NO12
_symmetry_space_group_name_H-M   'P 1'
_cell_length_a   6.63629679
_cell_length_b   16.92809591
_cell_length_c   19.69954172
_cell_angle_alpha   71.13388295
_cell_angle_beta   90.14934516
_cell_angle_gamma   90.07585516
_symmetry_Int_Tables_number   1
_chemical_formula_structural   Al2H15C24NO12
_chemical_formula_sum   'Al4 H30 C48 N2 O24'
_cell_volume   2094.14462761
_cell_formula_units_Z   2
loop_
 _symmetry_equiv_pos_site_id
 _symmetry_equiv_pos_as_xyz
  1  'x, y, z'
loop_
 _atom_site_type_symbol
 _atom_site_label
 _atom_site_symmetry_multiplicity
 _atom_site_fract_x
 _atom_site_fract_y
 _atom_site_fract_z
 _atom_site_occupancy
 _atom_site_pbe_bader_charge
 _atom_site_pbe_bader_spin_density
 _atom_site_pbe_cm5_charge
 _atom_site_pbe_ddec_charge
 _atom_site_pbe_ddec_spin_density
 _atom_site_pbe_ddec_sum_bond_order
 _atom_site_pbe_magmom
Al  Al0  1  0.01438926  0.49726580  0.49832619  1  2.500557  0  0.397191  1.640659  0  2.582731  0
Al  Al1  1  0.98546656  0.99604464  0.99960971  1  2.500554  0  0.396211  1.638338  0  2.583355  0
Al  Al2  1  0.51553518  0.50027546  0.49899519  1  2.500503  0  0.397904  1.635301  0  2.587787  0
Al  Al3  1  0.48499386  0.00183106  0.99777625  1  2.50153  0  0.397081  1.635781  0  2.589782  0
H  H4  1  0.93753000  0.74908713  0.69028255  1  0.06524  0  0.100276  0.097702  0  1.015232  0
H  H5  1  0.05238440  0.17397064  0.25002637  1  0.059389  0  0.099687  0.096458  0  1.01563  0
H  H6  1  0.94221859  0.66369767  0.60849907  1  0.103385  0  0.110578  0.115737  0  0.994913  0
H  H7  1  0.05064242  0.09626174  0.16214344  1  0.109055  0  0.110687  0.116178  0  0.994296  0
H  H8  1  0.56933249  0.60993836  0.65497424  1  0.099875  0  0.109407  0.113197  0  0.997077  0
H  H9  1  0.43469415  0.16729552  0.10863477  1  0.084023  0  0.1107  0.116049  0  0.994522  0
H  H10  1  0.56252777  0.68869274  0.74204681  1  0.06065  0  0.098455  0.094712  0  1.020385  0
H  H11  1  0.43767861  0.24955587  0.19307057  1  0.064918  0  0.100444  0.09864  0  1.012959  0
H  H12  1  0.55099115  0.81977374  0.75074107  1  0.054531  0  0.101186  0.099613  0  1.010205  0
H  H13  1  0.44009618  0.23994786  0.31228456  1  0.049253  0  0.099089  0.095518  0  1.017233  0
H  H14  1  0.54434341  0.89783003  0.83779560  1  0.085733  0  0.111214  0.11671  0  0.990447  0
H  H15  1  0.44920304  0.32423089  0.39459322  1  0.083771  0  0.106404  0.106659  0  1.002201  0
H  H16  1  0.92866273  0.82388669  0.88910376  1  0.091586  0  0.107009  0.106914  0  0.998608  0
H  H17  1  0.06746647  0.38797381  0.33895111  1  0.089931  0  0.11006  0.117572  0  1.001444  0
H  H18  1  0.72799401  0.73210226  0.33093786  1  0.050302  0  0.095035  0.106143  0  1.017192  0
H  H19  1  0.27673515  0.23231240  0.82936007  1  0.068571  0  0.095122  0.106567  0  1.016093  0
H  H20  1  0.57510821  0.79156449  0.37169684  1  0.024102  0  0.100538  0.110542  0  0.976208  0
H  H21  1  0.42896308  0.29171211  0.87068805  1  0.033591  0  0.099983  0.11012  0  0.976427  0
H  H22  1  0.72326599  0.85021680  0.21466771  1  0.075229  0  0.105208  0.124834  0  0.981675  0
H  H23  1  0.28371689  0.35057518  0.71299866  1  0.096083  0  0.105405  0.125164  0  0.981373  0
H  H24  1  0.57592177  0.91085025  0.25512604  1  0.041064  0  0.101229  0.111701  0  0.976388  0
H  H25  1  0.43045923  0.41104946  0.75408668  1  0.041904  0  0.100954  0.111003  0  0.979424  0
H  H26  1  0.93799519  0.74030253  0.80642732  1  0.052857  0  0.0992  0.095187  0  1.017768  0
H  H27  1  0.05820932  0.30720324  0.25395054  1  0.055  0  0.100323  0.097897  0  1.013132  0
H  H28  1  0.98273497  0.76002463  0.15923644  1  0.129848  0  0.122883  0.137224  0  0.984737  0
H  H29  1  0.02341329  0.25896561  0.66015692  1  0.149391  0  0.122926  0.13726  0  0.984123  0
H  H30  1  0.76863518  0.60326183  0.44676792  1  0.624775  0  0.349939  0.426482  0  0.866041  0
H  H31  1  0.22613583  0.10410644  0.94821181  1  0.619645  0  0.349185  0.426021  0  0.86621  0
H  H32  1  0.27057190  0.40268020  0.48626195  1  0.631968  0  0.352462  0.429018  0  0.857301  0
H  H33  1  0.72649801  0.90385144  0.98432159  1  0.624019  0  0.35238  0.429914  0  0.856807  0
C  C34  1  0.75841977  0.38870978  0.61216104  1  1.588528  0  0.271421  0.642943  0  4.113838  0
C  C35  1  0.24669169  0.88886500  0.11190847  1  1.585861  0  0.270968  0.64246  0  4.114062  0
C  C36  1  0.76656077  0.40964501  0.42296948  1  1.535122  0  0.268088  0.648523  0  4.087081  0
C  C37  1  0.23155670  0.91222156  0.92118321  1  1.553708  0  0.267326  0.64632  0  4.093646  0
C  C38  1  0.26865811  0.61062843  0.38332195  1  1.616696  0  0.269277  0.655024  0  4.115707  0
C  C39  1  0.73284685  0.11087119  0.88360430  1  1.618404  0  0.269486  0.657214  0  4.116346  0
C  C40  1  0.25812012  0.58349505  0.57582565  1  1.560713  0  0.267218  0.637151  0  4.107251  0
C  C41  1  0.74353283  0.08121156  0.07736975  1  1.550802  0  0.267958  0.637246  0  4.108266  0
C  C42  1  0.07518622  0.71681317  0.68438091  1  0.006748  0  -0.091016  -0.134063  0  3.981931  0
C  C43  1  0.91773451  0.17412301  0.21811886  1  -0.041313  0  -0.091225  -0.136768  0  3.988699  0
C  C44  1  0.07733270  0.67017879  0.63785140  1  -0.125388  0  -0.081422  -0.087564  0  3.984803  0
C  C45  1  0.91716124  0.12986311  0.16974916  1  -0.037481  0  -0.080388  -0.084467  0  3.983624  0
C  C46  1  0.25604715  0.63214416  0.62663051  1  0.043229  0  -0.016349  -0.04884  0  3.99121  0
C  C47  1  0.74295891  0.12747975  0.12998329  1  -0.030052  0  -0.018516  -0.054645  0  3.990911  0
C  C48  1  0.43146790  0.64030596  0.66362548  1  -0.063421  0  -0.080309  -0.087488  0  3.988507  0
C  C49  1  0.56918572  0.16954065  0.13986398  1  -0.022268  0  -0.081514  -0.086229  0  3.983504  0
C  C50  1  0.42734664  0.68533068  0.71147844  1  -0.024867  0  -0.091279  -0.136607  0  3.987089  0
C  C51  1  0.57119890  0.21454782  0.18772076  1  -0.037498  0  -0.090523  -0.135674  0  3.984334  0
C  C52  1  0.24972024  0.72496766  0.72241033  1  -0.071243  0  -0.001414  0.077734  0  3.989103  0
C  C53  1  0.74559150  0.21796750  0.22753616  1  -0.016875  0  -0.000726  0.078611  0  3.992405  0
C  C54  1  0.41583851  0.81831915  0.78252582  1  -0.013602  0  -0.089898  -0.133338  0  3.976993  0
C  C55  1  0.57755538  0.27313060  0.31718184  1  0.016031  0  -0.091252  -0.135059  0  3.983024  0
C  C56  1  0.41252567  0.86266770  0.83088467  1  0.006934  0  -0.076476  -0.079117  0  3.969361  0
C  C57  1  0.58243886  0.31951086  0.36394140  1  -0.084974  0  -0.079305  -0.076893  0  3.979008  0
C  C58  1  0.23678704  0.86478060  0.86955956  1  -0.041055  0  -0.014185  -0.044161  0  3.978568  0
C  C59  1  0.75997796  0.36007897  0.37288965  1  0.058232  0  -0.015776  -0.049727  0  3.972666  0
C  C60  1  0.06506828  0.82187768  0.85904806  1  -0.011605  0  -0.078464  -0.074459  0  3.976529  0
C  C61  1  0.93179136  0.35434761  0.33345088  1  -0.020723  0  -0.077664  -0.074546  0  3.972459  0
C  C62  1  0.07029100  0.77608074  0.81193027  1  -0.097408  0  -0.090131  -0.134225  0  3.98304  0
C  C63  1  0.92583147  0.30869088  0.28622992  1  -0.041471  0  -0.089069  -0.132344  0  3.977177  0
C  C64  1  0.24564528  0.77347111  0.77264125  1  0.03515  0  -0.001958  0.074277  0  3.99264  0
C  C65  1  0.74930351  0.26678379  0.27748732  1  -0.064262  0  -0.001987  0.074713  0  3.995389  0
C  C66  1  0.40607057  0.80950101  0.23174030  1  -0.019838  0  0.011119  0.080616  0  3.85661  0
C  C67  1  0.60035890  0.30949434  0.73142225  1  0.000735  0  0.01108  0.079736  0  3.857175  0
C  C68  1  0.25355427  0.81916326  0.18106934  1  0.042164  0  -0.001909  -0.06622  0  3.97076  0
C  C69  1  0.75343031  0.31884831  0.68124839  1  0.042703  0  -0.002888  -0.066419  0  3.969718  0
C  C70  1  0.10479534  0.75659990  0.19716900  1  0.011883  0  -0.06916  -0.145243  0  3.951153  0
C  C71  1  0.90128693  0.25594888  0.69778104  1  -0.024648  0  -0.068291  -0.143996  0  3.947605  0
C  C72  1  0.11632935  0.68830564  0.25965319  1  0.213809  0  0.083512  0.045903  0  3.939456  0
C  C73  1  0.88836133  0.18756431  0.76026393  1  0.182834  0  0.082877  0.045333  0  3.934898  0
C  C74  1  0.26748370  0.67850150  0.31248240  1  -0.002467  0  0.004482  -0.108851  0  3.927094  0
C  C75  1  0.73683527  0.17835897  0.81261451  1  0.054245  0  0.004576  -0.109691  0  3.929937  0
C  C76  1  0.40971924  0.74222710  0.29581855  1  0.035181  0  0.004285  0.076421  0  3.866674  0
C  C77  1  0.59540937  0.24230958  0.79545445  1  -0.02347  0  0.005237  0.077226  0  3.869084  0
C  C78  1  0.59701943  0.77357257  0.32340660  1  0.020452  0  -0.149601  -0.20031  0  3.86282  0
C  C79  1  0.40778069  0.27375117  0.82231544  1  0.001052  0  -0.149982  -0.200651  0  3.861567  0
C  C80  1  0.59510981  0.84845479  0.25026179  1  -0.000437  0  -0.1448  -0.196464  0  3.849007  0
C  C81  1  0.41116314  0.34865583  0.74915027  1  -0.026227  0  -0.14514  -0.195566  0  3.846788  0
N  N82  1  0.97054035  0.62072248  0.26543667  1  0.358914  0  0.059638  0.516648  0  4.218163  0
N  N83  1  0.03228759  0.11924964  0.76652051  1  0.392962  0  0.058122  0.514687  0  4.216317  0
O  O84  1  0.59967141  0.42373981  0.44921042  1  -1.270029  0  -0.241675  -0.612521  0  2.338632  0
O  O85  1  0.40005863  0.92792134  0.94565041  1  -1.268379  0  -0.240454  -0.610873  0  2.34378  0
O  O86  1  0.92685209  0.40690380  0.58028754  1  -1.255315  0  -0.229427  -0.579282  0  2.334524  0
O  O87  1  0.07710835  0.90549086  0.08032846  1  -1.261257  0  -0.229882  -0.579519  0  2.341284  0
O  O88  1  0.08900672  0.55727263  0.56104626  1  -1.262085  0  -0.23427  -0.584955  0  2.348824  0
O  O89  1  0.91131210  0.05162102  0.06563065  1  -1.252336  0  -0.233077  -0.583063  0  2.352051  0
O  O90  1  0.93944086  0.43389449  0.43688846  1  -1.257037  0  -0.23898  -0.604893  0  2.365166  0
O  O91  1  0.05873538  0.93278646  0.93818145  1  -1.260845  0  -0.237699  -0.60322  0  2.367826  0
O  O92  1  0.09900903  0.58956709  0.41386085  1  -1.254993  0  -0.238133  -0.602573  0  2.347715  0
O  O93  1  0.90063371  0.08992107  0.91583186  1  -1.256939  0  -0.238573  -0.605143  0  2.345202  0
O  O94  1  0.59047892  0.42373944  0.59014120  1  -1.250909  0  -0.225087  -0.566463  0  2.332393  0
O  O95  1  0.41280833  0.92518358  0.08941027  1  -1.247773  0  -0.224556  -0.56499  0  2.325519  0
O  O96  1  0.76636930  0.55079838  0.48590771  1  -1.428741  0  -0.449043  -0.987551  0  2.198409  0
O  O97  1  0.23260887  0.05104131  0.98656984  1  -1.42465  0  -0.448534  -0.98677  0  2.193126  0
O  O98  1  0.44089343  0.58332120  0.40832904  1  -1.248901  0  -0.227268  -0.57602  0  2.324209  0
O  O99  1  0.55936608  0.08390408  0.90714180  1  -1.246405  0  -0.227622  -0.576233  0  2.328583  0
O  O100  1  0.42767326  0.57213903  0.55028198  1  -1.256363  0  -0.235114  -0.588638  0  2.346847  0
O  O101  1  0.57705486  0.07512882  0.04701624  1  -1.257479  0  -0.23585  -0.59246  0  2.352409  0
O  O102  1  0.26635743  0.44829597  0.50593255  1  -1.435233  0  -0.447048  -0.985572  0  2.195015  0
O  O103  1  0.73253919  0.94811622  0.00557646  1  -1.425712  0  -0.447575  -0.986004  0  2.190827  0
O  O104  1  0.03784091  0.54874351  0.28305688  1  -0.432536  0  -0.117142  -0.316904  0  1.939823  0
O  O105  1  0.79219617  0.64064098  0.24983087  1  -0.455118  0  -0.131077  -0.332487  0  1.896031  0
O  O106  1  0.21029072  0.13852277  0.74975698  1  -0.46378  0  -0.133274  -0.335366  0  1.894195  0
O  O107  1  0.96403057  0.04731268  0.78580814  1  -0.440512  0  -0.119048  -0.314476  0  1.917611  0
