# generated using pymatgen
data_CuH9C12INO
_symmetry_space_group_name_H-M   'P 1'
_cell_length_a   3.99029522
_cell_length_b   8.16111475
_cell_length_c   18.01409688
_cell_angle_alpha   92.19335659
_cell_angle_beta   89.96447857
_cell_angle_gamma   104.46783530
_symmetry_Int_Tables_number   1
_chemical_formula_structural   CuH9C12INO
_chemical_formula_sum   'Cu2 H18 C24 I2 N2 O2'
_cell_volume   567.58999773
_cell_formula_units_Z   2
loop_
 _symmetry_equiv_pos_site_id
 _symmetry_equiv_pos_as_xyz
  1  'x, y, z'
loop_
 _atom_site_type_symbol
 _atom_site_label
 _atom_site_symmetry_multiplicity
 _atom_site_fract_x
 _atom_site_fract_y
 _atom_site_fract_z
 _atom_site_occupancy
 _atom_site_hle17_bader_spin_density
 _atom_site_hle17_ddec_charge
 _atom_site_hle17_ddec_spin_density
 _atom_site_hle17_ddec_sum_bond_order
 _atom_site_hle17_magmom
 _atom_site_hse06_10hf_bader_spin_density
 _atom_site_hse06_10hf_ddec_charge
 _atom_site_hse06_10hf_ddec_spin_density
 _atom_site_hse06_10hf_ddec_sum_bond_order
 _atom_site_hse06_10hf_magmom
 _atom_site_hse06_bader_spin_density
 _atom_site_hse06_ddec_charge
 _atom_site_hse06_ddec_spin_density
 _atom_site_hse06_ddec_sum_bond_order
 _atom_site_hse06_magmom
 _atom_site_pbe_bader_spin_density
 _atom_site_pbe_cm5_charge
 _atom_site_pbe_ddec_charge
 _atom_site_pbe_ddec_spin_density
 _atom_site_pbe_ddec_sum_bond_order
 _atom_site_pbe_magmom
Cu  Cu0  1  0.96409364  0.47705867  0.54547803  1  0  0.230445  0  2.228208  0  0  0.15326  0  2.710608  0  0  0.16764  0  2.651902  0  0  0.238447  0.145725  0  2.749845  0
Cu  Cu1  1  0.48810203  0.52276412  0.45513026  1  0  0.230686  0  2.231249  0  0  0.153643  0  2.713666  0  0  0.167742  0  2.655198  0  0  0.238679  0.146199  0  2.752806  0
H  H2  1  0.87449980  0.48490220  0.70544064  1  0  0.073896  0  0.960224  0  0  0.077378  0  1.037302  0  0  0.080813  0  1.033857  0  0  0.102978  0.074889  0  1.039777  0
H  H3  1  0.37577928  0.51597744  0.29587009  1  0  0.074188  0  0.961772  0  0  0.077909  0  1.038356  0  0  0.081361  0  1.034853  0  0  0.102964  0.07543  0  1.040827  0
H  H4  1  0.11489332  0.13538695  0.55578556  1  0  0.074795  0  0.949617  0  0  0.079826  0  1.022673  0  0  0.083365  0  1.018455  0  0  0.102583  0.076824  0  1.02631  0
H  H5  1  0.98604772  0.86534328  0.44363070  1  0  0.074871  0  0.949192  0  0  0.080373  0  1.021224  0  0  0.083848  0  1.017107  0  0  0.103183  0.077466  0  1.024743  0
H  H6  1  0.79765534  0.48246044  0.95804161  1  0  0.092303  0  0.9755  0  0  0.099362  0  1.044329  0  0  0.101996  0  1.043406  0  0  0.101978  0.097479  0  1.045006  0
H  H7  1  0.31018215  0.51267371  0.04128105  1  0  0.093342  0  0.973927  0  0  0.100234  0  1.042866  0  0  0.102999  0  1.041756  0  0  0.10212  0.098262  0  1.04366  0
H  H8  1  0.25684286  0.96306896  0.65768678  1  0  0.105503  0  0.964697  0  0  0.11568  0  1.023965  0  0  0.118799  0  1.023918  0  0  0.09232  0.113193  0  1.024498  0
H  H9  1  0.29719360  0.03675989  0.34074015  1  0  0.105848  0  0.963367  0  0  0.116073  0  1.022718  0  0  0.119131  0  1.022683  0  0  0.093056  0.113623  0  1.023258  0
H  H10  1  0.20480182  0.06333307  0.79092887  1  0  0.102365  0  0.960986  0  0  0.109785  0  1.030038  0  0  0.113004  0  1.027227  0  0  0.109574  0.107476  0  1.032067  0
H  H11  1  0.13319476  0.93574337  0.20791098  1  0  0.102553  0  0.959608  0  0  0.110174  0  1.028084  0  0  0.113335  0  1.025401  0  0  0.109774  0.10786  0  1.030079  0
H  H12  1  0.43170671  0.60284154  0.76397995  1  0  0.078261  0  0.989798  0  0  0.084982  0  1.062685  0  0  0.087507  0  1.061825  0  0  0.089554  0.083116  0  1.063263  0
H  H13  1  0.82039733  0.40109887  0.23706665  1  0  0.076982  0  0.991493  0  0  0.083733  0  1.064644  0  0  0.086269  0  1.063756  0  0  0.089301  0.081901  0  1.065163  0
H  H14  1  0.62210157  0.90085118  0.81011611  1  0  0.085921  0  0.970728  0  0  0.0947  0  1.03595  0  0  0.097294  0  1.035245  0  0  0.096556  0.092729  0  1.036739  0
H  H15  1  0.72866681  0.10367357  0.19090331  1  0  0.085753  0  0.968629  0  0  0.094862  0  1.033527  0  0  0.097458  0  1.032816  0  0  0.09669  0.092929  0  1.034256  0
H  H16  1  0.40170515  0.99364923  0.92797297  1  0  0.09834  0  0.956965  0  0  0.107756  0  1.019611  0  0  0.110628  0  1.017813  0  0  0.105539  0.105732  0  1.020872  0
H  H17  1  0.42926259  0.00777194  0.07171659  1  0  0.099392  0  0.95854  0  0  0.108806  0  1.021083  0  0  0.111657  0  1.019303  0  0  0.105736  0.106825  0  1.022279  0
H  H18  1  0.97789087  0.78381429  0.00304381  1  0  0.101534  0  0.953639  0  0  0.110447  0  1.014117  0  0  0.113482  0  1.013047  0  0  0.103807  0.108284  0  1.015001  0
H  H19  1  0.20559804  0.21223238  0.99617327  1  0  0.101568  0  0.958365  0  0  0.110052  0  1.019663  0  0  0.113218  0  1.018335  0  0  0.103405  0.107798  0  1.020688  0
C  C20  1  0.96364473  0.36939231  0.69790440  1  0  0.095185  0  3.677732  0  0  0.05907  0  3.925216  0  0  0.066082  0  3.943429  0  0  0.041322  0.053961  0  3.914022  0
C  C21  1  0.58417999  0.63119273  0.30272879  1  0  0.094351  0  3.680492  0  0  0.058392  0  3.92773  0  0  0.065326  0  3.945916  0  0  0.040282  0.053231  0  3.916786  0
C  C22  1  0.99591406  0.33969542  0.83691383  1  0  0.386137  0  3.735298  0  0  0.368128  0  3.990945  0  0  0.390901  0  3.994107  0  0  0.15974  0.352525  0  3.9888  0
C  C23  1  0.63850100  0.65920729  0.16351914  1  0  0.389831  0  3.731148  0  0  0.370414  0  3.988864  0  0  0.393238  0  3.991966  0  0  0.15996  0.354809  0  3.986735  0
C  C24  1  0.09930449  0.52247238  0.85846262  1  0  -0.056306  0  3.789775  0  0  -0.037484  0  4.019919  0  0  -0.046485  0  4.046678  0  0  -0.025384  -0.03145  0  4.001794  0
C  C25  1  0.56916045  0.47692572  0.14172858  1  0  -0.059288  0  3.789865  0  0  -0.039206  0  4.019055  0  0  -0.048343  0  4.045996  0  0  -0.025463  -0.033092  0  4.000809  0
C  C26  1  0.09271722  0.17254698  0.61406645  1  0  0.142709  0  3.652421  0  0  0.108613  0  3.907644  0  0  0.117521  0  3.921661  0  0  0.046935  0.102456  0  3.8991  0
C  C27  1  0.92116260  0.82807046  0.38554574  1  0  0.141115  0  3.654036  0  0  0.106947  0  3.909199  0  0  0.115739  0  3.923417  0  0  0.045394  0.100869  0  3.900433  0
C  C28  1  0.04068773  0.28300014  0.75845570  1  0  -0.082972  0  3.768584  0  0  -0.061031  0  4.000837  0  0  -0.07186  0  4.025088  0  0  -0.016224  -0.054011  0  3.984667  0
C  C29  1  0.74548392  0.71702899  0.24166178  1  0  -0.081035  0  3.765176  0  0  -0.059646  0  3.998722  0  0  -0.070368  0  4.022876  0  0  -0.015152  -0.052673  0  3.982568  0
C  C30  1  0.97644430  0.57598344  0.92601492  1  0  -0.058958  0  3.707909  0  0  -0.081369  0  3.953968  0  0  -0.080461  0  3.974434  0  0  -0.076947  -0.081792  0  3.940002  0
C  C31  1  0.39861214  0.42126874  0.07365009  1  0  -0.057519  0  3.708965  0  0  -0.079908  0  3.953988  0  0  -0.079003  0  3.974475  0  0  -0.07608  -0.080312  0  3.939985  0
C  C32  1  0.17194734  0.07759650  0.67124879  1  0  -0.109827  0  3.731652  0  0  -0.118686  0  3.978708  0  0  -0.126519  0  3.999662  0  0  -0.087578  -0.113874  0  3.965185  0
C  C33  1  0.09353487  0.92258048  0.32780603  1  0  -0.109964  0  3.73035  0  0  -0.119273  0  3.978176  0  0  -0.126983  0  3.999218  0  0  -0.08802  -0.114524  0  3.964524  0
C  C34  1  0.14393047  0.13269732  0.74440261  1  0  -0.024398  0  3.688658  0  0  -0.053928  0  3.938562  0  0  -0.047752  0  3.954014  0  0  -0.063833  -0.057841  0  3.928088  0
C  C35  1  0.00408958  0.86704543  0.25488024  1  0  -0.02602  0  3.687177  0  0  -0.05536  0  3.93765  0  0  -0.049248  0  3.95313  0  0  -0.064094  -0.059165  0  3.927111  0
C  C36  1  0.32827750  0.64158451  0.81593746  1  0  -0.086134  0  3.755058  0  0  -0.105791  0  3.997736  0  0  -0.106751  0  4.021532  0  0  -0.086516  -0.105018  0  3.98177  0
C  C37  1  0.68321612  0.36044856  0.18463425  1  0  -0.083414  0  3.749271  0  0  -0.103582  0  3.992192  0  0  -0.104528  0  4.015952  0  0  -0.086065  -0.102821  0  3.976223  0
C  C38  1  0.43505527  0.80976758  0.84160957  1  0  -0.076145  0  3.773775  0  0  -0.085425  0  4.019714  0  0  -0.089649  0  4.042921  0  0  -0.091577  -0.082676  0  4.004186  0
C  C39  1  0.63114560  0.19280463  0.15892157  1  0  -0.075614  0  3.767339  0  0  -0.085186  0  4.014103  0  0  -0.089419  0  4.037323  0  0  -0.09189  -0.082483  0  3.998565  0
C  C40  1  0.31186907  0.86160157  0.90885783  1  0  -0.034648  0  3.703579  0  0  -0.053438  0  3.953981  0  0  -0.053213  0  3.974085  0  0  -0.072876  -0.0533  0  3.940127  0
C  C41  1  0.46252788  0.13902498  0.09104185  1  0  -0.03552  0  3.702846  0  0  -0.054355  0  3.953222  0  0  -0.054113  0  3.973452  0  0  -0.073293  -0.054232  0  3.939259  0
C  C42  1  0.07945601  0.74452346  0.95092029  1  0  -0.065394  0  3.730109  0  0  -0.076436  0  3.980076  0  0  -0.080361  0  4.001339  0  0  -0.082304  -0.073843  0  3.965601  0
C  C43  1  0.34309831  0.25335404  0.04861308  1  0  -0.068148  0  3.734832  0  0  -0.078954  0  3.984771  0  0  -0.083074  0  4.006081  0  0  -0.083117  -0.076199  0  3.970233  0
I  I44  1  0.89645276  0.30642532  0.41917389  1  0  -0.351193  0  1.711714  0  0  -0.294535  0  2.147805  0  0  -0.312399  0  2.107646  0  0  -0.173536  -0.281092  0  2.176067  0
I  I45  1  0.59577924  0.69401985  0.58119249  1  0  -0.351949  0  1.712414  0  0  -0.29526  0  2.148569  0  0  -0.313263  0  2.108446  0  0  -0.173485  -0.281727  0  2.176875  0
N  N46  1  0.98760392  0.31558680  0.62695775  1  0  -0.262579  0  3.364666  0  0  -0.186557  0  3.644986  0  0  -0.201648  0  3.656541  0  0  -0.360238  -0.177236  0  3.63761  0
N  N47  1  0.66890640  0.68504505  0.37343477  1  0  -0.263284  0  3.365156  0  0  -0.186654  0  3.644107  0  0  -0.201643  0  3.655662  0  0  -0.359395  -0.177384  0  3.636694  0
O  O48  1  0.87476759  0.23086381  0.88253538  1  0  -0.457959  0  1.914058  0  0  -0.413635  0  2.119851  0  0  -0.431017  0  2.116842  0  0  -0.254318  -0.401768  0  2.121792  0
O  O49  1  0.61565386  0.76683733  0.11827980  1  0  -0.459606  0  1.912027  0  0  -0.414897  0  2.118461  0  0  -0.432257  0  2.115279  0  0  -0.254492  -0.40308  0  2.120568  0
