# generated using pymatgen
data_TbCrH18C16(N4O3)2
_symmetry_space_group_name_H-M   'P 1'
_cell_length_a   9.11792285
_cell_length_b   9.11734003
_cell_length_c   16.68196722
_cell_angle_alpha   98.22128975
_cell_angle_beta   98.06868863
_cell_angle_gamma   118.83661488
_symmetry_Int_Tables_number   1
_chemical_formula_structural   TbCrH18C16(N4O3)2
_chemical_formula_sum   'Tb2 Cr2 H36 C32 N16 O12'
_cell_volume   1166.77224346
_cell_formula_units_Z   2
loop_
 _symmetry_equiv_pos_site_id
 _symmetry_equiv_pos_as_xyz
  1  'x, y, z'
loop_
 _atom_site_type_symbol
 _atom_site_label
 _atom_site_symmetry_multiplicity
 _atom_site_fract_x
 _atom_site_fract_y
 _atom_site_fract_z
 _atom_site_occupancy
 _atom_site_pbe_cm5_charge
 _atom_site_pbe_ddec_charge
 _atom_site_pbe_ddec_spin_density
 _atom_site_pbe_ddec_sum_bond_order
 _atom_site_pbe_magmom
Tb  Tb0  1  0.90241115  0.15253261  0.25003931  1  1.522438  2.111011  -1.3e-05  2.151037  0.0
Tb  Tb1  1  0.09758978  0.84746748  0.74996110  1  1.522472  2.111126  -1.3e-05  2.150901  0.0
Cr  Cr2  1  0.50000212  0.50000327  0.49999998  1  0.733674  0.725521  -1.045974  4.16395  -0.844
Cr  Cr3  1  0.99999678  0.49999124  0.99999829  1  0.733322  0.726808  1.045853  4.158956  0.844
H  H4  1  0.73863136  0.12970544  0.07460650  1  0.313435  0.408191  2.9e-05  0.905526  0.0
H  H5  1  0.05522964  0.16406818  0.42547902  1  0.312723  0.406817  -2.9e-05  0.907098  0.0
H  H6  1  0.26136160  0.87029210  0.92539430  1  0.313405  0.40819  2.9e-05  0.9055  0.0
H  H7  1  0.94477261  0.83593449  0.57452109  1  0.312712  0.406818  -2.9e-05  0.907112  0.0
H  H8  1  0.58326139  0.97778793  0.09994560  1  0.290721  0.386867  0.000101  0.962743  0.0
H  H9  1  0.87796155  0.98335948  0.40004546  1  0.29005  0.385919  -0.0001  0.963936  0.0
H  H10  1  0.41673047  0.02220960  0.90005452  1  0.290695  0.386829  0.000101  0.962808  0.0
H  H11  1  0.12203849  0.01664320  0.59995508  1  0.290089  0.385989  -0.0001  0.963828  0.0
H  H12  1  0.76935072  0.78244927  0.15980478  1  0.294367  0.378109  -5.9e-05  0.975038  0.0
H  H13  1  0.62278712  0.10969977  0.34025989  1  0.294481  0.378129  5.8e-05  0.975277  0.0
H  H14  1  0.23065287  0.21754952  0.84019573  1  0.294382  0.378099  -5.9e-05  0.975041  0.0
H  H15  1  0.37721337  0.89030161  0.65974059  1  0.294496  0.378128  5.8e-05  0.975268  0.0
H  H16  1  0.64039259  0.75111557  0.21954944  1  0.334837  0.420241  -5.2e-05  0.857485  0.0
H  H17  1  0.53154124  0.92087310  0.28047954  1  0.335079  0.420717  5.2e-05  0.857033  0.0
H  H18  1  0.35960899  0.24888580  0.78044992  1  0.334808  0.42022  -5.2e-05  0.857478  0.0
H  H19  1  0.46845814  0.07912828  0.71952085  1  0.335081  0.420703  5.2e-05  0.857056  0.0
H  H20  1  0.64355915  0.35299110  0.10538070  1  0.123724  0.099389  -0.000265  1.024421  0.0
H  H21  1  0.24859646  0.03881012  0.39487064  1  0.12367  0.099346  0.000264  1.027161  0.0
H  H22  1  0.35644265  0.64701284  0.89461767  1  0.123721  0.099423  -0.000265  1.024446  0.0
H  H23  1  0.75140403  0.96119127  0.60512984  1  0.123687  0.099383  0.000264  1.027154  0.0
H  H24  1  0.40315849  0.18365396  0.29441339  1  0.123744  0.110426  -0.000337  1.041294  0.0
H  H25  1  0.88961444  0.60933578  0.20578654  1  0.123796  0.110344  0.000337  1.041682  0.0
H  H26  1  0.59684774  0.81634999  0.70558712  1  0.123725  0.110411  -0.000337  1.041362  0.0
H  H27  1  0.11038670  0.39066689  0.79421348  1  0.123785  0.110333  0.000338  1.041674  0.0
H  H28  1  0.08835031  0.11448436  0.05646191  1  0.116718  0.128173  2.8e-05  0.986096  0.0
H  H29  1  0.05849997  0.53244663  0.44369528  1  0.117079  0.128271  -2.7e-05  0.98546  0.0
H  H30  1  0.91165062  0.88551574  0.94353910  1  0.116713  0.128135  2.8e-05  0.986109  0.0
H  H31  1  0.94149941  0.46755476  0.55630511  1  0.117083  0.12827  -2.7e-05  0.985436  0.0
H  H32  1  0.35799905  0.25427135  0.00664694  1  0.112702  0.125821  9.1e-05  1.015569  0.0
H  H33  1  0.24850653  0.85198176  0.49353700  1  0.112613  0.125519  -9.4e-05  1.015543  0.0
H  H34  1  0.64199922  0.74573003  0.99335276  1  0.112727  0.125854  9e-05  1.015567  0.0
H  H35  1  0.75149218  0.14801834  0.50646384  1  0.112603  0.125484  -9.4e-05  1.015568  0.0
H  H36  1  0.64619184  0.30661841  0.23933244  1  0.313377  0.270963  -4e-06  0.989407  0.0
H  H37  1  0.06776526  0.90748730  0.26093703  1  0.313304  0.271262  4e-06  0.988362  0.0
H  H38  1  0.35381151  0.69338424  0.76066595  1  0.313371  0.270969  -4e-06  0.989392  0.0
H  H39  1  0.93223632  0.09251408  0.73906293  1  0.313324  0.2713  4e-06  0.988314  0.0
C  C40  1  0.56975236  0.33854872  0.44730543  1  -0.013753  -0.11676  0.013562  3.710318  0.009
C  C41  1  0.89081834  0.62207157  0.05270284  1  -0.013902  -0.116026  -0.013568  3.71128  -0.009
C  C42  1  0.43025010  0.66145652  0.55269430  1  -0.013694  -0.116679  0.013563  3.710313  0.009
C  C43  1  0.10917110  0.37791048  0.94729771  1  -0.01397  -0.116136  -0.01357  3.710924  -0.009
C  C44  1  0.66838749  0.69217145  0.45636568  1  -0.023057  -0.134514  0.012798  3.750897  0.008
C  C45  1  0.23590419  0.71197504  0.04371158  1  -0.023416  -0.135855  -0.01281  3.748191  -0.008
C  C46  1  0.33161675  0.30783510  0.54363548  1  -0.023094  -0.134558  0.012797  3.750873  0.008
C  C47  1  0.76408655  0.28801599  0.95628376  1  -0.023339  -0.135713  -0.012811  3.748024  -0.008
C  C48  1  0.31401876  0.42578128  0.39626651  1  -0.002548  -0.077715  0.009447  3.712433  0.034
C  C49  1  0.02942094  0.41770455  0.10370335  1  -0.002806  -0.078188  -0.009385  3.71225  -0.034
C  C50  1  0.68598260  0.57422397  0.60373312  1  -0.002585  -0.07779  0.009447  3.712539  0.034
C  C51  1  0.97057579  0.58228522  0.89629656  1  -0.00286  -0.078292  -0.009391  3.712148  -0.034
C  C52  1  0.21866939  0.13356278  0.17954075  1  0.097454  0.326276  0.000135  4.158741  0.0
C  C53  1  0.95463038  0.53972256  0.32058944  1  0.097987  0.32622  -0.000135  4.157396  0.0
C  C54  1  0.78133442  0.86643860  0.82046058  1  0.097421  0.326151  0.000135  4.158851  0.0
C  C55  1  0.04537121  0.46027882  0.67941112  1  0.098009  0.326286  -0.000135  4.157316  0.0
C  C56  1  0.52121579  0.29126139  0.12282153  1  0.043389  0.046456  -0.000493  3.9004  0.0
C  C57  1  0.16940591  0.89899606  0.37738218  1  0.043125  0.045692  0.000488  3.905257  0.0
C  C58  1  0.47878535  0.70874126  0.87717730  1  0.043355  0.046339  -0.000494  3.900627  0.0
C  C59  1  0.83059457  0.10100532  0.62261769  1  0.043098  0.045615  0.000488  3.905254  0.0
C  C60  1  0.36324729  0.23544412  0.06964778  1  -0.077675  -0.096876  0.000483  3.987428  0.0
C  C61  1  0.16666866  0.79419604  0.43052692  1  -0.077195  -0.095426  -0.000481  3.986215  0.0
C  C62  1  0.63675031  0.76455599  0.93035298  1  -0.077674  -0.096837  0.000483  3.987366  0.0
C  C63  1  0.83333072  0.20580535  0.56947407  1  -0.077199  -0.095408  -0.000481  3.986253  0.0
C  C64  1  0.21285284  0.15695193  0.09732347  1  -0.063376  -0.127421  7.9e-05  3.866696  0.0
C  C65  1  0.06026870  0.61607531  0.40282282  1  -0.064457  -0.128283  -7.4e-05  3.863534  0.0
C  C66  1  0.78714742  0.84304688  0.90267740  1  -0.063357  -0.12733  7.9e-05  3.866628  0.0
C  C67  1  0.93973001  0.38392479  0.59717742  1  -0.064447  -0.128264  -7.4e-05  3.863428  0.0
C  C68  1  0.38309152  0.19300088  0.23009511  1  0.044178  -0.03991  -0.000695  3.793925  -0.001
C  C69  1  0.96350681  0.65361089  0.27007822  1  0.044622  -0.038113  0.000692  3.794518  0.001
C  C70  1  0.61691294  0.80700178  0.76990457  1  0.044202  -0.039845  -0.000695  3.793769  -0.001
C  C71  1  0.03649544  0.34639178  0.72992129  1  0.044612  -0.038146  0.000692  3.794546  0.001
N  N72  1  0.76598144  0.80807315  0.43249499  1  -0.336526  -0.30018  0.005767  3.122934  0.005
N  N73  1  0.37572611  0.83343015  0.06752611  1  -0.336184  -0.299088  -0.005804  3.121288  -0.005
N  N74  1  0.23401948  0.19193340  0.56750531  1  -0.336488  -0.300159  0.005767  3.122957  0.005
N  N75  1  0.62426219  0.16656478  0.93247114  1  -0.336261  -0.299228  -0.005798  3.121188  -0.005
N  N76  1  0.60273351  0.23855136  0.41502423  1  -0.3328  -0.30669  0.006223  3.135051  0.005
N  N77  1  0.82298492  0.68720043  0.08495092  1  -0.332896  -0.307716  -0.006217  3.136911  -0.005
N  N78  1  0.39726719  0.76145259  0.58497526  1  -0.332854  -0.306767  0.006224  3.135064  0.005
N  N79  1  0.17701691  0.31278416  0.91504899  1  -0.33281  -0.307619  -0.006224  3.136381  -0.005
N  N80  1  0.19502721  0.37221102  0.33953876  1  -0.421449  -0.415825  -0.101299  3.260453  -0.082
N  N81  1  0.03253616  0.35546196  0.16041931  1  -0.420632  -0.415072  0.101333  3.259094  0.082
N  N82  1  0.80497459  0.62779294  0.66046141  1  -0.421423  -0.415781  -0.101308  3.260515  -0.082
N  N83  1  0.96746034  0.64453168  0.83958027  1  -0.420566  -0.415001  0.101351  3.258918  0.082
N  N84  1  0.52539836  0.26804733  0.20077144  1  -0.341437  -0.103266  0.000188  3.743555  0.0
N  N85  1  0.06801299  0.82525823  0.29944597  1  -0.341917  -0.10474  -0.000187  3.743072  0.0
N  N86  1  0.47460434  0.73195405  0.79922920  1  -0.341432  -0.103278  0.000188  3.743376  0.0
N  N87  1  0.93198971  0.17474315  0.70055468  1  -0.341904  -0.104719  -0.000187  3.743004  0.0
O  O88  1  0.74834437  0.83751380  0.21052994  1  -0.629287  -0.83791  0.000358  2.102311  0.0
O  O89  1  0.62710641  0.03781487  0.28957610  1  -0.629724  -0.838849  -0.000362  2.101899  0.0
O  O90  1  0.25165589  0.16248498  0.78946852  1  -0.629287  -0.837895  0.000358  2.102315  0.0
O  O91  1  0.37289563  0.96218523  0.71042499  1  -0.629745  -0.838833  -0.000362  2.101928  0.0
O  O92  1  0.71068517  0.06724768  0.11815646  1  -0.652609  -0.882732  0.00081  2.138948  0.0
O  O93  1  0.94921470  0.09258513  0.38188604  1  -0.651602  -0.880036  -0.000798  2.139411  0.0
O  O94  1  0.28930669  0.93274986  0.88184426  1  -0.652583  -0.882715  0.000811  2.139018  0.0
O  O95  1  0.05078756  0.90741754  0.61811407  1  -0.65162  -0.880122  -0.000798  2.139337  0.0
O  O96  1  0.07975758  0.06076649  0.20880206  1  -0.441696  -0.679005  -0.003154  2.392069  -0.003
O  O97  1  0.85230920  0.37148642  0.29130776  1  -0.442173  -0.680093  0.003175  2.388778  0.003
O  O98  1  0.92024622  0.93923489  0.79119928  1  -0.441667  -0.679  -0.003155  2.39215  -0.003
O  O99  1  0.14769283  0.62851366  0.70869153  1  -0.442206  -0.680139  0.003176  2.388743  0.003
