# generated using pymatgen
data_Al4H47C58(N3O5)5
_symmetry_space_group_name_H-M   'P 1'
_cell_length_a   6.77279718
_cell_length_b   22.34662025
_cell_length_c   24.86923406
_cell_angle_alpha   72.92793843
_cell_angle_beta   89.46914239
_cell_angle_gamma   89.47266499
_symmetry_Int_Tables_number   1
_chemical_formula_structural   Al4H47C58(N3O5)5
_chemical_formula_sum   'Al4 H47 C58 N15 O25'
_cell_volume   3597.84659574
_cell_formula_units_Z   1
loop_
 _symmetry_equiv_pos_site_id
 _symmetry_equiv_pos_as_xyz
  1  'x, y, z'
loop_
 _atom_site_type_symbol
 _atom_site_label
 _atom_site_symmetry_multiplicity
 _atom_site_fract_x
 _atom_site_fract_y
 _atom_site_fract_z
 _atom_site_occupancy
 _atom_site_pbe_bader_charge
 _atom_site_pbe_bader_spin_density
 _atom_site_pbe_cm5_charge
 _atom_site_pbe_ddec_charge
 _atom_site_pbe_ddec_spin_density
 _atom_site_pbe_ddec_sum_bond_order
 _atom_site_pbe_magmom
Al  Al0  1  0.15195370  0.49840748  0.49973269  1  2.501715  0  0.401064  1.633628  0  2.581193  0
Al  Al1  1  0.65221143  0.49834179  0.49760341  1  2.502179  0  0.405074  1.632051  0  2.571576  0
Al  Al2  1  0.63953291  0.99933973  0.00016336  1  2.501573  0  0.404369  1.636168  0  2.55655  0
Al  Al3  1  0.13793597  0.99826825  0.99895674  1  2.503406  0  0.400342  1.64738  0  2.573911  0
H  H4  1  0.66598255  0.72587748  0.62777489  1  0.097096  0  0.100751  0.110883  0  1.039268  0
H  H5  1  0.67559401  0.34556651  0.30327460  1  0.095556  0  0.111052  0.133603  0  1.015578  0
H  H6  1  0.64940146  0.14085466  0.19941146  1  0.092391  0  0.102696  0.103199  0  1.030552  0
H  H7  1  0.66353795  0.07486075  0.13410703  1  0.096303  0  0.10703  0.120367  0  1.001021  0
H  H8  1  0.67295591  0.83769754  0.98914434  1  0.069476  0  0.104307  0.069449  0  0.98942  0
H  H9  1  0.65440063  0.77619187  0.95684881  1  0.028585  0  0.101188  0.061498  0  0.966049  0
H  H10  1  0.39662390  0.76679063  0.03220674  1  0.065652  0  0.104014  0.142007  0  0.975733  0
H  H11  1  0.29929445  0.84148568  0.99664327  1  0.071807  0  0.098868  0.134875  0  1.010907  0
H  H12  1  0.28301449  0.77946860  0.96547501  1  0.035354  0  0.090709  0.125798  0  1.011918  0
H  H13  1  0.07890619  0.21296026  0.43686882  1  0.030274  0  0.095536  0.054579  0  0.968299  0
H  H14  1  0.17817011  0.19749230  0.37548985  1  0.026662  0  0.091244  0.046054  0  0.987694  0
H  H15  1  0.83464876  0.19769872  0.33747611  1  0.082485  0  0.089973  0.127172  0  1.024063  0
H  H16  1  0.86073008  0.13968067  0.40424069  1  0.053324  0  0.091075  0.122571  0  0.996814  0
H  H17  1  0.73467010  0.21159330  0.39901102  1  0.037059  0  0.089714  0.12682  0  0.996559  0
H  H18  1  0.03601774  0.39206277  0.44586331  1  0.48734  0  0.30489  0.311475  0  0.979645  0
H  H19  1  0.93729933  0.33695242  0.41879135  1  0.471714  0  0.305978  0.302842  0  0.961274  0
H  H20  1  0.16083560  0.18497180  0.99782356  1  0.033546  0  0.098979  0.05927  0  0.972224  0
H  H21  1  0.05242152  0.23200561  0.03750453  1  0.038877  0  0.09521  0.051576  0  0.987845  0
H  H22  1  0.83012643  0.23621610  0.95948343  1  0.026215  0  0.097193  0.131134  0  0.987707  0
H  H23  1  0.83066328  0.15371959  0.97362272  1  0.055859  0  0.100012  0.14335  0  1.009783  0
H  H24  1  0.71396133  0.18867832  0.02176820  1  0.047126  0  0.089445  0.123354  0  1.009187  0
H  H25  1  0.99200003  0.22140362  0.17905019  1  0.505418  0  0.297708  0.285139  0  1.034215  0
H  H26  1  0.88938613  0.18685014  0.12957099  1  0.469073  0  0.308291  0.302285  0  0.963816  0
H  H27  1  0.57661856  0.84452188  0.75984891  1  0.526669  0  0.298282  0.281421  0  1.039945  0
H  H28  1  0.45715574  0.89218437  0.79656244  1  0.470718  0  0.312718  0.308586  0  0.949041  0
H  H29  1  0.25804679  0.77666192  0.82091736  1  0.515906  0  0.29811  0.27907  0  1.034236  0
H  H30  1  0.36669257  0.81412644  0.86662584  1  0.473746  0  0.306646  0.290369  0  0.995782  0
H  H31  1  0.21294875  0.96288958  0.88111735  1  0.459247  0  0.304474  0.307124  0  0.961433  0
H  H32  1  0.36884411  0.90627396  0.87806413  1  0.504291  0  0.292749  0.272198  0  1.087163  0
H  H33  1  0.56496348  0.62154476  0.54538452  1  0.492637  0  0.301312  0.310227  0  0.985872  0
H  H34  1  0.49077646  0.68657125  0.56486072  1  0.434958  0  0.311223  0.307796  0  0.931214  0
H  H35  1  0.19603128  0.51823105  0.62615875  1  0.50253  0  0.307481  0.315734  0  0.976048  0
H  H36  1  0.26439790  0.53326619  0.68891425  1  0.454025  0  0.31134  0.30832  0  0.955355  0
H  H37  1  0.37988525  0.68363461  0.69911275  1  0.044415  0  0.089337  0.042532  0  1.048123  0
H  H38  1  0.44581740  0.61386982  0.68167120  1  0.022143  0  0.087102  0.042989  0  1.02365  0
H  H39  1  0.65028275  0.62233469  0.76173125  1  0.03164  0  0.087996  0.124856  0  1.019124  0
H  H40  1  0.43323367  0.63044084  0.80043054  1  0.034553  0  0.088194  0.122778  0  0.994894  0
H  H41  1  0.48639518  0.55820893  0.78629898  1  0.041293  0  0.088188  0.119955  0  0.994027  0
H  H42  1  0.64848748  0.51320255  0.34107239  1  0.038205  0  0.093349  0.052174  0  0.991121  0
H  H43  1  0.66676074  0.47936450  0.28422647  1  0.042032  0  0.09376  0.048591  0  0.97571  0
H  H44  1  0.03209640  0.46848618  0.29632304  1  0.027137  0  0.090773  0.127193  0  0.99443  0
H  H45  1  0.96065517  0.54793879  0.28733315  1  0.012329  0  0.088097  0.118318  0  1.010371  0
H  H46  1  0.01941365  0.49766842  0.35543810  1  0.064533  0  0.092472  0.133255  0  1.017625  0
H  H47  1  0.39784591  0.57714851  0.46269304  1  0.624007  0  0.349922  0.426304  0  0.860352  0
H  H48  1  0.90129326  0.41911485  0.53383115  1  0.621794  0  0.352626  0.428724  0  0.854175  0
H  H49  1  0.39929705  0.92993517  0.98174138  1  0.609912  0  0.336944  0.406181  0  0.908769  0
H  H50  1  0.89192038  0.06248560  0.02393749  1  0.626084  0  0.341357  0.414514  0  0.895786  0
C  C51  1  0.40042732  0.43277745  0.43668281  1  1.529507  0  0.264719  0.672615  0  4.065068  0
C  C52  1  0.40925257  0.41415417  0.58544757  1  1.662654  0  0.274104  0.701894  0  4.173202  0
C  C53  1  0.90031467  0.56210564  0.56289334  1  1.495515  0  0.25941  0.668258  0  4.060826  0
C  C54  1  0.89852957  0.58394680  0.41330992  1  1.691735  0  0.277445  0.701175  0  4.176998  0
C  C55  1  0.90127102  0.63555772  0.36286141  1  0.055629  0  -0.004641  -0.152817  0  3.852501  0
C  C56  1  0.90018244  0.67888333  0.31901636  1  -0.151016  0  -0.006389  0.035539  0  4.262803  0
C  C57  1  0.89832907  0.72584123  0.27100167  1  -0.119438  0  -0.005988  -0.016996  0  4.202137  0
C  C58  1  0.89533565  0.76896581  0.22656169  1  0.071501  0  0.001811  0.004894  0  4.197844  0
C  C59  1  0.89232207  0.81564276  0.17834249  1  -0.150573  0  -0.012569  0.016877  0  4.265127  0
C  C60  1  0.88973649  0.85836071  0.13410244  1  0.047905  0  0.001671  -0.126145  0  3.828773  0
C  C61  1  0.72468438  0.87579721  0.87557940  1  0.477945  0  0.038567  0.069806  0  4.028143  0
C  C62  1  0.73051689  0.85792327  0.82562594  1  0.472127  0  0.096741  0.191938  0  4.127712  0
C  C63  1  0.91238139  0.83050042  0.81334012  1  0.027136  0  -0.035895  -0.217724  0  3.970049  0
C  C64  1  0.08115496  0.83836833  0.84435993  1  0.512675  0  0.117932  0.218969  0  4.028431  0
C  C65  1  0.07630435  0.88950135  0.86896154  1  0.437155  0  0.088958  0.188612  0  4.023789  0
C  C66  1  0.89570033  0.90095187  0.89283002  1  0.056877  0  -0.04798  -0.274214  0  4.062299  0
C  C67  1  0.92576560  0.72216978  0.70707724  1  0.94472  0  0.237161  0.249345  0  3.989054  0
C  C68  1  0.92123731  0.79487213  0.77317935  1  0.878167  0  0.226354  0.270594  0  3.983953  0
C  C69  1  0.76996581  0.68727381  0.63248217  1  -0.021165  0  -0.124447  -0.28543  0  4.012892  0
C  C70  1  0.75213351  0.64754494  0.59842837  1  0.439854  0  0.101649  0.311268  0  4.11563  0
C  C71  1  0.89713711  0.59946061  0.60260368  1  -0.000544  0  -0.043419  -0.280539  0  3.890353  0
C  C72  1  0.04291089  0.58856289  0.64574380  1  0.523046  0  0.10437  0.227857  0  4.103641  0
C  C73  1  0.05104475  0.62780057  0.68129658  1  0.53713  0  0.055874  0.07002  0  4.022201  0
C  C74  1  0.91836636  0.67837789  0.67318995  1  -0.014566  0  -0.015126  -0.048201  0  4.083424  0
C  C75  1  0.55564862  0.38645721  0.36442045  1  0.451203  0  0.08142  0.244223  0  4.090129  0
C  C76  1  0.54820164  0.34833223  0.32946832  1  0.074545  0  -0.113792  -0.268086  0  4.031507  0
C  C77  1  0.37563453  0.31456440  0.32685702  1  0.00786  0  -0.013238  -0.053232  0  4.074142  0
C  C78  1  0.21568830  0.31737322  0.36199933  1  0.567107  0  0.075097  0.094473  0  4.004244  0
C  C79  1  0.22085417  0.35577340  0.39866729  1  0.460529  0  0.109167  0.225917  0  4.062761  0
C  C80  1  0.39358498  0.39183202  0.39949332  1  -0.002529  0  -0.034393  -0.259889  0  3.899944  0
C  C81  1  0.35711689  0.21363458  0.21471707  1  0.885519  0  0.231885  0.255721  0  3.985906  0
C  C82  1  0.36747535  0.28006540  0.28493092  1  0.933414  0  0.238977  0.248961  0  3.987818  0
C  C83  1  0.52276180  0.13810864  0.17358887  1  -0.050466  0  -0.096004  -0.115679  0  4.045323  0
C  C84  1  0.53140764  0.10168895  0.13744253  1  0.010871  0  -0.106248  -0.129865  0  4.047438  0
C  C85  1  0.36722883  0.09881094  0.10352772  1  0.008719  0  -0.018949  -0.130513  0  3.992806  0
C  C86  1  0.19581723  0.13276779  0.10746802  1  0.486198  0  0.081807  0.129712  0  3.969158  0
C  C87  1  0.18081954  0.16815777  0.14684621  1  0.550278  0  0.111868  0.200173  0  4.05405  0
C  C88  1  0.35129365  0.17262552  0.17880646  1  -0.006245  0  -0.020981  -0.093475  0  3.977205  0
C  C89  1  0.40971780  0.36382213  0.63690270  1  0.267876  0  -0.007709  -0.155435  0  3.847372  0
C  C90  1  0.40814257  0.32050138  0.68075887  1  -0.392316  0  -0.006017  0.038144  0  4.261062  0
C  C91  1  0.40570470  0.27309586  0.72852785  1  0.163604  0  -0.003089  -0.012094  0  4.192193  0
C  C92  1  0.40247810  0.22934141  0.77248699  1  -0.116471  0  0.003209  0.005547  0  4.190324  0
C  C93  1  0.39823813  0.18203366  0.82032634  1  -0.434309  0  -0.010961  0.019377  0  4.258237  0
C  C94  1  0.39377386  0.13881895  0.86423334  1  0.307696  0  0.002347  -0.126242  0  3.823879  0
C  C95  1  0.39023346  0.08821472  0.91593922  1  1.690314  0  0.268195  0.681648  0  4.199485  0
C  C96  1  0.38143920  0.05851517  0.06535589  1  1.563665  0  0.276228  0.670393  0  4.060085  0
C  C97  1  0.88940930  0.90885543  0.08243338  1  1.695047  0  0.26928  0.685936  0  4.199767  0
C  C98  1  0.88773171  0.93972887  0.93177945  1  1.479228  0  0.264331  0.669545  0  4.070612  0
C  C99  1  0.57850009  0.81735582  0.96339567  1  0.372332  0  -0.064105  0.084843  0  3.877512  0
C  C100  1  0.37735753  0.80068218  0.99047838  1  -0.084262  0  -0.240407  -0.395604  0  3.937993  0
C  C101  1  0.05236833  0.21881275  0.39186542  1  0.419146  0  -0.066257  0.090029  0  3.915302  0
C  C102  1  0.85902377  0.19018872  0.38254360  1  -0.105341  0  -0.247323  -0.396318  0  3.978012  0
C  C103  1  0.03295232  0.18952556  0.02414796  1  0.406248  0  -0.066084  0.086017  0  3.898027  0
C  C104  1  0.84055353  0.19168856  0.99314867  1  -0.058793  0  -0.243144  -0.398127  0  3.948505  0
C  C105  1  0.38159336  0.63225183  0.71459497  1  0.440889  0  -0.080895  0.066109  0  3.931854  0
C  C106  1  0.49427403  0.60938944  0.76906745  1  -0.077722  0  -0.247515  -0.382292  0  3.972863  0
C  C107  1  0.73495476  0.48071157  0.32400040  1  0.409517  0  -0.065332  0.100528  0  3.901804  0
C  C108  1  0.94949603  0.49981241  0.31526231  1  -0.047686  0  -0.248672  -0.397419  0  3.963921  0
N  N109  1  0.09120950  0.76385423  0.76734688  1  -0.623507  0  -0.161573  -0.16271  0  3.277313  0
N  N110  1  0.09499836  0.72853758  0.73336635  1  -0.506967  0  -0.144301  -0.12155  0  3.247108  0
N  N111  1  0.76436853  0.75875170  0.70670889  1  -0.529649  0  -0.154818  -0.141705  0  3.235942  0
N  N112  1  0.76361360  0.79603705  0.73873646  1  -0.604094  0  -0.157281  -0.15393  0  3.287312  0
N  N113  1  0.19514927  0.27811178  0.25857150  1  -0.519428  0  -0.154366  -0.138081  0  3.207586  0
N  N114  1  0.19005712  0.24348852  0.22387420  1  -0.609734  0  -0.153218  -0.145757  0  3.265503  0
N  N115  1  0.53703262  0.22634461  0.23305308  1  -0.526398  0  -0.156228  -0.154665  0  3.211322  0
N  N116  1  0.54115013  0.25881782  0.26911724  1  -0.555131  0  -0.14168  -0.124773  0  3.222847  0
N  N117  1  0.05975799  0.35368743  0.43257321  1  -1.241225  0  -0.59645  -0.598181  0  3.339927  0
N  N118  1  0.00646419  0.19702120  0.15031620  1  -1.295569  0  -0.578512  -0.584307  0  3.43385  0
N  N119  1  0.56839375  0.86300576  0.79298132  1  -1.304187  0  -0.580707  -0.568698  0  3.446363  0
N  N120  1  0.24427071  0.80236252  0.84894743  1  -1.28175  0  -0.573913  -0.553404  0  3.435989  0
N  N121  1  0.23818568  0.92823187  0.86289301  1  -1.240533  0  -0.612799  -0.612741  0  3.29634  0
N  N122  1  0.60175966  0.65794099  0.55995284  1  -1.262725  0  -0.596683  -0.614585  0  3.314796  0
N  N123  1  0.16888145  0.53859332  0.65687954  1  -1.29528  0  -0.594222  -0.602764  0  3.373873  0
O  O124  1  0.57649371  0.43728675  0.56676488  1  -1.231869  0  -0.225149  -0.577131  0  2.284206  0
O  O125  1  0.23330932  0.45342307  0.44918197  1  -1.268792  0  -0.242062  -0.618634  0  2.394736  0
O  O126  1  0.06372809  0.56695035  0.43741971  1  -1.235274  0  -0.224398  -0.581983  0  2.292054  0
O  O127  1  0.24104790  0.43117717  0.56321780  1  -1.235466  0  -0.225473  -0.580157  0  2.285981  0
O  O128  1  0.06862083  0.54059318  0.55235981  1  -1.266836  0  -0.244598  -0.614615  0  2.371631  0
O  O129  1  0.56595613  0.44460475  0.45523006  1  -1.256714  0  -0.238279  -0.59945  0  2.359378  0
O  O130  1  0.40124821  0.53767805  0.49250757  1  -1.429589  0  -0.450508  -0.982012  0  2.140904  0
O  O131  1  0.73870204  0.55375988  0.53949597  1  -1.260237  0  -0.241206  -0.608587  0  2.363495  0
O  O132  1  0.73010080  0.55975186  0.42928815  1  -1.236574  0  -0.223186  -0.579167  0  2.299257  0
O  O133  1  0.90318256  0.45933707  0.50499269  1  -1.423169  0  -0.446532  -0.974009  0  2.143241  0
O  O134  1  0.22030669  0.04142277  0.04883042  1  -1.266063  0  -0.230092  -0.59748  0  2.408456  0
O  O135  1  0.55815910  0.06993294  0.93755854  1  -1.226206  0  -0.224464  -0.568615  0  2.290428  0
O  O136  1  0.72023384  0.95517051  0.94785611  1  -1.25896  0  -0.238544  -0.596623  0  2.356023  0
O  O137  1  0.55341178  0.04333554  0.05204094  1  -1.256507  0  -0.232447  -0.58974  0  2.318809  0
O  O138  1  0.71990371  0.92840818  0.06257403  1  -1.22665  0  -0.229199  -0.577664  0  2.286296  0
O  O139  1  0.21994843  0.06780695  0.93434188  1  -1.222768  0  -0.227314  -0.569854  0  2.270902  0
O  O140  1  0.39080123  0.96234707  0.00045062  1  -1.419612  0  -0.451345  -0.982081  0  2.174157  0
O  O141  1  0.05877584  0.92780906  0.06218126  1  -1.222204  0  -0.224953  -0.568335  0  2.283637  0
O  O142  1  0.05293848  0.95563202  0.94856367  1  -1.272262  0  -0.243579  -0.624775  0  2.406229  0
O  O143  1  0.88844858  0.03553819  0.99945184  1  -1.431074  0  -0.449265  -0.983549  0  2.161317  0
O  O144  1  0.55327944  0.86334517  0.90832393  1  -1.081176  0  -0.199479  -0.231566  0  2.637075  0
O  O145  1  0.04335109  0.28510321  0.36211630  1  -1.05885  0  -0.193997  -0.218485  0  2.554742  0
O  O146  1  0.03141340  0.13525145  0.07422633  1  -1.062803  0  -0.200075  -0.233849  0  2.506572  0
O  O147  1  0.17919120  0.61053916  0.72625536  1  -1.061841  0  -0.211166  -0.240783  0  2.531966  0
O  O148  1  0.72818837  0.41877301  0.36355016  1  -1.072834  0  -0.200112  -0.231356  0  2.538982  0
