# generated using pymatgen
data_ZnH15C16N3O5
_symmetry_space_group_name_H-M   'P 1'
_cell_length_a   7.55222507
_cell_length_b   13.94278898
_cell_length_c   16.61767312
_cell_angle_alpha   90.00005773
_cell_angle_beta   89.99972242
_cell_angle_gamma   89.99981793
_symmetry_Int_Tables_number   1
_chemical_formula_structural   ZnH15C16N3O5
_chemical_formula_sum   'Zn4 H60 C64 N12 O20'
_cell_volume   1749.82569828
_cell_formula_units_Z   4
loop_
 _symmetry_equiv_pos_site_id
 _symmetry_equiv_pos_as_xyz
  1  'x, y, z'
loop_
 _atom_site_type_symbol
 _atom_site_label
 _atom_site_symmetry_multiplicity
 _atom_site_fract_x
 _atom_site_fract_y
 _atom_site_fract_z
 _atom_site_occupancy
 _atom_site_pbe_bader_charge
 _atom_site_pbe_bader_spin_density
 _atom_site_pbe_cm5_charge
 _atom_site_pbe_ddec_charge
 _atom_site_pbe_ddec_spin_density
 _atom_site_pbe_ddec_sum_bond_order
 _atom_site_pbe_magmom
Zn  Zn0  1  0.27633145  0.42838341  0.33081515  1  1.286933  0  0.674533  0.745939  0  2.403483  0
Zn  Zn1  1  0.77633299  0.07161668  0.66918372  1  1.286968  0  0.674524  0.745933  0  2.403572  0
Zn  Zn2  1  0.72367319  0.92838188  0.16918393  1  1.286957  0  0.674535  0.745896  0  2.403504  0
Zn  Zn3  1  0.22366706  0.57161765  0.83081607  1  1.28696  0  0.674544  0.745935  0  2.403499  0
H  H4  1  0.16834378  0.52532472  0.45578527  1  0.642846  0  0.278303  0.363832  0  0.99321  0
H  H5  1  0.66834961  0.97467490  0.54421185  1  0.642941  0  0.27832  0.363879  0  0.993162  0
H  H6  1  0.83165525  0.02532279  0.04421287  1  0.642926  0  0.278318  0.36385  0  0.993191  0
H  H7  1  0.33165207  0.47467720  0.95578708  1  0.642931  0  0.278321  0.363882  0  0.993151  0
H  H8  1  0.38553805  0.53202190  0.45130607  1  0.662294  0  0.278692  0.361582  0  0.998013  0
H  H9  1  0.88554387  0.96797376  0.54869659  1  0.662252  0  0.278749  0.361651  0  0.997913  0
H  H10  1  0.61446227  0.03202537  0.04869809  1  0.662179  0  0.278693  0.361548  0  0.998069  0
H  H11  1  0.11445785  0.46798001  0.95130654  1  0.662287  0  0.278691  0.361568  0  0.998028  0
H  H12  1  0.40265011  0.36134713  0.19448482  1  0.43125  0  0.311758  0.257791  0  0.916814  0
H  H13  1  0.90264981  0.13864987  0.80551316  1  0.43127  0  0.311757  0.257736  0  0.916864  0
H  H14  1  0.59735095  0.86134957  0.30551179  1  0.43129  0  0.311781  0.257768  0  0.916911  0
H  H15  1  0.09734853  0.63865376  0.69448608  1  0.431255  0  0.311744  0.257779  0  0.916826  0
H  H16  1  0.03272734  0.41482597  0.16461284  1  0.071843  0  0.119538  0.113036  0  0.963595  0
H  H17  1  0.53272439  0.08517525  0.83538656  1  0.07183  0  0.119547  0.113027  0  0.963546  0
H  H18  1  0.96727340  0.91482351  0.33538683  1  0.071853  0  0.119522  0.11304  0  0.963592  0
H  H19  1  0.46727161  0.58517847  0.66461204  1  0.072128  0  0.119539  0.113064  0  0.963547  0
H  H20  1  0.20493657  0.41774700  0.09232635  1  0.055649  0  0.114545  0.111983  0  0.965394  0
H  H21  1  0.70493286  0.08225321  0.90767327  1  0.055677  0  0.114543  0.1119  0  0.965405  0
H  H22  1  0.79506151  0.91774707  0.40767271  1  0.05568  0  0.114558  0.111987  0  0.965389  0
H  H23  1  0.29506183  0.58225448  0.59232653  1  0.055644  0  0.114537  0.111955  0  0.965446  0
H  H24  1  0.15920402  0.58807378  0.06126677  1  0.103486  0  0.103814  0.120792  0  1.048432  0
H  H25  1  0.65920469  0.91192730  0.93873458  1  0.103425  0  0.103794  0.120788  0  1.048429  0
H  H26  1  0.84079332  0.08807230  0.43873262  1  0.103436  0  0.103805  0.12082  0  1.048395  0
H  H27  1  0.34080133  0.41192982  0.56126550  1  0.103409  0  0.103778  0.120778  0  1.048493  0
H  H28  1  0.29799730  0.79197774  0.24675898  1  0.119173  0  0.106313  0.116389  0  1.024006  0
H  H29  1  0.79798127  0.70802166  0.75324026  1  0.119187  0  0.106293  0.116332  0  1.024026  0
H  H30  1  0.70201078  0.29197771  0.25324179  1  0.11919  0  0.106316  0.116342  0  1.023992  0
H  H31  1  0.20200211  0.20802465  0.74675724  1  0.119185  0  0.106312  0.116355  0  1.023975  0
H  H32  1  0.20803658  0.75999489  0.10611062  1  0.090778  0  0.106623  0.100029  0  1.010518  0
H  H33  1  0.70802813  0.74000539  0.89388942  1  0.090701  0  0.106646  0.100112  0  1.010465  0
H  H34  1  0.79196507  0.25999488  0.39389012  1  0.090757  0  0.106631  0.100068  0  1.010481  0
H  H35  1  0.29196698  0.24000805  0.60610931  1  0.090796  0  0.106636  0.100002  0  1.010557  0
H  H36  1  0.32794599  0.65062800  0.34241428  1  0.139541  0  0.120371  0.092473  0  0.991736  0
H  H37  1  0.82793280  0.84937063  0.65758369  1  0.13951  0  0.12039  0.092513  0  0.991709  0
H  H38  1  0.67206821  0.15063006  0.15758336  1  0.139409  0  0.120384  0.092435  0  0.991754  0
H  H39  1  0.17205372  0.34937307  0.84241453  1  0.139537  0  0.120361  0.092464  0  0.99172  0
H  H40  1  0.24032765  0.21840024  0.16611093  1  0.081672  0  0.108803  0.098045  0  0.974771  0
H  H41  1  0.74032754  0.28159847  0.83388862  1  0.0817  0  0.108817  0.098044  0  0.97475  0
H  H42  1  0.75966894  0.71840029  0.33388917  1  0.081658  0  0.108847  0.098181  0  0.974725  0
H  H43  1  0.25966732  0.78160277  0.66611196  1  0.081646  0  0.108817  0.098111  0  0.974733  0
H  H44  1  0.05553269  0.27036134  0.21536956  1  0.108658  0  0.116598  0.10634  0  0.992233  0
H  H45  1  0.55553341  0.22963841  0.78463040  1  0.108668  0  0.116606  0.106353  0  0.992215  0
H  H46  1  0.94446359  0.77035814  0.28463059  1  0.108704  0  0.116621  0.106374  0  0.992181  0
H  H47  1  0.44446572  0.72964029  0.71536833  1  0.108684  0  0.116604  0.106377  0  0.992163  0
H  H48  1  0.23900084  0.07380297  0.25461484  1  0.120892  0  0.103692  0.110621  0  1.048207  0
H  H49  1  0.73900216  0.42619718  0.74538351  1  0.120928  0  0.103713  0.110655  0  1.048175  0
H  H50  1  0.76099791  0.57380076  0.24538394  1  0.120894  0  0.103697  0.110637  0  1.048191  0
H  H51  1  0.26099583  0.92619799  0.75461839  1  0.120732  0  0.103714  0.110677  0  1.048199  0
H  H52  1  0.32741797  0.00613789  0.38919733  1  0.138138  0  0.113735  0.114519  0  0.9774  0
H  H53  1  0.82741371  0.49386282  0.61080082  1  0.138139  0  0.113775  0.114558  0  0.977414  0
H  H54  1  0.67258647  0.50613495  0.11080079  1  0.138087  0  0.113778  0.114553  0  0.977409  0
H  H55  1  0.17257594  0.99386180  0.88920114  1  0.138141  0  0.113792  0.11463  0  0.977362  0
H  H56  1  0.39624576  0.12053825  0.50142301  1  0.069173  0  0.104994  0.10729  0  1.043902  0
H  H57  1  0.89623807  0.37946306  0.49857319  1  0.06866  0  0.10503  0.107384  0  1.04386  0
H  H58  1  0.60375931  0.62053590  0.99857502  1  0.068686  0  0.105018  0.107325  0  1.04391  0
H  H59  1  0.10374832  0.87946026  0.00142645  1  0.069034  0  0.105011  0.107323  0  1.043929  0
H  H60  1  0.36448786  0.29743185  0.47543813  1  0.073422  0  0.116125  0.084132  0  1.018704  0
H  H61  1  0.86448886  0.20256808  0.52456054  1  0.073396  0  0.116112  0.084111  0  1.018706  0
H  H62  1  0.63551357  0.79742959  0.02456144  1  0.07344  0  0.116135  0.08414  0  1.0187  0
H  H63  1  0.13551176  0.70256722  0.97543876  1  0.07334  0  0.11613  0.084152  0  1.018682  0
C  C64  1  0.17519927  0.42874056  0.15650084  1  0.334206  0  -0.054184  -0.106463  0  3.895266  0
C  C65  1  0.67519631  0.07125970  0.84349825  1  0.334201  0  -0.054187  -0.106309  0  3.895153  0
C  C66  1  0.82480140  0.92873979  0.34349764  1  0.334078  0  -0.054164  -0.106459  0  3.895154  0
C  C67  1  0.32479978  0.57126172  0.65650094  1  0.33385  0  -0.054183  -0.106488  0  3.895217  0
C  C68  1  0.21092209  0.53237620  0.17933677  1  0.475503  0  0.125707  0.239271  0  3.926105  0
C  C69  1  0.71091574  0.96762336  0.82066206  1  0.475501  0  0.125692  0.239184  0  3.92629  0
C  C70  1  0.78908485  0.03237610  0.32066077  1  0.475499  0  0.125678  0.239277  0  3.926175  0
C  C71  1  0.28908068  0.46762611  0.67933687  1  0.475515  0  0.125673  0.239275  0  3.9261  0
C  C72  1  0.19182581  0.60634560  0.12336208  1  -0.037094  0  -0.087776  -0.186644  0  3.948218  0
C  C73  1  0.69181930  0.89365614  0.87663799  1  -0.036808  0  -0.087763  -0.186644  0  3.948267  0
C  C74  1  0.80817672  0.10634339  0.37663733  1  -0.036846  0  -0.087768  -0.186709  0  3.948255  0
C  C75  1  0.30817755  0.39365736  0.62336147  1  -0.036919  0  -0.087746  -0.186668  0  3.948283  0
C  C76  1  0.27137632  0.71868610  0.22746867  1  -0.010406  0  -0.086388  -0.134218  0  3.983257  0
C  C77  1  0.77136231  0.78131263  0.77253123  1  -0.010387  0  -0.086479  -0.134221  0  3.983216  0
C  C78  1  0.72863218  0.21868749  0.27253203  1  -0.010509  0  -0.086396  -0.134183  0  3.983172  0
C  C79  1  0.22862461  0.28131555  0.72746754  1  -0.010242  0  -0.086322  -0.134055  0  3.983098  0
C  C80  1  0.22167092  0.70038918  0.14800693  1  -0.028298  0  -0.065591  -0.010954  0  3.961795  0
C  C81  1  0.72166124  0.79961107  0.85199368  1  -0.028534  0  -0.06553  -0.010965  0  3.961703  0
C  C82  1  0.77833504  0.20038914  0.35199436  1  -0.028539  0  -0.065573  -0.010949  0  3.961603  0
C  C83  1  0.27833219  0.29961381  0.64800571  1  -0.028467  0  -0.06561  -0.010952  0  3.961727  0
C  C84  1  0.28831565  0.64132570  0.27966667  1  0.412413  0  0.047153  0.092043  0  3.949655  0
C  C85  1  0.78830306  0.85867229  0.72033139  1  0.412638  0  0.047162  0.092049  0  3.949631  0
C  C86  1  0.71169728  0.14132777  0.22033157  1  0.412861  0  0.047107  0.092087  0  3.949656  0
C  C87  1  0.21168341  0.35867458  0.77966624  1  0.412339  0  0.047105  0.091966  0  3.949667  0
C  C88  1  0.20105935  0.26538086  0.21640985  1  0.256537  0  -0.053673  -0.102389  0  3.898559  0
C  C89  1  0.70106005  0.23461935  0.78358858  1  0.256559  0  -0.053675  -0.102366  0  3.898452  0
C  C90  1  0.79893696  0.76537935  0.28358969  1  0.256532  0  -0.053743  -0.102594  0  3.89865  0
C  C91  1  0.29893773  0.73462221  0.71641075  1  0.256538  0  -0.0537  -0.102512  0  3.898535  0
C  C92  1  0.25481540  0.22009150  0.29580537  1  0.534722  0  0.12724  0.234038  0  3.92704  0
C  C93  1  0.75481933  0.27990862  0.70419294  1  0.534715  0  0.127177  0.233935  0  3.927098  0
C  C94  1  0.74518250  0.72008927  0.20419414  1  0.534709  0  0.127149  0.233976  0  3.92709  0
C  C95  1  0.24518216  0.77991023  0.79580763  1  0.53472  0  0.12719  0.233999  0  3.927174  0
C  C96  1  0.26653669  0.12068958  0.30551004  1  -0.058198  0  -0.082687  -0.1702  0  3.933629  0
C  C97  1  0.76653750  0.37931052  0.69448825  1  -0.058164  0  -0.082674  -0.17017  0  3.933597  0
C  C98  1  0.73346179  0.62068735  0.19448878  1  -0.058416  0  -0.082615  -0.170148  0  3.933592  0
C  C99  1  0.23346077  0.87931145  0.80551361  1  -0.058258  0  -0.082696  -0.170221  0  3.933783  0
C  C100  1  0.31566497  0.08335487  0.37996684  1  -0.052973  0  -0.061092  -0.009295  0  3.943047  0
C  C101  1  0.81566503  0.41664514  0.62003073  1  -0.052982  0  -0.061199  -0.009402  0  3.943251  0
C  C102  1  0.68433770  0.58335192  0.12003134  1  -0.052793  0  -0.061145  -0.009314  0  3.943045  0
C  C103  1  0.18433169  0.91664481  0.87997056  1  -0.052666  0  -0.061205  -0.009546  0  3.943302  0
C  C104  1  0.35302430  0.14656174  0.44294376  1  -0.065661  0  -0.086649  -0.138808  0  3.990949  0
C  C105  1  0.85302275  0.35343821  0.55705434  1  -0.065234  0  -0.086633  -0.138865  0  3.99108  0
C  C106  1  0.64697800  0.64655950  0.05705508  1  -0.065238  0  -0.086684  -0.138855  0  3.991041  0
C  C107  1  0.14697434  0.85343730  0.94294690  1  -0.065648  0  -0.08657  -0.138648  0  3.991048  0
C  C108  1  0.33675603  0.24432339  0.42899421  1  0.534385  0  0.047249  0.092247  0  3.960732  0
C  C109  1  0.83675491  0.25567730  0.57100452  1  0.534356  0  0.047232  0.092255  0  3.960749  0
C  C110  1  0.66324835  0.74432114  0.07100471  1  0.534371  0  0.047226  0.092242  0  3.960843  0
C  C111  1  0.16324672  0.75567635  0.92899482  1  0.534436  0  0.047202  0.092133  0  3.960782  0
C  C112  1  0.87262298  0.46682500  0.36302780  1  0.724289  0  0.076026  0.128828  0  4.191128  0
C  C113  1  0.37262709  0.03317707  0.63697145  1  0.724415  0  0.076053  0.128859  0  4.191077  0
C  C114  1  0.12738011  0.96681945  0.13697251  1  0.724317  0  0.076071  0.128829  0  4.191004  0
C  C115  1  0.62737452  0.53317738  0.86302710  1  0.724296  0  0.075959  0.128695  0  4.191231  0
C  C116  1  0.67812004  0.47113062  0.36001376  1  0.799249  0  0.077066  0.139512  0  4.180102  0
C  C117  1  0.17812282  0.02887179  0.63998773  1  0.798764  0  0.077148  0.139607  0  4.179903  0
C  C118  1  0.32188170  0.97112617  0.13998777  1  0.798932  0  0.077073  0.139552  0  4.179966  0
C  C119  1  0.82188013  0.52887104  0.86001262  1  0.799275  0  0.07712  0.139592  0  4.179926  0
C  C120  1  0.67761102  0.54450335  0.42475390  1  0.829346  0  0.083487  0.14215  0  4.188475  0
C  C121  1  0.17761466  0.95549697  0.57524982  1  0.829294  0  0.083423  0.142019  0  4.188324  0
C  C122  1  0.32238923  0.04450162  0.07525268  1  0.829115  0  0.083479  0.142057  0  4.188534  0
C  C123  1  0.82238714  0.45549982  0.92475270  1  0.829304  0  0.083459  0.142079  0  4.188397  0
C  C124  1  0.87374262  0.53973800  0.42838415  1  0.768948  0  0.085081  0.143035  0  4.187036  0
C  C125  1  0.37374626  0.96026342  0.57161612  1  0.768809  0  0.085117  0.14305  0  4.186887  0
C  C126  1  0.12626295  0.03973517  0.07161941  1  0.769172  0  0.08508  0.142961  0  4.186808  0
C  C127  1  0.62625683  0.46026446  0.92838460  1  0.768894  0  0.08508  0.143001  0  4.186864  0
N  N128  1  0.28796275  0.27995041  0.35732359  1  -1.261832  0  -0.322081  -0.259269  0  3.52919  0
N  N129  1  0.78796371  0.22004965  0.64267464  1  -1.261812  0  -0.322019  -0.259212  0  3.529252  0
N  N130  1  0.71203613  0.77994816  0.14267536  1  -1.261706  0  -0.322011  -0.259227  0  3.529231  0
N  N131  1  0.21204078  0.72004996  0.85732527  1  -1.261825  0  -0.322057  -0.259222  0  3.529284  0
N  N132  1  0.27139467  0.36287492  0.20944795  1  -1.088119  0  -0.472519  -0.297457  0  3.518507  0
N  N133  1  0.77139321  0.13712373  0.79055093  1  -1.088148  0  -0.472529  -0.297424  0  3.518532  0
N  N134  1  0.72860638  0.86287497  0.29055047  1  -1.088052  0  -0.47254  -0.297425  0  3.51858  0
N  N135  1  0.22860381  0.63712670  0.70944832  1  -1.088035  0  -0.472474  -0.297407  0  3.518396  0
N  N136  1  0.25763766  0.55061717  0.25593590  1  -1.238007  0  -0.326102  -0.274827  0  3.543234  0
N  N137  1  0.75763092  0.94938087  0.74406282  1  -1.238157  0  -0.326072  -0.274808  0  3.543342  0
N  N138  1  0.74237049  0.05061850  0.24406226  1  -1.238182  0  -0.326087  -0.274834  0  3.5432  0
N  N139  1  0.24236429  0.44938451  0.75593608  1  -1.238023  0  -0.326071  -0.274796  0  3.543172  0
O  O140  1  0.98602169  0.41698693  0.32586180  1  -1.189175  0  -0.312385  -0.442389  0  2.393426  0
O  O141  1  0.48602644  0.08301637  0.67413600  1  -1.189249  0  -0.312431  -0.442463  0  2.393483  0
O  O142  1  0.01398169  0.91698162  0.17413847  1  -1.18918  0  -0.312388  -0.442393  0  2.393382  0
O  O143  1  0.51397752  0.58301253  0.82586139  1  -1.189235  0  -0.312333  -0.442305  0  2.393506  0
O  O144  1  0.56351840  0.42711224  0.31847977  1  -1.189961  0  -0.315928  -0.45464  0  2.403444  0
O  O145  1  0.06351916  0.07288749  0.68152318  1  -1.189586  0  -0.315926  -0.454584  0  2.403366  0
O  O146  1  0.43648757  0.92711266  0.18152472  1  -1.18971  0  -0.315889  -0.454514  0  2.403298  0
O  O147  1  0.93648222  0.57288937  0.81847722  1  -1.190059  0  -0.315952  -0.45463  0  2.403326  0
O  O148  1  0.56050083  0.58962931  0.46305905  1  -1.171964  0  -0.31989  -0.438275  0  2.242289  0
O  O149  1  0.06050513  0.91036763  0.53694553  1  -1.171876  0  -0.319896  -0.438261  0  2.242114  0
O  O150  1  0.43949783  0.08963164  0.03694757  1  -1.1718  0  -0.319941  -0.438272  0  2.242285  0
O  O151  1  0.93949560  0.41037462  0.96305936  1  -1.171855  0  -0.31988  -0.438238  0  2.242247  0
O  O152  1  0.99019670  0.57743913  0.47230776  1  -1.165877  0  -0.317949  -0.432001  0  2.232508  0
O  O153  1  0.49019970  0.92256496  0.52768925  1  -1.165837  0  -0.318003  -0.432022  0  2.232333  0
O  O154  1  0.00980733  0.07743071  0.02769102  1  -1.166092  0  -0.317991  -0.431963  0  2.232302  0
O  O155  1  0.50980228  0.42256625  0.97230963  1  -1.165856  0  -0.317972  -0.431966  0  2.232321  0
O  O156  1  0.28055989  0.48668960  0.44347354  1  -1.307786  0  -0.582554  -0.758116  0  2.198288  0
O  O157  1  0.78056695  0.01330833  0.55652592  1  -1.307718  0  -0.582599  -0.758199  0  2.198284  0
O  O158  1  0.71943778  0.98669009  0.05652679  1  -1.307682  0  -0.582567  -0.758101  0  2.19832  0
O  O159  1  0.21943609  0.51331231  0.94347442  1  -1.307786  0  -0.582552  -0.758137  0  2.198348  0
