# generated using pymatgen
data_CdH10C7SN2(ClO)2
_symmetry_space_group_name_H-M   'P 1'
_cell_length_a   7.19347863
_cell_length_b   9.25087430
_cell_length_c   17.24803297
_cell_angle_alpha   89.99986689
_cell_angle_beta   95.89520967
_cell_angle_gamma   89.99981312
_symmetry_Int_Tables_number   1
_chemical_formula_structural   CdH10C7SN2(ClO)2
_chemical_formula_sum   'Cd4 H40 C28 S4 N8 Cl8 O8'
_cell_volume   1141.71684860
_cell_formula_units_Z   4
loop_
 _symmetry_equiv_pos_site_id
 _symmetry_equiv_pos_as_xyz
  1  'x, y, z'
loop_
 _atom_site_type_symbol
 _atom_site_label
 _atom_site_symmetry_multiplicity
 _atom_site_fract_x
 _atom_site_fract_y
 _atom_site_fract_z
 _atom_site_occupancy
 _atom_site_pbe_bader_spin_density
 _atom_site_pbe_cm5_charge
 _atom_site_pbe_ddec_charge
 _atom_site_pbe_ddec_spin_density
 _atom_site_pbe_ddec_sum_bond_order
 _atom_site_pbe_magmom
Cd  Cd0  1  0.90087766  0.67203623  0.28106996  1  0  0.609441  0.844996  0  2.298412  0
Cd  Cd1  1  0.59912043  0.17204292  0.71893061  1  0  0.609422  0.84497  0  2.298371  0
Cd  Cd2  1  0.09912248  0.32795643  0.71893023  1  0  0.609435  0.844956  0  2.298332  0
Cd  Cd3  1  0.40087672  0.82795515  0.28106718  1  0  0.609434  0.844942  0  2.29839  0
H  H4  1  0.76968568  0.60260046  0.43643203  1  0  0.273261  0.296195  0  1.019756  0
H  H5  1  0.73031149  0.10260316  0.56357091  1  0  0.273248  0.296156  0  1.019844  0
H  H6  1  0.23031282  0.39739869  0.56356521  1  0  0.273273  0.296212  0  1.019626  0
H  H7  1  0.26968589  0.89739707  0.43642978  1  0  0.273229  0.296121  0  1.019862  0
H  H8  1  0.78656741  0.46398959  0.50679957  1  0  0.278852  0.306252  0  0.995566  0
H  H9  1  0.71343109  0.96399003  0.49320354  1  0  0.278868  0.306315  0  0.995483  0
H  H10  1  0.21342993  0.53601496  0.49320055  1  0  0.278845  0.306241  0  0.995666  0
H  H11  1  0.28656890  0.03601236  0.50679491  1  0  0.278823  0.306255  0  0.995518  0
H  H12  1  0.93100924  0.07942729  0.30040111  1  0  0.098286  0.154513  0  1.040905  0
H  H13  1  0.56898822  0.57943152  0.69960420  1  0  0.098351  0.154591  0  1.040956  0
H  H14  1  0.06899276  0.92056645  0.69960494  1  0  0.098339  0.154611  0  1.040894  0
H  H15  1  0.43101293  0.42056114  0.30039139  1  0  0.098365  0.154653  0  1.04087  0
H  H16  1  0.75504584  0.35726211  0.16770014  1  0  0.109887  0.141759  0  0.980957  0
H  H17  1  0.74495325  0.85726310  0.83230486  1  0  0.109878  0.141689  0  0.981084  0
H  H18  1  0.24496421  0.64272731  0.83230208  1  0  0.109839  0.141664  0  0.981117  0
H  H19  1  0.25503827  0.14272956  0.16769218  1  0  0.109898  0.141693  0  0.981268  0
H  H20  1  0.91356691  0.21072222  0.17128994  1  0  0.111007  0.141076  0  0.991256  0
H  H21  1  0.58642567  0.71072799  0.82871332  1  0  0.111023  0.141041  0  0.99129  0
H  H22  1  0.08643904  0.78926612  0.82871332  1  0  0.111025  0.141012  0  0.991277  0
H  H23  1  0.41356720  0.28926792  0.17128319  1  0  0.111028  0.141014  0  0.99126  0
H  H24  1  0.36043812  0.45614127  0.95411495  1  0  0.089239  0.1347  0  1.012882  0
H  H25  1  0.13955687  0.95612987  0.04588857  1  0  0.08925  0.13476  0  1.012819  0
H  H26  1  0.63956235  0.54388382  0.04588932  1  0  0.089283  0.13478  0  1.012728  0
H  H27  1  0.86044154  0.04388225  0.95410752  1  0  0.089272  0.134788  0  1.012797  0
H  H28  1  0.15930106  0.34530447  0.94744589  1  0  0.089482  0.129666  0  1.015691  0
H  H29  1  0.34069834  0.84529681  0.05255500  1  0  0.089484  0.129691  0  1.015673  0
H  H30  1  0.84070182  0.65471414  0.05255381  1  0  0.089493  0.129695  0  1.015799  0
H  H31  1  0.65929630  0.15471206  0.94744620  1  0  0.089464  0.129675  0  1.015723  0
H  H32  1  0.36432235  0.29243562  0.00732169  1  0  0.087129  0.12372  0  1.035306  0
H  H33  1  0.13567290  0.79242754  0.99267681  1  0  0.087132  0.12376  0  1.035326  0
H  H34  1  0.63567615  0.70758514  0.99267555  1  0  0.087117  0.123754  0  1.035315  0
H  H35  1  0.86432435  0.20758458  0.00732214  1  0  0.087102  0.123709  0  1.035352  0
H  H36  1  0.32786288  0.49956832  0.09871589  1  0  0.093698  0.071805  0  1.033082  0
H  H37  1  0.17213770  0.99957244  0.90129005  1  0  0.093675  0.071813  0  1.033027  0
H  H38  1  0.67213348  0.50043623  0.90128941  1  0  0.093671  0.071773  0  1.033042  0
H  H39  1  0.82787352  0.00043427  0.09870930  1  0  0.093657  0.071795  0  1.033034  0
H  H40  1  0.13329259  0.56451827  0.03785505  1  0  0.103432  0.068165  0  1.01483  0
H  H41  1  0.36670417  0.06451772  0.96215075  1  0  0.10341  0.068119  0  1.014868  0
H  H42  1  0.86669968  0.43548737  0.96215130  1  0  0.103433  0.068136  0  1.014892  0
H  H43  1  0.63330848  0.93548468  0.03784923  1  0  0.103424  0.068167  0  1.014882  0
C  C44  1  0.89552232  0.31402899  0.28033485  1  0  0.070482  0.24878  0  4.056065  0
C  C45  1  0.60447546  0.81403087  0.71966901  1  0  0.070401  0.248688  0  4.056079  0
C  C46  1  0.10447237  0.68596583  0.71966692  1  0  0.070432  0.248696  0  4.056102  0
C  C47  1  0.39552015  0.18596395  0.28032700  1  0  0.070372  0.248679  0  4.056061  0
C  C48  1  0.84239451  0.40274799  0.39728346  1  0  0.23022  0.376397  0  4.132044  0
C  C49  1  0.65760281  0.90275565  0.60271912  1  0  0.230275  0.376497  0  4.131947  0
C  C50  1  0.15760721  0.59724900  0.60271910  1  0  0.230247  0.376429  0  4.131913  0
C  C51  1  0.34239713  0.09724133  0.39727875  1  0  0.230273  0.376439  0  4.131951  0
C  C52  1  0.90742587  0.18792080  0.32140316  1  0  -0.121915  -0.297619  0  3.933177  0
C  C53  1  0.59257248  0.68792182  0.67860145  1  0  -0.121997  -0.297749  0  3.933132  0
C  C54  1  0.09257185  0.81207618  0.67860161  1  0  -0.122019  -0.297801  0  3.933119  0
C  C55  1  0.40742862  0.31207300  0.32139355  1  0  -0.121978  -0.297803  0  3.933094  0
C  C56  1  0.89384608  0.31987404  0.19353068  1  0  -0.151942  -0.364876  0  3.948131  0
C  C57  1  0.60615177  0.81987877  0.80647434  1  0  -0.151861  -0.364629  0  3.948316  0
C  C58  1  0.10616132  0.68011537  0.80647321  1  0  -0.151845  -0.364632  0  3.948229  0
C  C59  1  0.39384105  0.18011497  0.19352159  1  0  -0.15188  -0.36466  0  3.948409  0
C  C60  1  0.27652748  0.38494479  0.98760732  1  0  -0.251588  -0.401271  0  3.943521  0
C  C61  1  0.22346883  0.88493872  0.01239169  1  0  -0.251654  -0.401493  0  3.943573  0
C  C62  1  0.72347117  0.61507165  0.01239168  1  0  -0.251666  -0.401529  0  3.943507  0
C  C63  1  0.77653391  0.11507123  0.98760626  1  0  -0.251607  -0.401407  0  3.943433  0
C  C64  1  0.21237940  0.46656089  0.05570601  1  0  -0.072934  0.073335  0  3.857763  0
C  C65  1  0.28761838  0.96656774  0.94429816  1  0  -0.072837  0.073488  0  3.857468  0
C  C66  1  0.78761682  0.53343826  0.94429755  1  0  -0.072912  0.073468  0  3.857555  0
C  C67  1  0.71239139  0.03343898  0.05570058  1  0  -0.072888  0.073337  0  3.857575  0
C  C68  1  0.03027190  0.42095116  0.16115442  1  0  0.243982  0.587012  0  4.028427  0
C  C69  1  0.46972612  0.92095906  0.83885039  1  0  0.244023  0.586978  0  4.028402  0
C  C70  1  0.96973280  0.57902961  0.83885055  1  0  0.243963  0.586918  0  4.028477  0
C  C71  1  0.53027098  0.07902711  0.16114682  1  0  0.243993  0.586898  0  4.028487  0
S  S72  1  0.87321897  0.21911985  0.41752540  1  0  0.079852  0.100788  0  2.911902  0
S  S73  1  0.62678339  0.71912337  0.58247872  1  0  0.079884  0.100845  0  2.911603  0
S  S74  1  0.12678139  0.78087930  0.58247771  1  0  0.079869  0.100836  0  2.911664  0
S  S75  1  0.37321781  0.28087578  0.41751745  1  0  0.07985  0.100822  0  2.911706  0
N  N76  1  0.86281688  0.43640981  0.32355659  1  0  -0.372198  -0.423322  0  3.441099  0
N  N77  1  0.63718309  0.93641179  0.67644602  1  0  -0.372173  -0.423367  0  3.441137  0
N  N78  1  0.13718330  0.56358718  0.67644419  1  0  -0.37219  -0.423332  0  3.441017  0
N  N79  1  0.36281127  0.06358519  0.32355168  1  0  -0.372189  -0.423311  0  3.44101  0
N  N80  1  0.79808498  0.49734655  0.45129072  1  0  -0.585421  -0.621026  0  3.440997  0
N  N81  1  0.70191334  0.99734893  0.54871177  1  0  -0.58551  -0.621162  0  3.441015  0
N  N82  1  0.20191087  0.50265368  0.54870820  1  0  -0.58547  -0.62107  0  3.440871  0
N  N83  1  0.29808670  0.00265021  0.45128726  1  0  -0.585433  -0.62105  0  3.441091  0
Cl  Cl84  1  0.05851762  0.87129440  0.20536682  1  0  -0.286766  -0.478258  0  1.268517  0
Cl  Cl85  1  0.44147888  0.37129980  0.79463395  1  0  -0.286753  -0.478261  0  1.268528  0
Cl  Cl86  1  0.94148083  0.12869394  0.79462985  1  0  -0.286764  -0.478247  0  1.268516  0
Cl  Cl87  1  0.55852144  0.62869286  0.20536857  1  0  -0.28676  -0.478263  0  1.26856  0
Cl  Cl88  1  0.72823964  0.82567469  0.37946382  1  0  -0.283902  -0.494275  0  1.280323  0
Cl  Cl89  1  0.77175637  0.32567811  0.62053591  1  0  -0.283882  -0.494237  0  1.280322  0
Cl  Cl90  1  0.27175751  0.17432445  0.62053397  1  0  -0.283887  -0.494228  0  1.280262  0
Cl  Cl91  1  0.22824241  0.67432320  0.37946482  1  0  -0.283885  -0.494224  0  1.280288  0
O  O92  1  0.08010453  0.53865990  0.18893300  1  0  -0.27351  -0.47072  0  2.324597  0
O  O93  1  0.41990365  0.03866961  0.81107490  1  0  -0.273552  -0.470711  0  2.324544  0
O  O94  1  0.91991754  0.46133492  0.81108001  1  0  -0.273511  -0.47064  0  2.32493  0
O  O95  1  0.58008619  0.96133061  0.18891862  1  0  -0.27353  -0.470573  0  2.324923  0
O  O96  1  0.08772033  0.37079273  0.09445563  1  0  -0.168059  -0.247757  0  2.492711  0
O  O97  1  0.41227496  0.87079400  0.90554742  1  0  -0.168078  -0.247778  0  2.492433  0
O  O98  1  0.91227719  0.62920966  0.90554681  1  0  -0.16803  -0.247709  0  2.492393  0
O  O99  1  0.58773062  0.12920514  0.09445119  1  0  -0.168047  -0.247741  0  2.492354  0
