# generated using pymatgen
data_KH10C10(NO3)3
_symmetry_space_group_name_H-M   'P 1'
_cell_length_a   7.15273913
_cell_length_b   10.63939760
_cell_length_c   18.04660012
_cell_angle_alpha   89.99989754
_cell_angle_beta   93.78714188
_cell_angle_gamma   89.99987142
_symmetry_Int_Tables_number   1
_chemical_formula_structural   KH10C10(NO3)3
_chemical_formula_sum   'K4 H40 C40 N12 O36'
_cell_volume   1370.36236003
_cell_formula_units_Z   4
loop_
 _symmetry_equiv_pos_site_id
 _symmetry_equiv_pos_as_xyz
  1  'x, y, z'
loop_
 _atom_site_type_symbol
 _atom_site_label
 _atom_site_symmetry_multiplicity
 _atom_site_fract_x
 _atom_site_fract_y
 _atom_site_fract_z
 _atom_site_occupancy
 _atom_site_hle17_bader_spin_density
 _atom_site_hle17_ddec_charge
 _atom_site_hle17_ddec_spin_density
 _atom_site_hle17_ddec_sum_bond_order
 _atom_site_hle17_magmom
 _atom_site_hse06_10hf_bader_spin_density
 _atom_site_hse06_10hf_ddec_charge
 _atom_site_hse06_10hf_ddec_spin_density
 _atom_site_hse06_10hf_ddec_sum_bond_order
 _atom_site_hse06_10hf_magmom
 _atom_site_hse06_bader_spin_density
 _atom_site_hse06_ddec_charge
 _atom_site_hse06_ddec_spin_density
 _atom_site_hse06_ddec_sum_bond_order
 _atom_site_hse06_magmom
 _atom_site_pbe_bader_spin_density
 _atom_site_pbe_cm5_charge
 _atom_site_pbe_ddec_charge
 _atom_site_pbe_ddec_spin_density
 _atom_site_pbe_ddec_sum_bond_order
 _atom_site_pbe_magmom
K  K0  1  0.30100921  0.71776384  0.17054568  1  0  0.902438  0  0.501082  0  0  0.835432  0  0.704627  0  0  0.853666  0  0.679022  0  0  0.823482  0.821947  0  0.72298  0
K  K1  1  0.69898987  0.21777164  0.32945609  1  0  0.90245  0  0.501117  0  0  0.835419  0  0.704678  0  0  0.853659  0  0.679066  0  0  0.823493  0.821934  0  0.723029  0
K  K2  1  0.69898646  0.28223224  0.82946245  1  0  0.902456  0  0.501103  0  0  0.835449  0  0.704597  0  0  0.853682  0  0.678992  0  0  0.82348  0.821957  0  0.722947  0
K  K3  1  0.30101143  0.78223007  0.67054277  1  0  0.902447  0  0.501096  0  0  0.835417  0  0.70467  0  0  0.853656  0  0.679061  0  0  0.823508  0.821935  0  0.723021  0
H  H4  1  0.32342726  0.50976199  0.42734793  1  0  0.147101  0  0.926077  0  0  0.151557  0  0.988558  0  0  0.15624  0  0.982427  0  0  0.129601  0.148033  0  0.993127  0
H  H5  1  0.67656976  0.00976779  0.07265234  1  0  0.147092  0  0.925956  0  0  0.151505  0  0.988461  0  0  0.156188  0  0.98233  0  0  0.129584  0.147983  0  0.993032  0
H  H6  1  0.67657404  0.49023596  0.57265370  1  0  0.147078  0  0.925975  0  0  0.151493  0  0.988482  0  0  0.156175  0  0.982352  0  0  0.129588  0.147964  0  0.993056  0
H  H7  1  0.32342594  0.99023392  0.92734804  1  0  0.147075  0  0.925943  0  0  0.151514  0  0.988454  0  0  0.156196  0  0.982324  0  0  0.129585  0.147989  0  0.993028  0
H  H8  1  0.79358686  0.69970094  0.44119378  1  0  0.130371  0  0.957475  0  0  0.135588  0  1.02401  0  0  0.139336  0  1.019214  0  0  0.12324  0.132771  0  1.0275  0
H  H9  1  0.20641789  0.19970373  0.05880705  1  0  0.130387  0  0.95738  0  0  0.135537  0  1.023969  0  0  0.139284  0  1.019172  0  0  0.123237  0.132735  0  1.027444  0
H  H10  1  0.20641023  0.30029701  0.55880774  1  0  0.130366  0  0.95761  0  0  0.135548  0  1.02415  0  0  0.139295  0  1.019356  0  0  0.123237  0.132748  0  1.027618  0
H  H11  1  0.79358202  0.80029892  0.94119067  1  0  0.130357  0  0.957562  0  0  0.135555  0  1.024095  0  0  0.139301  0  1.019303  0  0  0.123241  0.132751  0  1.02757  0
H  H12  1  0.77939735  0.60235098  0.13673399  1  0  0.075051  0  0.93658  0  0  0.083056  0  1.0053  0  0  0.084134  0  1.003997  0  0  0.107942  0.082292  0  1.006263  0
H  H13  1  0.22060075  0.10235094  0.36326511  1  0  0.075053  0  0.936684  0  0  0.083071  0  1.005327  0  0  0.084149  0  1.004024  0  0  0.107946  0.082306  0  1.006293  0
H  H14  1  0.22060815  0.39765638  0.86326665  1  0  0.075109  0  0.936689  0  0  0.083106  0  1.00532  0  0  0.084192  0  1.004022  0  0  0.107971  0.082343  0  1.006286  0
H  H15  1  0.77939916  0.89764607  0.63673317  1  0  0.075027  0  0.936615  0  0  0.083028  0  1.005333  0  0  0.084107  0  1.004029  0  0  0.107929  0.082264  0  1.006294  0
H  H16  1  0.99917022  0.53152258  0.11762057  1  0  0.050096  0  0.93791  0  0  0.062417  0  1.007734  0  0  0.062489  0  1.00699  0  0  0.100761  0.062288  0  1.008366  0
H  H17  1  0.00082813  0.03152188  0.38237916  1  0  0.050119  0  0.937937  0  0  0.062444  0  1.00775  0  0  0.062517  0  1.007001  0  0  0.100759  0.062318  0  1.008378  0
H  H18  1  0.00083669  0.46848477  0.88238010  1  0  0.050142  0  0.938001  0  0  0.062442  0  1.007796  0  0  0.062522  0  1.007054  0  0  0.100754  0.062317  0  1.008423  0
H  H19  1  0.99916897  0.96847325  0.61762015  1  0  0.050089  0  0.937971  0  0  0.062414  0  1.007772  0  0  0.062477  0  1.007038  0  0  0.100739  0.062286  0  1.008406  0
H  H20  1  0.90274582  0.33611396  0.16386166  1  0  0.058295  0  0.938542  0  0  0.068418  0  1.008719  0  0  0.067974  0  1.009572  0  0  0.097691  0.068703  0  1.008209  0
H  H21  1  0.09725285  0.83611254  0.33613666  1  0  0.058281  0  0.938516  0  0  0.068411  0  1.008725  0  0  0.067966  0  1.009578  0  0  0.097683  0.068699  0  1.008212  0
H  H22  1  0.09725269  0.66389151  0.83613436  1  0  0.058299  0  0.938484  0  0  0.06845  0  1.008685  0  0  0.068006  0  1.009538  0  0  0.097715  0.068739  0  1.00817  0
H  H23  1  0.90274006  0.16388353  0.66385755  1  0  0.058279  0  0.938568  0  0  0.068448  0  1.00873  0  0  0.068005  0  1.00958  0  0  0.097708  0.068729  0  1.008215  0
H  H24  1  0.67322778  0.40285851  0.17223225  1  0  0.076543  0  0.930018  0  0  0.084928  0  0.999596  0  0  0.08615  0  0.997537  0  0  0.110041  0.083997  0  1.001193  0
H  H25  1  0.32677205  0.90285770  0.32776879  1  0  0.076522  0  0.930063  0  0  0.084912  0  0.999659  0  0  0.086131  0  0.997605  0  0  0.110034  0.083981  0  1.001255  0
H  H26  1  0.32677353  0.59714791  0.82776606  1  0  0.076468  0  0.930042  0  0  0.084879  0  0.999645  0  0  0.086094  0  0.997593  0  0  0.110022  0.083948  0  1.001244  0
H  H27  1  0.67322505  0.09713743  0.67222996  1  0  0.076558  0  0.929951  0  0  0.084959  0  0.999538  0  0  0.086173  0  0.997489  0  0  0.11005  0.084026  0  1.001131  0
H  H28  1  0.59035373  0.71630888  0.01894243  1  0  0.079971  0  0.915907  0  0  0.096511  0  0.975067  0  0  0.096812  0  0.974155  0  0  0.115438  0.096219  0  0.97582  0
H  H29  1  0.40964676  0.21630914  0.48105939  1  0  0.080015  0  0.915883  0  0  0.096534  0  0.975018  0  0  0.096841  0  0.974105  0  0  0.115459  0.096243  0  0.97577  0
H  H30  1  0.40964617  0.28369378  0.98105917  1  0  0.080015  0  0.915926  0  0  0.096539  0  0.975054  0  0  0.096848  0  0.974139  0  0  0.115452  0.096246  0  0.97581  0
H  H31  1  0.59035595  0.78369257  0.51894062  1  0  0.080018  0  0.915872  0  0  0.096542  0  0.975028  0  0  0.096848  0  0.974113  0  0  0.115461  0.096251  0  0.975781  0
H  H32  1  0.39758270  0.65995760  0.96014935  1  0  0.057169  0  0.92493  0  0  0.071809  0  0.990182  0  0  0.071918  0  0.990296  0  0  0.100584  0.071648  0  0.990261  0
H  H33  1  0.60242125  0.15995515  0.53985062  1  0  0.057254  0  0.924906  0  0  0.071847  0  0.990141  0  0  0.07196  0  0.990257  0  0  0.100598  0.071689  0  0.990217  0
H  H34  1  0.60241860  0.34004317  0.03985228  1  0  0.057244  0  0.924949  0  0  0.07184  0  0.990193  0  0  0.071952  0  0.990311  0  0  0.100594  0.071681  0  0.990268  0
H  H35  1  0.39758006  0.84004280  0.46014824  1  0  0.057161  0  0.924945  0  0  0.071796  0  0.990179  0  0  0.071907  0  0.990295  0  0  0.100569  0.071638  0  0.990258  0
H  H36  1  0.22713500  0.47631062  0.00530998  1  0  0.049868  0  0.925821  0  0  0.06397  0  0.993964  0  0  0.064818  0  0.992555  0  0  0.098488  0.063252  0  0.995117  0
H  H37  1  0.77286598  0.97630958  0.49469102  1  0  0.049872  0  0.925764  0  0  0.063996  0  0.993902  0  0  0.064843  0  0.99249  0  0  0.098508  0.063279  0  0.995054  0
H  H38  1  0.77286770  0.52369297  0.99469225  1  0  0.049852  0  0.925782  0  0  0.063982  0  0.993923  0  0  0.064828  0  0.992512  0  0  0.098493  0.063263  0  0.995073  0
H  H39  1  0.22713392  0.02369213  0.50530947  1  0  0.049878  0  0.925808  0  0  0.063995  0  0.993945  0  0  0.064841  0  0.992534  0  0  0.098502  0.063274  0  0.995101  0
H  H40  1  0.31374775  0.41121181  0.09305042  1  0  0.080629  0  0.93674  0  0  0.095212  0  1.001149  0  0  0.095513  0  1.00079  0  0  0.112967  0.094873  0  1.001613  0
H  H41  1  0.68625345  0.91121117  0.40695009  1  0  0.080638  0  0.936715  0  0  0.095224  0  1.001163  0  0  0.09553  0  1.000789  0  0  0.11298  0.094885  0  1.00162  0
H  H42  1  0.68625495  0.58879272  0.90695180  1  0  0.080604  0  0.93671  0  0  0.095207  0  1.001169  0  0  0.095518  0  1.000782  0  0  0.112995  0.094868  0  1.001628  0
H  H43  1  0.31374785  0.08878961  0.59304932  1  0  0.08063  0  0.936722  0  0  0.095222  0  1.00115  0  0  0.095535  0  1.000761  0  0  0.112986  0.094882  0  1.00161  0
C  C44  1  0.95021352  0.53008619  0.28941221  1  0  0.407049  0  3.667813  0  0  0.385976  0  3.921171  0  0  0.403741  0  3.925396  0  0  0.175136  0.373665  0  3.918782  0
C  C45  1  0.04978904  0.03008969  0.21058653  1  0  0.407446  0  3.666644  0  0  0.386012  0  3.92117  0  0  0.403775  0  3.925397  0  0  0.175187  0.373694  0  3.918793  0
C  C46  1  0.04978358  0.46991271  0.71058820  1  0  0.407276  0  3.666888  0  0  0.385897  0  3.921298  0  0  0.403661  0  3.925522  0  0  0.175136  0.373584  0  3.918906  0
C  C47  1  0.95021227  0.96991390  0.78941178  1  0  0.407055  0  3.667845  0  0  0.386092  0  3.920961  0  0  0.403854  0  3.925185  0  0  0.175182  0.37376  0  3.918608  0
C  C48  1  0.13364249  0.49690065  0.33167105  1  0  -0.051148  0  3.569852  0  0  -0.082952  0  3.838736  0  0  -0.095465  0  3.859318  0  0  0.067018  -0.075561  0  3.825697  0
C  C49  1  0.86635282  0.99689764  0.16832867  1  0  -0.051084  0  3.569939  0  0  -0.082901  0  3.838726  0  0  -0.095413  0  3.859307  0  0  0.067008  -0.075503  0  3.825678  0
C  C50  1  0.86635461  0.50309918  0.66833048  1  0  -0.051131  0  3.570022  0  0  -0.082844  0  3.838715  0  0  -0.095355  0  3.859294  0  0  0.067047  -0.075455  0  3.825673  0
C  C51  1  0.13364289  0.00309938  0.83167004  1  0  -0.05114  0  3.56986  0  0  -0.082894  0  3.83863  0  0  -0.095406  0  3.85921  0  0  0.067053  -0.075503  0  3.825603  0
C  C52  1  0.18749910  0.53728437  0.40190626  1  0  -0.069655  0  3.711761  0  0  -0.113709  0  3.993181  0  0  -0.09931  0  4.003856  0  0  -0.061838  -0.122678  0  3.985935  0
C  C53  1  0.81250482  0.03728894  0.09809472  1  0  -0.069694  0  3.711949  0  0  -0.113738  0  3.993173  0  0  -0.099339  0  4.003849  0  0  -0.061855  -0.122704  0  3.985928  0
C  C54  1  0.81250220  0.46271265  0.59809537  1  0  -0.069599  0  3.711967  0  0  -0.113689  0  3.993184  0  0  -0.09929  0  4.003858  0  0  -0.061841  -0.122647  0  3.985926  0
C  C55  1  0.18749788  0.96271183  0.90190584  1  0  -0.069615  0  3.711611  0  0  -0.113735  0  3.993027  0  0  -0.099335  0  4.003704  0  0  -0.061853  -0.122699  0  3.985781  0
C  C56  1  0.06837643  0.61535743  0.44034424  1  0  0.036125  0  3.760444  0  0  0.015089  0  4.031499  0  0  -0.000955  0  4.057463  0  0  0.059695  0.025178  0  4.013963  0
C  C57  1  0.93161601  0.11536288  0.05965580  1  0  0.036043  0  3.760632  0  0  0.015109  0  4.03139  0  0  -0.000934  0  4.057352  0  0  0.059739  0.025199  0  4.013863  0
C  C58  1  0.93161506  0.38463865  0.55965769  1  0  0.03606  0  3.760777  0  0  0.015147  0  4.031531  0  0  -0.000896  0  4.057494  0  0  0.059759  0.025236  0  4.013997  0
C  C59  1  0.06837829  0.88463789  0.94034232  1  0  0.036071  0  3.760502  0  0  0.015183  0  4.031436  0  0  -0.000862  0  4.057402  0  0  0.059745  0.025276  0  4.013901  0
C  C60  1  0.88875804  0.64553150  0.40938197  1  0  -0.08246  0  3.731543  0  0  -0.124625  0  4.006446  0  0  -0.110519  0  4.017634  0  0  -0.067673  -0.13341  0  3.998741  0
C  C61  1  0.11124690  0.14553339  0.09062281  1  0  -0.081977  0  3.729564  0  0  -0.124617  0  4.006519  0  0  -0.11051  0  4.017707  0  0  -0.067714  -0.133408  0  3.998806  0
C  C62  1  0.11124466  0.35446364  0.59061970  1  0  -0.081992  0  3.729572  0  0  -0.124676  0  4.00651  0  0  -0.110569  0  4.0177  0  0  -0.067751  -0.133473  0  3.998789  0
C  C63  1  0.88875580  0.85446738  0.90937942  1  0  -0.082561  0  3.73166  0  0  -0.124723  0  4.00651  0  0  -0.110619  0  4.017696  0  0  -0.067753  -0.133514  0  3.998791  0
C  C64  1  0.82962742  0.60434698  0.33994253  1  0  -0.043721  0  3.556256  0  0  -0.064669  0  3.826557  0  0  -0.075958  0  3.845237  0  0  0.07078  -0.057826  0  3.81443  0
C  C65  1  0.17037487  0.10434952  0.16005667  1  0  -0.035174  0  3.56217  0  0  -0.064636  0  3.82707  0  0  -0.075928  0  3.845759  0  0  0.07081  -0.057795  0  3.814952  0
C  C66  1  0.17037668  0.39565003  0.66005862  1  0  -0.035179  0  3.561939  0  0  -0.064615  0  3.826773  0  0  -0.075909  0  3.845464  0  0  0.070817  -0.05777  0  3.814647  0
C  C67  1  0.82962364  0.89565595  0.83993935  1  0  -0.043551  0  3.556301  0  0  -0.064549  0  3.82659  0  0  -0.075834  0  3.845265  0  0  0.070829  -0.057702  0  3.814464  0
C  C68  1  0.89428323  0.54233148  0.15904380  1  0  0.070959  0  3.608603  0  0  0.009876  0  3.888594  0  0  0.017302  0  3.891071  0  0  -0.076283  0.004876  0  3.886728  0
C  C69  1  0.10571788  0.04233263  0.34095765  1  0  0.070941  0  3.608779  0  0  0.009866  0  3.888642  0  0  0.017296  0  3.891119  0  0  -0.076267  0.004873  0  3.886768  0
C  C70  1  0.10572227  0.45767117  0.84095960  1  0  0.070787  0  3.608857  0  0  0.009814  0  3.888613  0  0  0.017199  0  3.891138  0  0  -0.076284  0.004813  0  3.886752  0
C  C71  1  0.89428343  0.95766627  0.65904121  1  0  0.071002  0  3.608568  0  0  0.009958  0  3.88853  0  0  0.017386  0  3.891016  0  0  -0.07623  0.004952  0  3.886658  0
C  C72  1  0.82408396  0.41529141  0.18554509  1  0  0.068188  0  3.598971  0  0  0.008589  0  3.877269  0  0  0.016056  0  3.879912  0  0  -0.076841  0.003493  0  3.87539  0
C  C73  1  0.17591723  0.91529369  0.31445487  1  0  0.068219  0  3.599011  0  0  0.008561  0  3.877338  0  0  0.01603  0  3.879981  0  0  -0.07683  0.003468  0  3.875454  0
C  C74  1  0.17591595  0.58470937  0.81445263  1  0  0.06831  0  3.598954  0  0  0.008567  0  3.877337  0  0  0.016052  0  3.879989  0  0  -0.076863  0.003469  0  3.875463  0
C  C75  1  0.82408128  0.08470614  0.68554226  1  0  0.068171  0  3.598819  0  0  0.008464  0  3.877248  0  0  0.015939  0  3.87989  0  0  -0.07689  0.003387  0  3.875349  0
C  C76  1  0.51672513  0.63136373  0.99847099  1  0  0.045091  0  3.654496  0  0  -0.014472  0  3.930357  0  0  -0.007576  0  3.935437  0  0  -0.078484  -0.019187  0  3.926885  0
C  C77  1  0.48327752  0.13136251  0.50152953  1  0  0.044939  0  3.654591  0  0  -0.014504  0  3.930275  0  0  -0.007626  0  3.935377  0  0  -0.078511  -0.019216  0  3.926798  0
C  C78  1  0.48327757  0.36863705  0.00153068  1  0  0.044955  0  3.654677  0  0  -0.014521  0  3.930374  0  0  -0.007645  0  3.935479  0  0  -0.078517  -0.019235  0  3.926902  0
C  C79  1  0.51672379  0.86863826  0.49846989  1  0  0.045035  0  3.654624  0  0  -0.014466  0  3.930392  0  0  -0.007582  0  3.935487  0  0  -0.078483  -0.019184  0  3.926921  0
C  C80  1  0.35426458  0.45497656  0.04139767  1  0  0.037989  0  3.660118  0  0  -0.022563  0  3.935135  0  0  -0.016073  0  3.940205  0  0  -0.079222  -0.02694  0  3.931689  0
C  C81  1  0.64573227  0.95497770  0.45860268  1  0  0.037905  0  3.660185  0  0  -0.02267  0  3.935283  0  0  -0.016181  0  3.940358  0  0  -0.079309  -0.027046  0  3.931834  0
C  C82  1  0.64573812  0.54502422  0.95860456  1  0  0.038062  0  3.659954  0  0  -0.022568  0  3.935138  0  0  -0.016079  0  3.940208  0  0  -0.079298  -0.026945  0  3.931686  0
C  C83  1  0.35426344  0.04502308  0.54139603  1  0  0.03802  0  3.660012  0  0  -0.022575  0  3.935078  0  0  -0.01608  0  3.940153  0  0  -0.079256  -0.026947  0  3.931625  0
N  N84  1  0.26061481  0.41699007  0.29547830  1  0  0.49786  0  3.947169  0  0  0.555897  0  4.208244  0  0  0.579788  0  4.215066  0  0  0.042043  0.540076  0  4.203613  0
N  N85  1  0.73938919  0.91699184  0.20452118  1  0  0.49774  0  3.94733  0  0  0.555835  0  4.208266  0  0  0.579724  0  4.215095  0  0  0.042043  0.540013  0  4.203633  0
N  N86  1  0.73938930  0.58300695  0.70452341  1  0  0.497909  0  3.946964  0  0  0.55583  0  4.208135  0  0  0.57972  0  4.214962  0  0  0.041969  0.540006  0  4.203503  0
N  N87  1  0.26060932  0.08300612  0.79547595  1  0  0.498023  0  3.947326  0  0  0.556053  0  4.20838  0  0  0.579945  0  4.215208  0  0  0.042114  0.540226  0  4.203754  0
N  N88  1  0.12774367  0.66170482  0.51160529  1  0  0.457198  0  3.988308  0  0  0.515122  0  4.248052  0  0  0.535955  0  4.264226  0  0  0.009764  0.50138  0  4.236994  0
N  N89  1  0.87225746  0.16170813  0.98839627  1  0  0.457307  0  3.988375  0  0  0.515204  0  4.248049  0  0  0.536039  0  4.264221  0  0  0.009789  0.501455  0  4.237002  0
N  N90  1  0.87226323  0.33829219  0.48839594  1  0  0.457384  0  3.988334  0  0  0.515292  0  4.248006  0  0  0.536127  0  4.264175  0  0  0.009899  0.501549  0  4.236956  0
N  N91  1  0.12774524  0.83828795  0.01160429  1  0  0.457296  0  3.988166  0  0  0.514992  0  4.248164  0  0  0.535827  0  4.264336  0  0  0.009721  0.501245  0  4.237117  0
N  N92  1  0.64231445  0.63436202  0.31356515  1  0  0.526552  0  3.919595  0  0  0.549179  0  4.227825  0  0  0.573022  0  4.235574  0  0  0.034095  0.533406  0  4.222519  0
N  N93  1  0.35768354  0.13435668  0.18643391  1  0  0.497033  0  3.965741  0  0  0.549066  0  4.227923  0  0  0.572912  0  4.235669  0  0  0.034043  0.533286  0  4.222623  0
N  N94  1  0.35768405  0.36564345  0.68643474  1  0  0.497112  0  3.965621  0  0  0.549095  0  4.227847  0  0  0.572941  0  4.235597  0  0  0.034064  0.533314  0  4.222551  0
N  N95  1  0.64231497  0.86564034  0.81356599  1  0  0.526338  0  3.91973  0  0  0.548942  0  4.22799  0  0  0.572785  0  4.235742  0  0  0.033988  0.533167  0  4.222685  0
O  O96  1  0.98336337  0.60155929  0.22381739  1  0  -0.393132  0  2.201861  0  0  -0.340755  0  2.449297  0  0  -0.358004  0  2.448677  0  0  -0.266907  -0.328189  0  2.449371  0
O  O97  1  0.01663333  0.10155889  0.27618222  1  0  -0.39316  0  2.2018  0  0  -0.340781  0  2.449335  0  0  -0.358031  0  2.448712  0  0  -0.26692  -0.328215  0  2.449411  0
O  O98  1  0.01664073  0.39844242  0.77618432  1  0  -0.393065  0  2.201745  0  0  -0.340718  0  2.449196  0  0  -0.357954  0  2.448587  0  0  -0.266863  -0.32815  0  2.449272  0
O  O99  1  0.98336378  0.89844094  0.72381708  1  0  -0.393139  0  2.201832  0  0  -0.340796  0  2.449228  0  0  -0.358043  0  2.448604  0  0  -0.266891  -0.32822  0  2.449301  0
O  O100  1  0.85713949  0.41675939  0.26495915  1  0  -0.399123  0  2.250375  0  0  -0.345387  0  2.501401  0  0  -0.362459  0  2.50034  0  0  -0.285245  -0.332993  0  2.501806  0
O  O101  1  0.14286590  0.91676197  0.23504092  1  0  -0.399044  0  2.250102  0  0  -0.345368  0  2.501357  0  0  -0.362438  0  2.500293  0  0  -0.285238  -0.332976  0  2.501768  0
O  O102  1  0.14286321  0.58323857  0.73503975  1  0  -0.399014  0  2.250163  0  0  -0.345361  0  2.501432  0  0  -0.362432  0  2.500365  0  0  -0.285255  -0.33297  0  2.501843  0
O  O103  1  0.85713681  0.08324069  0.76495688  1  0  -0.399086  0  2.250197  0  0  -0.345395  0  2.501257  0  0  -0.362465  0  2.500192  0  0  -0.285247  -0.333002  0  2.501666  0
O  O104  1  0.39576234  0.37033031  0.33377639  1  0  -0.414219  0  1.775088  0  0  -0.410767  0  1.989731  0  0  -0.425206  0  1.984433  0  0  -0.214867  -0.400762  0  1.993284  0
O  O105  1  0.60423341  0.87033334  0.16622348  1  0  -0.414151  0  1.774987  0  0  -0.410727  0  1.989642  0  0  -0.425168  0  1.984347  0  0  -0.214837  -0.400717  0  1.993188  0
O  O106  1  0.60423055  0.62966764  0.66622558  1  0  -0.41428  0  1.774914  0  0  -0.410772  0  1.989623  0  0  -0.425213  0  1.984327  0  0  -0.214852  -0.400763  0  1.993172  0
O  O107  1  0.39576649  0.12966837  0.83377757  1  0  -0.414345  0  1.774818  0  0  -0.410925  0  1.989457  0  0  -0.425369  0  1.984161  0  0  -0.214924  -0.400913  0  1.99301  0
O  O108  1  0.23321259  0.39708869  0.22733239  1  0  -0.373521  0  1.777205  0  0  -0.367632  0  1.988826  0  0  -0.378771  0  1.98391  0  0  -0.134537  -0.360136  0  1.992322  0
O  O109  1  0.76679147  0.89708645  0.27266656  1  0  -0.373588  0  1.777383  0  0  -0.367634  0  1.988684  0  0  -0.378773  0  1.983769  0  0  -0.134586  -0.360134  0  1.992178  0
O  O110  1  0.76679291  0.60291302  0.77266881  1  0  -0.373602  0  1.777266  0  0  -0.367623  0  1.988641  0  0  -0.378763  0  1.983724  0  0  -0.134546  -0.360125  0  1.992134  0
O  O111  1  0.23321404  0.10290774  0.72733297  1  0  -0.373599  0  1.777478  0  0  -0.367696  0  1.989134  0  0  -0.378834  0  1.984216  0  0  -0.134589  -0.360194  0  1.99263  0
O  O112  1  0.28147350  0.62483415  0.54182070  1  0  -0.413975  0  1.761731  0  0  -0.401613  0  1.967793  0  0  -0.416685  0  1.966131  0  0  -0.194421  -0.391264  0  1.968888  0
O  O113  1  0.71853058  0.12482932  0.95817876  1  0  -0.414018  0  1.761726  0  0  -0.401638  0  1.967744  0  0  -0.416715  0  1.966085  0  0  -0.194417  -0.391283  0  1.968844  0
O  O114  1  0.71852921  0.37517602  0.45817820  1  0  -0.414117  0  1.761505  0  0  -0.401736  0  1.967542  0  0  -0.416813  0  1.96588  0  0  -0.194497  -0.391384  0  1.968639  0
O  O115  1  0.28146092  0.87516112  0.04182206  1  0  -0.413942  0  1.761931  0  0  -0.401476  0  1.968045  0  0  -0.416546  0  1.966387  0  0  -0.194294  -0.391128  0  1.969145  0
O  O116  1  0.02482078  0.73911431  0.54297481  1  0  -0.437984  0  1.730395  0  0  -0.426752  0  1.933651  0  0  -0.441641  0  1.931919  0  0  -0.199344  -0.416581  0  1.934745  0
O  O117  1  0.97517027  0.23912037  0.95702695  1  0  -0.43801  0  1.730439  0  0  -0.426807  0  1.93371  0  0  -0.441694  0  1.931976  0  0  -0.199393  -0.416631  0  1.934811  0
O  O118  1  0.97516930  0.26088270  0.45702708  1  0  -0.438032  0  1.730616  0  0  -0.426821  0  1.933903  0  0  -0.441708  0  1.932168  0  0  -0.199413  -0.416655  0  1.93501  0
O  O119  1  0.02482124  0.76087100  0.04296777  1  0  -0.438046  0  1.730267  0  0  -0.42677  0  1.933619  0  0  -0.441657  0  1.931886  0  0  -0.199395  -0.416601  0  1.934722  0
O  O120  1  0.53685961  0.69065846  0.35507295  1  0  -0.410556  0  1.764502  0  0  -0.392809  0  1.993548  0  0  -0.407815  0  1.990477  0  0  -0.146117  -0.382573  0  1.995648  0
O  O121  1  0.46314798  0.19065120  0.14492852  1  0  -0.400437  0  1.778637  0  0  -0.392716  0  1.993638  0  0  -0.407718  0  1.990565  0  0  -0.146041  -0.382477  0  1.995744  0
O  O122  1  0.46314310  0.30934419  0.64492650  1  0  -0.400564  0  1.77848  0  0  -0.392798  0  1.993502  0  0  -0.407804  0  1.990426  0  0  -0.146129  -0.382559  0  1.995602  0
O  O123  1  0.53685473  0.80934863  0.85507094  1  0  -0.41042  0  1.764638  0  0  -0.392699  0  1.993714  0  0  -0.407704  0  1.990642  0  0  -0.14605  -0.382463  0  1.995819  0
O  O124  1  0.58920027  0.60228704  0.24869368  1  0  -0.418567  0  1.820145  0  0  -0.401887  0  2.062511  0  0  -0.413939  0  2.055885  0  0  -0.202869  -0.393784  0  2.06716  0
O  O125  1  0.41080203  0.10228330  0.25130719  1  0  -0.408641  0  1.834001  0  0  -0.401858  0  2.062478  0  0  -0.41391  0  2.05585  0  0  -0.202846  -0.39375  0  2.067124  0
O  O126  1  0.41080804  0.39772126  0.75130426  1  0  -0.408556  0  1.833932  0  0  -0.401793  0  2.062392  0  0  -0.413846  0  2.055767  0  0  -0.202783  -0.393692  0  2.06705  0
O  O127  1  0.58919508  0.89771278  0.74869045  1  0  -0.418581  0  1.820029  0  0  -0.401833  0  2.062368  0  0  -0.413892  0  2.055745  0  0  -0.202846  -0.393726  0  2.067012  0
O  O128  1  0.44841426  0.57029031  0.06247601  1  0  -0.34641  0  2.237846  0  0  -0.277995  0  2.493378  0  0  -0.294501  0  2.494352  0  0  -0.294128  -0.266189  0  2.492225  0
O  O129  1  0.55158815  0.07029143  0.43752435  1  0  -0.346337  0  2.237979  0  0  -0.277979  0  2.493494  0  0  -0.294483  0  2.494477  0  0  -0.294112  -0.266179  0  2.492347  0
O  O130  1  0.55159124  0.42971140  0.93752629  1  0  -0.346452  0  2.237927  0  0  -0.27805  0  2.493456  0  0  -0.294554  0  2.494437  0  0  -0.294159  -0.266244  0  2.492305  0
O  O131  1  0.44841035  0.92970934  0.56247444  1  0  -0.346426  0  2.237877  0  0  -0.278051  0  2.493437  0  0  -0.294557  0  2.494414  0  0  -0.29417  -0.266247  0  2.492287  0
