# generated using pymatgen
data_HgH3C7NO4
_symmetry_space_group_name_H-M   'P 1'
_cell_length_a   8.98144768
_cell_length_b   11.73708709
_cell_length_c   14.74900000
_cell_angle_alpha   109.63868049
_cell_angle_beta   90.00000000
_cell_angle_gamma   90.00000000
_symmetry_Int_Tables_number   1
_chemical_formula_structural   HgH3C7NO4
_chemical_formula_sum   'Hg8 H24 C56 N8 O32'
_cell_volume   1464.34066761
_cell_formula_units_Z   8
loop_
 _symmetry_equiv_pos_site_id
 _symmetry_equiv_pos_as_xyz
  1  'x, y, z'
loop_
 _atom_site_type_symbol
 _atom_site_label
 _atom_site_symmetry_multiplicity
 _atom_site_fract_x
 _atom_site_fract_y
 _atom_site_fract_z
 _atom_site_occupancy
 _atom_site_hle17_bader_spin_density
 _atom_site_hle17_ddec_charge
 _atom_site_hle17_ddec_spin_density
 _atom_site_hle17_ddec_sum_bond_order
 _atom_site_hle17_magmom
 _atom_site_hse06_10hf_bader_spin_density
 _atom_site_hse06_10hf_ddec_charge
 _atom_site_hse06_10hf_ddec_spin_density
 _atom_site_hse06_10hf_ddec_sum_bond_order
 _atom_site_hse06_10hf_magmom
 _atom_site_hse06_bader_spin_density
 _atom_site_hse06_ddec_charge
 _atom_site_hse06_ddec_spin_density
 _atom_site_hse06_ddec_sum_bond_order
 _atom_site_hse06_magmom
 _atom_site_pbe_bader_charge
 _atom_site_pbe_bader_spin_density
 _atom_site_pbe_cm5_charge
 _atom_site_pbe_ddec_charge
 _atom_site_pbe_ddec_spin_density
 _atom_site_pbe_ddec_sum_bond_order
 _atom_site_pbe_magmom
Hg  Hg0  1  0.67616271  0.67395099  0.71493297  1  0  1.025447  0  1.705086  0  0  0.848438  0  2.153591  0  0  0.918841  0  2.105378  0  1.060172  0  0.68803  0.799296  0  2.185832  0
Hg  Hg1  1  0.17616314  0.82604949  0.78506797  1  0  1.025395  0  1.705144  0  0  0.848392  0  2.153643  0  0  0.918794  0  2.105431  0  1.060183  0  0.688015  0.799251  0  2.185882  0
Hg  Hg2  1  0.32383421  0.32604993  0.28506782  1  0  1.025409  0  1.705106  0  0  0.848422  0  2.1536  0  0  0.918823  0  2.105391  0  1.060216  0  0.688026  0.79928  0  2.185839  0
Hg  Hg3  1  0.82383712  0.17395053  0.21493190  1  0  1.0254  0  1.705114  0  0  0.848403  0  2.153607  0  0  0.918804  0  2.105394  0  1.060184  0  0.688018  0.799262  0  2.185846  0
Hg  Hg4  1  0.49608706  0.09187515  0.83336693  1  0  1.038874  0  1.753152  0  0  0.862845  0  2.2143  0  0  0.931939  0  2.165839  0  1.080786  0  0.682936  0.814176  0  2.246875  0
Hg  Hg5  1  0.99608330  0.40812622  0.66663303  1  0  1.038869  0  1.753182  0  0  0.862821  0  2.214348  0  0  0.931922  0  2.165886  0  1.080664  0  0.682925  0.814151  0  2.24692  0
Hg  Hg6  1  0.50391542  0.90812306  0.16663246  1  0  1.038862  0  1.753201  0  0  0.862845  0  2.214343  0  0  0.931935  0  2.165888  0  1.080746  0  0.682936  0.814175  0  2.246916  0
Hg  Hg7  1  0.00391585  0.59187561  0.33336596  1  0  1.038854  0  1.753177  0  0  0.86283  0  2.214319  0  0  0.931919  0  2.165865  0  1.08078  0  0.682925  0.814158  0  2.246894  0
H  H8  1  0.53213359  0.58099392  0.29226522  1  0  0.114761  0  0.946502  0  0  0.123837  0  1.007986  0  0  0.127436  0  1.005451  0  0.111583  0  0.111666  0.121206  0  1.009902  0
H  H9  1  0.03213513  0.91900475  0.20773388  1  0  0.114776  0  0.946516  0  0  0.123856  0  1.007989  0  0  0.127455  0  1.005453  0  0.111594  0  0.111674  0.121225  0  1.009906  0
H  H10  1  0.46786444  0.41900519  0.70773441  1  0  0.114745  0  0.946538  0  0  0.123821  0  1.008012  0  0  0.12742  0  1.005476  0  0.111597  0  0.111661  0.121191  0  1.009928  0
H  H11  1  0.96786401  0.08099346  0.79226483  1  0  0.114725  0  0.946548  0  0  0.123803  0  1.008025  0  0  0.127402  0  1.005491  0  0.111572  0  0.111648  0.121173  0  1.009941  0
H  H12  1  0.44726197  0.77148906  0.41820284  1  0  0.122756  0  0.951544  0  0  0.13041  0  1.011479  0  0  0.134383  0  1.009243  0  0.119755  0  0.115344  0.127478  0  1.013341  0
H  H13  1  0.94726154  0.72851051  0.08179718  1  0  0.122729  0  0.951576  0  0  0.130375  0  1.011511  0  0  0.134351  0  1.009279  0  0.119786  0  0.115329  0.127444  0  1.013372  0
H  H14  1  0.55273940  0.22851095  0.58179567  1  0  0.122749  0  0.951533  0  0  0.130406  0  1.01146  0  0  0.134383  0  1.009226  0  0.119531  0  0.11534  0.127474  0  1.013323  0
H  H15  1  0.05273760  0.27148770  0.91820220  1  0  0.122744  0  0.951559  0  0  0.130409  0  1.011471  0  0  0.134382  0  1.009234  0  0.119715  0  0.115348  0.127477  0  1.013333  0
H  H16  1  0.51353080  0.80557067  0.59128313  1  0  0.116102  0  0.961155  0  0  0.122526  0  1.024807  0  0  0.125841  0  1.021484  0  0.213755  0  0.123618  0.120021  0  1.027373  0
H  H17  1  0.01353123  0.69443071  0.90871669  1  0  0.116089  0  0.96122  0  0  0.122507  0  1.024871  0  0  0.125823  0  1.021548  0  0.213799  0  0.123613  0.120004  0  1.027434  0
H  H18  1  0.48646723  0.19443025  0.40871562  1  0  0.116102  0  0.961173  0  0  0.122521  0  1.024826  0  0  0.125836  0  1.021502  0  0.213777  0  0.123617  0.120018  0  1.027388  0
H  H19  1  0.98646792  0.30557111  0.09128230  1  0  0.116089  0  0.961236  0  0  0.122506  0  1.024889  0  0  0.125821  0  1.021566  0  0.213768  0  0.123604  0.120002  0  1.027453  0
H  H20  1  0.74690186  0.60307844  0.03826132  1  0  0.1161  0  0.930301  0  0  0.126469  0  0.989695  0  0  0.130098  0  0.986522  0  0.105901  0  0.114934  0.123766  0  0.992083  0
H  H21  1  0.24690118  0.89692566  0.46173719  1  0  0.116096  0  0.930336  0  0  0.126454  0  0.989734  0  0  0.13008  0  0.986563  0  0.105948  0  0.114961  0.123756  0  0.992118  0
H  H22  1  0.25309951  0.39692520  0.96173816  1  0  0.116102  0  0.930336  0  0  0.126453  0  0.989752  0  0  0.130079  0  0.986581  0  0.105945  0  0.114959  0.123756  0  0.992135  0
H  H23  1  0.75310020  0.10307526  0.53826088  1  0  0.116154  0  0.930284  0  0  0.126482  0  0.989729  0  0  0.130108  0  0.986559  0  0.105935  0  0.114973  0.123786  0  0.992111  0
H  H24  1  0.66692589  0.48318626  0.14014232  1  0  0.117467  0  0.940143  0  0  0.126684  0  0.999857  0  0  0.129972  0  0.998226  0  0.11263  0  0.111744  0.124255  0  1.001268  0
H  H25  1  0.16692743  0.01681691  0.35985880  1  0  0.117431  0  0.940188  0  0  0.126671  0  0.999876  0  0  0.129961  0  0.998247  0  0.112634  0  0.111735  0.124242  0  1.001288  0
H  H26  1  0.33307103  0.51681647  0.85985963  1  0  0.117458  0  0.940169  0  0  0.126699  0  0.999851  0  0  0.129988  0  0.998221  0  0.112659  0  0.111761  0.12427  0  1.001259  0
H  H27  1  0.83307394  0.98318492  0.64014155  1  0  0.117477  0  0.940143  0  0  0.126696  0  0.999848  0  0  0.129985  0  0.998217  0  0.112642  0  0.111744  0.124267  0  1.001258  0
H  H28  1  0.55495062  0.27576565  0.05855987  1  0  0.102763  0  0.928318  0  0  0.108238  0  0.996191  0  0  0.111598  0  0.9924  0  0.161381  0  0.119299  0.105734  0  0.999042  0
H  H29  1  0.05494771  0.22423843  0.44143811  1  0  0.102663  0  0.928264  0  0  0.108219  0  0.996069  0  0  0.11158  0  0.992277  0  0.161299  0  0.119271  0.105714  0  0.998922  0
H  H30  1  0.44504963  0.72423889  0.94143850  1  0  0.102674  0  0.928288  0  0  0.108225  0  0.996104  0  0  0.111586  0  0.992313  0  0.161313  0  0.119278  0.10572  0  0.998956  0
H  H31  1  0.94505255  0.77576340  0.55856021  1  0  0.102688  0  0.928301  0  0  0.108241  0  0.99611  0  0  0.111601  0  0.992318  0  0.161347  0  0.119289  0.105735  0  0.998961  0
C  C32  1  0.79900594  0.46671583  0.52254718  1  0  0.594024  0  3.936102  0  0  0.541809  0  4.234885  0  0  0.5758  0  4.230786  0  1.605621  0  0.200182  0.518741  0  4.236827  0
C  C33  1  0.29900748  0.03328554  0.97745278  1  0  0.593912  0  3.936226  0  0  0.541732  0  4.234974  0  0  0.575718  0  4.230878  0  1.605666  0  0.20019  0.518664  0  4.236914  0
C  C34  1  0.20099321  0.53328600  0.47745318  1  0  0.594022  0  3.93614  0  0  0.54183  0  4.234908  0  0  0.575817  0  4.230807  0  1.605621  0  0.200224  0.518761  0  4.236852  0
C  C35  1  0.70099835  0.96671267  0.02254796  1  0  0.593752  0  3.936398  0  0  0.541571  0  4.23514  0  0  0.575561  0  4.231045  0  1.605553  0  0.200103  0.518502  0  4.237081  0
C  C36  1  0.70984882  0.40678919  0.31729924  1  0  0.657425  0  3.925573  0  0  0.598715  0  4.224832  0  0  0.636879  0  4.217411  0  1.603015  0  0.201814  0.572682  0  4.228951  0
C  C37  1  0.20985370  0.09320856  0.18270314  1  0  0.657538  0  3.925209  0  0  0.598763  0  4.224584  0  0  0.636956  0  4.217113  0  1.603041  0  0.201818  0.572729  0  4.228708  0
C  C38  1  0.29014699  0.59320902  0.68270286  1  0  0.657479  0  3.925238  0  0  0.598716  0  4.224588  0  0  0.636887  0  4.217154  0  1.602856  0  0.201814  0.572681  0  4.22871  0
C  C39  1  0.79014990  0.90678874  0.81729803  1  0  0.657399  0  3.925564  0  0  0.598673  0  4.224854  0  0  0.636838  0  4.217433  0  1.602897  0  0.201789  0.572638  0  4.228976  0
C  C40  1  0.69511956  0.54791825  0.49023232  1  0  0.076159  0  3.696282  0  0  0.068163  0  3.939924  0  0  0.07036  0  3.961535  0  0.475265  0  0.111837  0.066623  0  3.925501  0
C  C41  1  0.19512222  0.95208132  0.00976905  1  0  0.076165  0  3.69628  0  0  0.06816  0  3.939917  0  0  0.070358  0  3.961531  0  0.47528  0  0.111823  0.06662  0  3.925496  0
C  C42  1  0.30487847  0.45208267  0.50976846  1  0  0.076147  0  3.696396  0  0  0.068145  0  3.940054  0  0  0.070342  0  3.961668  0  0.475265  0  0.111841  0.066606  0  3.925627  0
C  C43  1  0.80488138  0.04791688  0.99023237  1  0  0.076209  0  3.696288  0  0  0.068202  0  3.93994  0  0  0.070397  0  3.961556  0  0.475277  0  0.111841  0.066661  0  3.925519  0
C  C44  1  0.65621270  0.52059597  0.39300283  1  0  -0.10283  0  3.725132  0  0  -0.083734  0  3.968418  0  0  -0.092813  0  3.988986  0  0.001896  0  -0.002158  -0.078114  0  3.954965  0
C  C45  1  0.15621424  0.97940089  0.10699782  1  0  -0.102895  0  3.725111  0  0  -0.083798  0  3.968455  0  0  -0.092889  0  3.98902  0  0.001908  0  -0.002176  -0.078177  0  3.955002  0
C  C46  1  0.34378645  0.47940223  0.60699724  1  0  -0.102802  0  3.725042  0  0  -0.083709  0  3.968363  0  0  -0.092791  0  3.988933  0  0.002074  0  -0.002137  -0.078088  0  3.95491  0
C  C47  1  0.84378936  0.02059551  0.89300243  1  0  -0.102813  0  3.725123  0  0  -0.083724  0  3.968435  0  0  -0.092805  0  3.989009  0  0.001912  0  -0.002157  -0.078104  0  3.954982  0
C  C48  1  0.56555916  0.60184725  0.36709062  1  0  -0.017411  0  3.655895  0  0  -0.050524  0  3.915357  0  0  -0.047168  0  3.931445  0  -0.060827  0  -0.062906  -0.052634  0  3.904727  0
C  C49  1  0.06556070  0.89815142  0.13291051  1  0  -0.017426  0  3.655982  0  0  -0.050527  0  3.915427  0  0  -0.047171  0  3.931518  0  -0.060983  0  -0.062913  -0.052637  0  3.904798  0
C  C50  1  0.43443999  0.39815187  0.63290968  1  0  -0.017373  0  3.655968  0  0  -0.050457  0  3.915393  0  0  -0.0471  0  3.931483  0  -0.060817  0  -0.062869  -0.052566  0  3.904762  0
C  C51  1  0.93444067  0.10184679  0.86708955  1  0  -0.017307  0  3.656066  0  0  -0.050416  0  3.915488  0  0  -0.047061  0  3.931578  0  -0.060784  0  -0.062832  -0.052526  0  3.904857  0
C  C52  1  0.51662495  0.70702756  0.43733630  1  0  -0.067425  0  3.656854  0  0  -0.081754  0  3.911775  0  0  -0.086575  0  3.929461  0  0.041888  0  -0.067632  -0.078814  0  3.900152  0
C  C53  1  0.01662538  0.79297111  0.06266348  1  0  -0.067379  0  3.656849  0  0  -0.081697  0  3.911741  0  0  -0.086523  0  3.929431  0  0.041911  0  -0.067607  -0.078756  0  3.900118  0
C  C54  1  0.48337419  0.29297155  0.56266265  1  0  -0.067455  0  3.65688  0  0  -0.0818  0  3.911778  0  0  -0.086628  0  3.92947  0  0.04205  0  -0.067678  -0.07886  0  3.900156  0
C  C55  1  0.98337376  0.20702710  0.93733523  1  0  -0.06738  0  3.656836  0  0  -0.081692  0  3.911692  0  0  -0.086512  0  3.929377  0  0.041868  0  -0.067633  -0.078752  0  3.900069  0
C  C56  1  0.55458543  0.72713910  0.53301694  1  0  0.134548  0  3.647106  0  0  0.096991  0  3.903165  0  0  0.105978  0  3.919756  0  0.44199  0  0.05547  0.091043  0  3.89193  0
C  C57  1  0.05458697  0.77286228  0.96698288  1  0  0.134512  0  3.647308  0  0  0.096966  0  3.903307  0  0  0.105952  0  3.9199  0  0.442043  0  0.055461  0.091018  0  3.892073  0
C  C58  1  0.44541372  0.27286272  0.46698205  1  0  0.134475  0  3.647193  0  0  0.096939  0  3.903203  0  0  0.105926  0  3.919795  0  0.442059  0  0.055442  0.090992  0  3.89197  0
C  C59  1  0.94541329  0.22713774  0.03301631  1  0  0.134438  0  3.64717  0  0  0.096886  0  3.9032  0  0  0.105873  0  3.919793  0  0.442028  0  0.055446  0.090939  0  3.891963  0
C  C60  1  0.67578304  0.26435024  0.75829203  1  0  0.602287  0  3.939325  0  0  0.552998  0  4.237649  0  0  0.588021  0  4.231644  0  1.610466  0  0.20117  0.529224  0  4.240744  0
C  C61  1  0.17578792  0.23565022  0.74170836  1  0  0.602226  0  3.939325  0  0  0.552932  0  4.237703  0  0  0.587955  0  4.231698  0  1.610681  0  0.201111  0.529158  0  4.240797  0
C  C62  1  0.32421165  0.73565068  0.24170808  1  0  0.602249  0  3.939308  0  0  0.552945  0  4.237675  0  0  0.587969  0  4.231668  0  1.610687  0  0.20113  0.529171  0  4.240769  0
C  C63  1  0.82421457  0.76434798  0.25829035  1  0  0.602337  0  3.939218  0  0  0.552994  0  4.237626  0  0  0.588017  0  4.23162  0  1.610524  0  0.201142  0.52922  0  4.24072  0
C  C64  1  0.74322094  0.53185308  0.84225469  1  0  0.662613  0  3.919372  0  0  0.604258  0  4.22145  0  0  0.64236  0  4.212319  0  1.615856  0  0.210841  0.578213  0  4.226862  0
C  C65  1  0.24322137  0.96814740  0.65774489  1  0  0.662528  0  3.919532  0  0  0.604233  0  4.221521  0  0  0.64233  0  4.212396  0  1.615822  0  0.210855  0.5782  0  4.226919  0
C  C66  1  0.25677932  0.46814694  0.15774518  1  0  0.66253  0  3.919522  0  0  0.604233  0  4.221502  0  0  0.642331  0  4.212377  0  1.615782  0  0.210845  0.578201  0  4.2269  0
C  C67  1  0.75678000  0.03185352  0.34225590  1  0  0.662599  0  3.919321  0  0  0.604251  0  4.221392  0  0  0.642349  0  4.212266  0  1.615788  0  0.21084  0.578207  0  4.226805  0
C  C68  1  0.66079770  0.33566244  0.86506160  1  0  0.066886  0  3.728568  0  0  0.059433  0  3.96876  0  0  0.061387  0  3.990181  0  0.42137  0  0.10741  0.057871  0  3.954493  0
C  C69  1  0.16080370  0.16434074  0.63493952  1  0  0.067103  0  3.728363  0  0  0.059602  0  3.968638  0  0  0.061547  0  3.990065  0  0.421114  0  0.107508  0.058041  0  3.954372  0
C  C70  1  0.33919587  0.66434120  0.13493923  1  0  0.067108  0  3.728333  0  0  0.059648  0  3.968551  0  0  0.061593  0  3.989975  0  0.421122  0  0.107518  0.058086  0  3.954285  0
C  C71  1  0.83920213  0.83566018  0.36505992  1  0  0.06693  0  3.728483  0  0  0.059529  0  3.968636  0  0  0.061475  0  3.990061  0  0.421313  0  0.107463  0.057967  0  3.95437  0
C  C72  1  0.70614451  0.45670076  0.90433196  1  0  -0.065577  0  3.679489  0  0  -0.046273  0  3.912487  0  0  -0.053578  0  3.931754  0  0.029868  0  0.009713  -0.041735  0  3.899866  0
C  C73  1  0.20614605  0.04330241  0.59566849  1  0  -0.065656  0  3.679558  0  0  -0.046363  0  3.912584  0  0  -0.053655  0  3.931849  0  0.030081  0  0.00967  -0.04183  0  3.899965  0
C  C74  1  0.29385352  0.54330197  0.09566932  1  0  -0.065669  0  3.6796  0  0  -0.046386  0  3.912607  0  0  -0.05368  0  3.931872  0  0.03011  0  0.009636  -0.041855  0  3.899991  0
C  C75  1  0.79385754  0.95669851  0.40433162  1  0  -0.065592  0  3.67947  0  0  -0.046298  0  3.912448  0  0  -0.053592  0  3.931713  0  0.030013  0  0.009695  -0.041766  0  3.899837  0
C  C76  1  0.70982989  0.50987712  0.00479396  1  0  -0.016438  0  3.647099  0  0  -0.044319  0  3.89448  0  0  -0.041237  0  3.910471  0  0.040071  0  -0.056276  -0.046212  0  3.88375  0
C  C77  1  0.20982698  0.99012427  0.49520519  1  0  -0.016391  0  3.647128  0  0  -0.044259  0  3.894526  0  0  -0.04118  0  3.910516  0  0.03994  0  -0.056283  -0.046155  0  3.883801  0
C  C78  1  0.29017260  0.49012381  0.99520615  1  0  -0.0164  0  3.647135  0  0  -0.044274  0  3.894532  0  0  -0.041194  0  3.910521  0  0.039889  0  -0.05627  -0.04617  0  3.883806  0
C  C79  1  0.79017440  0.00987666  0.50479492  1  0  -0.016468  0  3.647189  0  0  -0.044328  0  3.894581  0  0  -0.041249  0  3.910572  0  0.039988  0  -0.056303  -0.046225  0  3.883858  0
C  C80  1  0.66246336  0.44413648  0.06213301  1  0  -0.073508  0  3.679006  0  0  -0.090553  0  3.941022  0  0  -0.094408  0  3.958526  0  -0.04723  0  -0.069406  -0.088192  0  3.929431  0
C  C81  1  0.16246490  0.05586579  0.43786786  1  0  -0.073509  0  3.678923  0  0  -0.090565  0  3.940944  0  0  -0.094422  0  3.958452  0  -0.047255  0  -0.069416  -0.088204  0  3.929356  0
C  C82  1  0.33753467  0.55586625  0.93786826  1  0  -0.073499  0  3.678908  0  0  -0.090546  0  3.940934  0  0  -0.094403  0  3.958439  0  -0.047211  0  -0.069411  -0.088186  0  3.929345  0
C  C83  1  0.83753647  0.94413513  0.56213225  1  0  -0.07357  0  3.679  0  0  -0.090603  0  3.941015  0  0  -0.094458  0  3.958519  0  -0.047251  0  -0.069435  -0.088244  0  3.929427  0
C  C84  1  0.60501828  0.32815408  0.01792972  1  0  0.130393  0  3.691106  0  0  0.090681  0  3.959553  0  0  0.098876  0  3.976638  0  0.501294  0  0.048821  0.085176  0  3.947952  0
C  C85  1  0.10502093  0.17185181  0.48207077  1  0  0.130546  0  3.690882  0  0  0.09077  0  3.959359  0  0  0.098967  0  3.976442  0  0.501408  0  0.048887  0.085265  0  3.947759  0
C  C86  1  0.39497753  0.67185136  0.98207024  1  0  0.130492  0  3.690948  0  0  0.090692  0  3.959455  0  0  0.098889  0  3.976537  0  0.501337  0  0.048824  0.085187  0  3.947854  0
C  C87  1  0.89497933  0.82814911  0.51792866  1  0  0.130511  0  3.690881  0  0  0.090729  0  3.959359  0  0  0.098925  0  3.97644  0  0.501379  0  0.048867  0.085224  0  3.947759  0
N  N88  1  0.64132868  0.64887489  0.55730687  1  0  -0.305493  0  3.339042  0  0  -0.224381  0  3.603692  0  0  -0.248639  0  3.628483  0  -1.172843  0  -0.297137  -0.208041  0  3.586586  0
N  N89  1  0.14132911  0.85112649  0.94269296  1  0  -0.305436  0  3.339156  0  0  -0.224295  0  3.603746  0  0  -0.248552  0  3.628536  0  -1.17285  0  -0.297095  -0.207956  0  3.58664  0
N  N90  1  0.35867046  0.35112694  0.44269281  1  0  -0.30543  0  3.339143  0  0  -0.224313  0  3.603757  0  0  -0.24857  0  3.628548  0  -1.172883  0  -0.297104  -0.207973  0  3.586653  0
N  N91  1  0.85867338  0.14887262  0.05730734  1  0  -0.305439  0  3.339107  0  0  -0.224324  0  3.60374  0  0  -0.248584  0  3.628534  0  -1.17286  0  -0.297117  -0.207985  0  3.586634  0
N  N92  1  0.60733862  0.27664856  0.92207487  1  0  -0.33542  0  3.365333  0  0  -0.257816  0  3.630521  0  0  -0.281969  0  3.65718  0  -1.204421  0  -0.30235  -0.241312  0  3.612049  0
N  N93  1  0.10734238  0.22335371  0.57792397  1  0  -0.33553  0  3.365132  0  0  -0.257933  0  3.630404  0  0  -0.282085  0  3.657064  0  -1.204432  0  -0.302403  -0.241428  0  3.611932  0
N  N94  1  0.39265608  0.72335417  0.07792369  1  0  -0.335521  0  3.365151  0  0  -0.257917  0  3.630399  0  0  -0.282069  0  3.657057  0  -1.204404  0  -0.302376  -0.241413  0  3.611928  0
N  N95  1  0.89265899  0.77664721  0.42207478  1  0  -0.335445  0  3.365202  0  0  -0.257868  0  3.630436  0  0  -0.282019  0  3.657095  0  -1.204444  0  -0.302376  -0.241363  0  3.611963  0
O  O96  1  0.85141174  0.51778170  0.60932248  1  0  -0.601052  0  2.157167  0  0  -0.513141  0  2.427912  0  0  -0.551772  0  2.419599  0  -1.058356  0  -0.291348  -0.48637  0  2.432563  0
O  O97  1  0.35140883  0.98222059  0.89067556  1  0  -0.600952  0  2.157151  0  0  -0.513085  0  2.427898  0  0  -0.551702  0  2.419577  0  -1.058498  0  -0.291346  -0.486316  0  2.432552  0
O  O98  1  0.14858852  0.48222103  0.39067812  1  0  -0.600974  0  2.157174  0  0  -0.513112  0  2.427948  0  0  -0.551729  0  2.419627  0  -1.058482  0  -0.291335  -0.486342  0  2.4326  0
O  O99  1  0.64859143  0.01777490  0.10932175  1  0  -0.600844  0  2.157209  0  0  -0.512999  0  2.428005  0  0  -0.551602  0  2.419648  0  -1.058447  0  -0.291278  -0.48623  0  2.432658  0
O  O100  1  0.82904118  0.36379435  0.46770325  1  0  -0.53438  0  1.930617  0  0  -0.493335  0  2.152079  0  0  -0.516852  0  2.146354  0  -1.134962  0  -0.289762  -0.476798  0  2.155334  0
O  O101  1  0.32904161  0.13620702  0.03229603  1  0  -0.534352  0  1.930692  0  0  -0.493317  0  2.152145  0  0  -0.516836  0  2.146424  0  -1.135008  0  -0.289767  -0.476779  0  2.155397  0
O  O102  1  0.17095908  0.63620929  0.53229894  1  0  -0.534418  0  1.930567  0  0  -0.493382  0  2.152035  0  0  -0.516899  0  2.146312  0  -1.135009  0  -0.289804  -0.476843  0  2.155289  0
O  O103  1  0.67096533  0.86378848  0.96770127  1  0  -0.534346  0  1.930695  0  0  -0.49332  0  2.15217  0  0  -0.516839  0  2.146446  0  -1.134964  0  -0.289779  -0.476778  0  2.155421  0
O  O104  1  0.62177281  0.31689788  0.28997988  1  0  -0.599044  0  2.006641  0  0  -0.531579  0  2.264954  0  0  -0.566556  0  2.254651  0  -1.112053  0  -0.291456  -0.506937  0  2.270921  0
O  O105  1  0.12177770  0.18309987  0.21001979  1  0  -0.599078  0  2.006408  0  0  -0.531622  0  2.264805  0  0  -0.566608  0  2.254488  0  -1.112079  0  -0.291482  -0.506978  0  2.270773  0
O  O106  1  0.37822188  0.68310033  0.71002018  1  0  -0.599099  0  2.006469  0  0  -0.531619  0  2.264825  0  0  -0.566598  0  2.254519  0  -1.112087  0  -0.291483  -0.506975  0  2.270792  0
O  O107  1  0.87822702  0.81689743  0.78997935  1  0  -0.599014  0  2.006544  0  0  -0.531558  0  2.264892  0  0  -0.566536  0  2.254592  0  -1.112059  0  -0.291434  -0.506913  0  2.27086  0
O  O108  1  0.83938250  0.40526943  0.28206803  1  0  -0.595796  0  2.007634  0  0  -0.525179  0  2.260736  0  0  -0.560663  0  2.251269  0  -1.102855  0  -0.289525  -0.500233  0  2.266177  0
O  O109  1  0.33938404  0.09472651  0.21793590  1  0  -0.595796  0  2.007571  0  0  -0.525169  0  2.260747  0  0  -0.560662  0  2.25126  0  -1.102868  0  -0.289482  -0.500224  0  2.266192  0
O  O110  1  0.16061442  0.59472697  0.71793426  1  0  -0.595773  0  2.007553  0  0  -0.525158  0  2.260723  0  0  -0.560644  0  2.251249  0  -1.102841  0  -0.289492  -0.500212  0  2.266167  0
O  O111  1  0.66061733  0.90526989  0.78206775  1  0  -0.595813  0  2.00769  0  0  -0.525199  0  2.260822  0  0  -0.560682  0  2.251354  0  -1.102747  0  -0.289526  -0.500254  0  2.266264  0
O  O112  1  0.74317418  0.31311927  0.70643148  1  0  -0.607134  0  1.997583  0  0  -0.557733  0  2.246413  0  0  -0.585781  0  2.237741  0  -1.158166  0  -0.311693  -0.537782  0  2.251395  0
O  O113  1  0.24317906  0.18688390  0.79356964  1  0  -0.607128  0  1.997557  0  0  -0.557721  0  2.246392  0  0  -0.585767  0  2.23772  0  -1.158214  0  -0.311689  -0.537778  0  2.251391  0
O  O114  1  0.25682051  0.68688526  0.29357028  1  0  -0.607134  0  1.997563  0  0  -0.557729  0  2.246404  0  0  -0.585775  0  2.23773  0  -1.15821  0  -0.311696  -0.537782  0  2.251391  0
O  O115  1  0.75682120  0.81311431  0.20642906  1  0  -0.607162  0  1.99753  0  0  -0.557745  0  2.246384  0  0  -0.585793  0  2.237714  0  -1.158198  0  -0.311695  -0.537789  0  2.251355  0
O  O116  1  0.62071062  0.15720599  0.72597997  1  0  -0.580022  0  2.001173  0  0  -0.515809  0  2.253281  0  0  -0.550275  0  2.245902  0  -1.092933  0  -0.297956  -0.491633  0  2.257219  0
O  O117  1  0.12071217  0.34279266  0.77401858  1  0  -0.580013  0  2.001163  0  0  -0.515783  0  2.253254  0  0  -0.550255  0  2.24589  0  -1.092894  0  -0.297931  -0.491604  0  2.257188  0
O  O118  1  0.37928852  0.84279312  0.27401898  1  0  -0.580034  0  2.001195  0  0  -0.515807  0  2.253298  0  0  -0.550275  0  2.245922  0  -1.092906  0  -0.297944  -0.49163  0  2.257232  0
O  O119  1  0.87928921  0.65720464  0.22597988  1  0  -0.580051  0  2.001199  0  0  -0.515818  0  2.253323  0  0  -0.55029  0  2.245959  0  -1.092968  0  -0.29795  -0.491643  0  2.257261  0
O  O120  1  0.62494825  0.57107655  0.81185225  1  0  -0.591333  0  2.032214  0  0  -0.515625  0  2.29111  0  0  -0.552987  0  2.284761  0  -1.061315  0  -0.284903  -0.489822  0  2.294551  0
O  O121  1  0.12494979  0.92892483  0.68814893  1  0  -0.591278  0  2.032318  0  0  -0.515602  0  2.291212  0  0  -0.552965  0  2.284867  0  -1.061496  0  -0.284909  -0.489795  0  2.294627  0
O  O122  1  0.37505090  0.42892437  0.18814854  1  0  -0.591291  0  2.032264  0  0  -0.515614  0  2.291152  0  0  -0.552977  0  2.284808  0  -1.061505  0  -0.284899  -0.489806  0  2.294564  0
O  O123  1  0.87505270  0.07107609  0.31185186  1  0  -0.591318  0  2.032187  0  0  -0.515627  0  2.291115  0  0  -0.55299  0  2.284769  0  -1.06134  0  -0.284897  -0.489817  0  2.294536  0
O  O124  1  0.87478993  0.55588073  0.82891627  1  0  -0.585752  0  1.995316  0  0  -0.530714  0  2.231883  0  0  -0.55847  0  2.221001  0  -1.148474  0  -0.300329  -0.510855  0  2.238447  0
O  O125  1  0.37479036  0.94411704  0.67108598  1  0  -0.585744  0  1.99536  0  0  -0.530723  0  2.231901  0  0  -0.558483  0  2.221033  0  -1.148326  0  -0.300349  -0.510866  0  2.238458  0
O  O126  1  0.12521033  0.44411658  0.17108627  1  0  -0.585733  0  1.995364  0  0  -0.530713  0  2.231907  0  0  -0.558469  0  2.221034  0  -1.148289  0  -0.300339  -0.510857  0  2.238464  0
O  O127  1  0.62521101  0.05588117  0.32891612  1  0  -0.585744  0  1.995316  0  0  -0.530714  0  2.231884  0  0  -0.558469  0  2.221005  0  -1.148441  0  -0.300327  -0.510855  0  2.238448  0
