# generated using pymatgen
data_ZnH9C7N2ClO5
_symmetry_space_group_name_H-M   'P 1'
_cell_length_a   5.77076024
_cell_length_b   10.45880309
_cell_length_c   19.10957592
_cell_angle_alpha   105.63541019
_cell_angle_beta   90.00035949
_cell_angle_gamma   89.99980601
_symmetry_Int_Tables_number   1
_chemical_formula_structural   ZnH9C7N2ClO5
_chemical_formula_sum   'Zn4 H36 C28 N8 Cl4 O20'
_cell_volume   1110.68429914
_cell_formula_units_Z   4
loop_
 _symmetry_equiv_pos_site_id
 _symmetry_equiv_pos_as_xyz
  1  'x, y, z'
loop_
 _atom_site_type_symbol
 _atom_site_label
 _atom_site_symmetry_multiplicity
 _atom_site_fract_x
 _atom_site_fract_y
 _atom_site_fract_z
 _atom_site_occupancy
 _atom_site_hle17_bader_spin_density
 _atom_site_hle17_ddec_charge
 _atom_site_hle17_ddec_spin_density
 _atom_site_hle17_ddec_sum_bond_order
 _atom_site_hle17_magmom
 _atom_site_hse06_10hf_bader_spin_density
 _atom_site_hse06_10hf_ddec_charge
 _atom_site_hse06_10hf_ddec_spin_density
 _atom_site_hse06_10hf_ddec_sum_bond_order
 _atom_site_hse06_10hf_magmom
 _atom_site_hse06_bader_spin_density
 _atom_site_hse06_ddec_charge
 _atom_site_hse06_ddec_spin_density
 _atom_site_hse06_ddec_sum_bond_order
 _atom_site_hse06_magmom
 _atom_site_pbe_bader_spin_density
 _atom_site_pbe_cm5_charge
 _atom_site_pbe_ddec_charge
 _atom_site_pbe_ddec_spin_density
 _atom_site_pbe_ddec_sum_bond_order
 _atom_site_pbe_magmom
Zn  Zn0  1  0.55784211  0.55987376  0.88841874  1  0  1.079111  0  1.840618  0  0  0.910482  0  2.330437  0  0  0.958426  0  2.268217  0  0  0.611618  0.876676  0  2.373486  0
Zn  Zn1  1  0.05784278  0.94013825  0.61157119  1  0  1.079076  0  1.840662  0  0  0.910442  0  2.330573  0  0  0.958386  0  2.268359  0  0  0.611591  0.876633  0  2.373614  0
Zn  Zn2  1  0.44214513  0.44013521  0.11158187  1  0  1.07907  0  1.840804  0  0  0.91044  0  2.330745  0  0  0.958377  0  2.268524  0  0  0.611605  0.876635  0  2.373795  0
Zn  Zn3  1  0.94218085  0.05987129  0.38842634  1  0  1.079066  0  1.84074  0  0  0.910465  0  2.330556  0  0  0.958403  0  2.268338  0  0  0.611596  0.876652  0  2.373597  0
H  H4  1  0.12813406  0.35120616  0.95812472  1  0  0.136673  0  0.930534  0  0  0.144214  0  0.997452  0  0  0.147342  0  0.995177  0  0  0.122811  0.141936  0  0.999226  0
H  H5  1  0.62815261  0.14877865  0.54186819  1  0  0.136725  0  0.930527  0  0  0.144251  0  0.997457  0  0  0.147378  0  0.995186  0  0  0.122791  0.141973  0  0.999228  0
H  H6  1  0.87184625  0.64879320  0.04187693  1  0  0.136569  0  0.930562  0  0  0.144116  0  0.997479  0  0  0.147243  0  0.995205  0  0  0.122761  0.141839  0  0.999251  0
H  H7  1  0.37187275  0.85122700  0.45812209  1  0  0.136661  0  0.930381  0  0  0.144213  0  0.997291  0  0  0.14734  0  0.995016  0  0  0.122796  0.141932  0  0.999066  0
H  H8  1  0.91360804  0.29983278  0.01101375  1  0  0.123314  0  0.92376  0  0  0.134003  0  0.986996  0  0  0.136419  0  0.985423  0  0  0.115661  0.132234  0  0.988269  0
H  H9  1  0.41362667  0.20017024  0.48898133  1  0  0.123224  0  0.923676  0  0  0.133925  0  0.98693  0  0  0.136339  0  0.98536  0  0  0.115658  0.132158  0  0.9882  0
H  H10  1  0.08637054  0.70016905  0.98898450  1  0  0.123288  0  0.923602  0  0  0.133955  0  0.986892  0  0  0.136371  0  0.985316  0  0  0.115631  0.132172  0  0.98818  0
H  H11  1  0.58638656  0.79984404  0.51101514  1  0  0.123213  0  0.923709  0  0  0.133925  0  0.986932  0  0  0.136338  0  0.985362  0  0  0.115634  0.132156  0  0.988202  0
H  H12  1  0.36336077  0.17261789  0.87142621  1  0  0.135321  0  0.946905  0  0  0.142036  0  1.012354  0  0  0.145552  0  1.008127  0  0  0.146565  0.139336  0  1.015569  0
H  H13  1  0.86338558  0.32734987  0.62856968  1  0  0.135227  0  0.946819  0  0  0.142068  0  1.012151  0  0  0.145575  0  1.007933  0  0  0.146629  0.139377  0  1.015376  0
H  H14  1  0.63662301  0.82737369  0.12857564  1  0  0.135296  0  0.946698  0  0  0.14209  0  1.012099  0  0  0.145602  0  1.007868  0  0  0.146583  0.139393  0  1.015321  0
H  H15  1  0.13661725  0.67265486  0.37142837  1  0  0.135268  0  0.946714  0  0  0.142083  0  1.012102  0  0  0.145592  0  1.00788  0  0  0.146626  0.139392  0  1.015326  0
H  H16  1  0.74279340  0.05417981  0.95610900  1  0  0.130851  0  0.961579  0  0  0.135742  0  1.02809  0  0  0.1387  0  1.026741  0  0  0.118082  0.133567  0  1.029171  0
H  H17  1  0.24282181  0.44582618  0.54388843  1  0  0.130781  0  0.961629  0  0  0.135689  0  1.028136  0  0  0.138651  0  1.026784  0  0  0.118091  0.133511  0  1.029206  0
H  H18  1  0.25719904  0.94582160  0.04389340  1  0  0.130826  0  0.961642  0  0  0.135727  0  1.028169  0  0  0.138686  0  1.026827  0  0  0.118052  0.133551  0  1.029239  0
H  H19  1  0.75719316  0.55418449  0.45611027  1  0  0.130752  0  0.961639  0  0  0.135664  0  1.028167  0  0  0.138618  0  1.026838  0  0  0.118036  0.133483  0  1.029233  0
H  H20  1  0.97576967  0.82772781  0.87323778  1  0  0.136145  0  0.98781  0  0  0.14023  0  1.055488  0  0  0.143423  0  1.053901  0  0  0.122962  0.137793  0  1.056905  0
H  H21  1  0.47586401  0.67225862  0.62676023  1  0  0.136234  0  0.987721  0  0  0.140318  0  1.05538  0  0  0.143509  0  1.053799  0  0  0.122994  0.137882  0  1.056802  0
H  H22  1  0.02420198  0.17226327  0.12676770  1  0  0.136079  0  0.987862  0  0  0.140167  0  1.055515  0  0  0.143356  0  1.053936  0  0  0.12295  0.137729  0  1.056932  0
H  H23  1  0.52417175  0.32774379  0.37324229  1  0  0.136122  0  0.987872  0  0  0.140221  0  1.055499  0  0  0.143409  0  1.053922  0  0  0.122969  0.13779  0  1.056923  0
H  H24  1  0.35328948  0.79259509  0.80692612  1  0  0.134089  0  0.9179  0  0  0.143952  0  0.980821  0  0  0.147008  0  0.978611  0  0  0.1239  0.141698  0  0.982541  0
H  H25  1  0.85341459  0.70737249  0.69305513  1  0  0.134064  0  0.917809  0  0  0.143898  0  0.980809  0  0  0.146969  0  0.978581  0  0  0.123865  0.141639  0  0.982541  0
H  H26  1  0.64665270  0.20739062  0.19307562  1  0  0.134193  0  0.917969  0  0  0.143974  0  0.980968  0  0  0.147041  0  0.978741  0  0  0.123956  0.141721  0  0.982689  0
H  H27  1  0.14662637  0.29261640  0.30694118  1  0  0.134064  0  0.917744  0  0  0.143879  0  0.980758  0  0  0.146949  0  0.97853  0  0  0.123861  0.141621  0  0.982489  0
H  H28  1  0.55476688  0.92552968  0.82427992  1  0  0.115158  0  0.931698  0  0  0.123931  0  0.997756  0  0  0.125799  0  0.997466  0  0  0.117689  0.122541  0  0.99813  0
H  H29  1  0.05482176  0.57441094  0.67572320  1  0  0.114981  0  0.93195  0  0  0.123721  0  0.998014  0  0  0.125582  0  0.997728  0  0  0.117608  0.122333  0  0.998385  0
H  H30  1  0.44520650  0.07444168  0.17573125  1  0  0.115201  0  0.931743  0  0  0.123957  0  0.997782  0  0  0.125818  0  0.997499  0  0  0.117719  0.122571  0  0.99815  0
H  H31  1  0.94520187  0.42558998  0.32428282  1  0  0.115009  0  0.932026  0  0  0.123766  0  0.998078  0  0  0.125626  0  0.997794  0  0  0.117642  0.122379  0  0.998445  0
H  H32  1  0.14552306  0.51807466  0.84043812  1  0  0.431834  0  0.873641  0  0  0.399239  0  0.939519  0  0  0.41009  0  0.924069  0  0  0.294086  0.391632  0  0.950319  0
H  H33  1  0.64551481  0.98191042  0.65955980  1  0  0.431837  0  0.873685  0  0  0.399252  0  0.939529  0  0  0.4101  0  0.924086  0  0  0.294082  0.391646  0  0.950329  0
H  H34  1  0.85446417  0.48192166  0.15956268  1  0  0.431761  0  0.873761  0  0  0.399162  0  0.93965  0  0  0.410012  0  0.924201  0  0  0.294036  0.391555  0  0.950451  0
H  H35  1  0.35451229  0.01808009  0.34044142  1  0  0.431831  0  0.873678  0  0  0.399235  0  0.939551  0  0  0.410088  0  0.924097  0  0  0.294073  0.391628  0  0.950352  0
H  H36  1  0.29879844  0.38874488  0.80993965  1  0  0.4376  0  0.793881  0  0  0.420242  0  0.845362  0  0  0.42892  0  0.835824  0  0  0.330288  0.414002  0  0.852339  0
H  H37  1  0.79877775  0.11123080  0.69006791  1  0  0.437685  0  0.793847  0  0  0.42042  0  0.845193  0  0  0.429101  0  0.835644  0  0  0.330348  0.414181  0  0.85217  0
H  H38  1  0.70119746  0.61124586  0.19007051  1  0  0.437498  0  0.793987  0  0  0.420214  0  0.845356  0  0  0.428893  0  0.835814  0  0  0.330261  0.413976  0  0.852331  0
H  H39  1  0.20122682  0.88876360  0.30993321  1  0  0.437668  0  0.793819  0  0  0.420304  0  0.845293  0  0  0.428976  0  0.835767  0  0  0.330331  0.414065  0  0.852268  0
C  C40  1  0.78422212  0.33916255  0.91310447  1  0  0.685735  0  3.887823  0  0  0.636579  0  4.195998  0  0  0.669578  0  4.189392  0  0  0.203563  0.614072  0  4.199788  0
C  C41  1  0.28423659  0.16083957  0.58688833  1  0  0.685667  0  3.887704  0  0  0.636606  0  4.195777  0  0  0.669604  0  4.189176  0  0  0.203585  0.614104  0  4.199558  0
C  C42  1  0.21577378  0.66084593  0.08689976  1  0  0.685599  0  3.888319  0  0  0.636509  0  4.196392  0  0  0.669501  0  4.189793  0  0  0.203571  0.614011  0  4.200173  0
C  C43  1  0.71577664  0.83915892  0.41309225  1  0  0.685459  0  3.888459  0  0  0.636436  0  4.196433  0  0  0.669426  0  4.189845  0  0  0.203636  0.613936  0  4.200215  0
C  C44  1  0.97390635  0.28921435  0.95533827  1  0  -0.175249  0  3.618805  0  0  -0.234622  0  3.864281  0  0  -0.236603  0  3.871707  0  0  -0.056879  -0.233255  0  3.859426  0
C  C45  1  0.47393218  0.21078383  0.54465795  1  0  -0.175192  0  3.618701  0  0  -0.234552  0  3.864074  0  0  -0.236522  0  3.871469  0  0  -0.056797  -0.233185  0  3.859213  0
C  C46  1  0.02607915  0.71078374  0.04466114  1  0  -0.175057  0  3.618426  0  0  -0.234456  0  3.863772  0  0  -0.236437  0  3.871203  0  0  -0.056799  -0.233085  0  3.858922  0
C  C47  1  0.52610011  0.78922359  0.45533829  1  0  -0.175084  0  3.618616  0  0  -0.234444  0  3.864015  0  0  -0.236421  0  3.871444  0  0  -0.05686  -0.233074  0  3.859142  0
C  C48  1  0.22363326  0.11035732  0.88211481  1  0  0.14506  0  3.494005  0  0  0.071771  0  3.754576  0  0  0.087855  0  3.76235  0  0  0.174354  0.061226  0  3.749396  0
C  C49  1  0.72367157  0.38962275  0.61787741  1  0  0.145198  0  3.493769  0  0  0.071791  0  3.754475  0  0  0.08789  0  3.762236  0  0  0.174319  0.061222  0  3.749313  0
C  C50  1  0.77634878  0.88964359  0.11788387  1  0  0.145022  0  3.494155  0  0  0.07154  0  3.754715  0  0  0.087638  0  3.762482  0  0  0.174308  0.060983  0  3.749543  0
C  C51  1  0.27634686  0.61038191  0.38212011  1  0  0.145179  0  3.493675  0  0  0.071786  0  3.75444  0  0  0.087883  0  3.762209  0  0  0.174343  0.061217  0  3.749277  0
C  C52  1  0.90177835  0.04284826  0.92498768  1  0  -0.034691  0  3.650038  0  0  -0.081633  0  3.923528  0  0  -0.079905  0  3.941241  0  0  0.015391  -0.082818  0  3.911934  0
C  C53  1  0.40182442  0.45716136  0.57500968  1  0  -0.034444  0  3.65014  0  0  -0.081386  0  3.923493  0  0  -0.07966  0  3.941205  0  0  0.015423  -0.082559  0  3.911889  0
C  C54  1  0.09820542  0.95715704  0.07501463  1  0  -0.034652  0  3.650312  0  0  -0.081688  0  3.923733  0  0  -0.079963  0  3.941444  0  0  0.015411  -0.082864  0  3.912129  0
C  C55  1  0.59818535  0.54283983  0.42498378  1  0  -0.034457  0  3.650186  0  0  -0.081363  0  3.923539  0  0  -0.079644  0  3.941257  0  0  0.015501  -0.082526  0  3.911925  0
C  C56  1  0.01522292  0.93270713  0.88481818  1  0  -0.035408  0  3.627356  0  0  -0.0835  0  3.898059  0  0  -0.081433  0  3.91473  0  0  0.01513  -0.084992  0  3.887287  0
C  C57  1  0.51528949  0.56727814  0.61518090  1  0  -0.035584  0  3.627693  0  0  -0.083631  0  3.898427  0  0  -0.081572  0  3.915111  0  0  0.015072  -0.085128  0  3.887653  0
C  C58  1  0.98475392  0.06728346  0.11518356  1  0  -0.035258  0  3.627699  0  0  -0.083355  0  3.898354  0  0  -0.08129  0  3.915032  0  0  0.015179  -0.084846  0  3.887577  0
C  C59  1  0.48471335  0.43271605  0.38481861  1  0  -0.035359  0  3.627766  0  0  -0.08342  0  3.89845  0  0  -0.081356  0  3.915135  0  0  0.015109  -0.084926  0  3.88768  0
C  C60  1  0.37675244  0.89685929  0.80699967  1  0  -0.166895  0  3.610126  0  0  -0.224798  0  3.852855  0  0  -0.226243  0  3.859398  0  0  -0.051503  -0.223723  0  3.848508  0
C  C61  1  0.87682934  0.60311267  0.69299382  1  0  -0.166839  0  3.610395  0  0  -0.224659  0  3.8531  0  0  -0.226103  0  3.859631  0  0  -0.051444  -0.22359  0  3.848746  0
C  C62  1  0.62321574  0.10313271  0.19300537  1  0  -0.167107  0  3.610207  0  0  -0.224949  0  3.852872  0  0  -0.2264  0  3.859411  0  0  -0.051581  -0.223879  0  3.848524  0
C  C63  1  0.12317523  0.39688401  0.30700964  1  0  -0.166809  0  3.610014  0  0  -0.224663  0  3.852798  0  0  -0.226081  0  3.859269  0  0  -0.051508  -0.223599  0  3.848452  0
C  C64  1  0.34007791  0.90905387  0.72981085  1  0  0.693767  0  3.860829  0  0  0.645902  0  4.157809  0  0  0.679029  0  4.150729  0  0  0.2182  0.623386  0  4.16183  0
C  C65  1  0.84012012  0.59094433  0.77018705  1  0  0.693731  0  3.861031  0  0  0.645946  0  4.157889  0  0  0.679073  0  4.150803  0  0  0.218143  0.623434  0  4.161912  0
C  C66  1  0.65994052  0.09094577  0.27019294  1  0  0.693993  0  3.860215  0  0  0.646185  0  4.157082  0  0  0.679307  0  4.150002  0  0  0.218254  0.623674  0  4.161105  0
C  C67  1  0.15988271  0.40905820  0.22980919  1  0  0.693791  0  3.860604  0  0  0.64595  0  4.157553  0  0  0.679073  0  4.150474  0  0  0.218216  0.623439  0  4.161572  0
N  N68  1  0.03450575  0.15153188  0.92253257  1  0  -0.003248  0  3.616025  0  0  0.08477  0  3.837376  0  0  0.071531  0  3.863489  0  0  -0.225417  0.093478  0  3.819668  0
N  N69  1  0.53452136  0.34846289  0.57746370  1  0  -0.003411  0  3.616069  0  0  0.084712  0  3.837355  0  0  0.071478  0  3.863449  0  0  -0.225452  0.093419  0  3.81966  0
N  N70  1  0.96547802  0.84846911  0.07746665  1  0  -0.003308  0  3.61606  0  0  0.08494  0  3.837215  0  0  0.071699  0  3.863322  0  0  -0.225365  0.093651  0  3.819503  0
N  N71  1  0.46549533  0.65154453  0.42253255  1  0  -0.003425  0  3.616045  0  0  0.084565  0  3.837537  0  0  0.071327  0  3.863637  0  0  -0.225495  0.093276  0  3.819824  0
N  N72  1  0.21480254  0.97715929  0.85882171  1  0  -0.009289  0  3.594368  0  0  0.079847  0  3.816192  0  0  0.066708  0  3.841294  0  0  -0.229497  0.088419  0  3.799236  0
N  N73  1  0.71486524  0.52281734  0.64117543  1  0  -0.009148  0  3.594578  0  0  0.079794  0  3.8167  0  0  0.066644  0  3.841814  0  0  -0.229409  0.088374  0  3.799742  0
N  N74  1  0.78517603  0.02283229  0.14118014  1  0  -0.009275  0  3.594653  0  0  0.079952  0  3.816387  0  0  0.066802  0  3.841499  0  0  -0.229463  0.088528  0  3.799432  0
N  N75  1  0.28514106  0.47718421  0.35882804  1  0  -0.009365  0  3.594488  0  0  0.079683  0  3.816484  0  0  0.06653  0  3.8416  0  0  -0.22947  0.088262  0  3.799527  0
Cl  Cl76  1  0.51481812  0.77273559  0.94813524  1  0  -0.591235  0  0.900111  0  0  -0.523097  0  1.177669  0  0  -0.540746  0  1.153261  0  0  -0.299558  -0.510254  0  1.19443  0
Cl  Cl77  1  0.01482438  0.72727309  0.55186380  1  0  -0.591179  0  0.900035  0  0  -0.523069  0  1.177637  0  0  -0.540702  0  1.153203  0  0  -0.299547  -0.510227  0  1.194402  0
Cl  Cl78  1  0.48517259  0.22727424  0.05187911  1  0  -0.59124  0  0.900153  0  0  -0.523092  0  1.177716  0  0  -0.540718  0  1.153269  0  0  -0.299573  -0.510253  0  1.194489  0
Cl  Cl79  1  0.98519405  0.27273645  0.44813373  1  0  -0.591215  0  0.900127  0  0  -0.523117  0  1.177745  0  0  -0.540762  0  1.153323  0  0  -0.299558  -0.510267  0  1.194505  0
O  O80  1  0.74446369  0.46405124  0.94172195  1  0  -0.65628  0  2.068259  0  0  -0.577824  0  2.347101  0  0  -0.608434  0  2.331755  0  0  -0.331376  -0.556288  0  2.356947  0
O  O81  1  0.24445784  0.03595331  0.55826481  1  0  -0.656283  0  2.068102  0  0  -0.577906  0  2.346968  0  0  -0.608524  0  2.331622  0  0  -0.331492  -0.55637  0  2.356812  0
O  O82  1  0.25552008  0.53594563  0.05826842  1  0  -0.656339  0  2.06787  0  0  -0.577966  0  2.346753  0  0  -0.608581  0  2.331411  0  0  -0.331507  -0.556426  0  2.356593  0
O  O83  1  0.75556579  0.96405213  0.44173121  1  0  -0.65632  0  2.067878  0  0  -0.577931  0  2.346681  0  0  -0.608544  0  2.331338  0  0  -0.331489  -0.55639  0  2.356519  0
O  O84  1  0.68807405  0.26547458  0.85858238  1  0  -0.628737  0  1.876611  0  0  -0.589237  0  2.089591  0  0  -0.610797  0  2.08004  0  0  -0.342369  -0.574208  0  2.095805  0
O  O85  1  0.18809630  0.23451701  0.64141365  1  0  -0.628701  0  1.876772  0  0  -0.589256  0  2.089727  0  0  -0.610813  0  2.080176  0  0  -0.342385  -0.574236  0  2.095939  0
O  O86  1  0.31190105  0.73450617  0.14141146  1  0  -0.628537  0  1.877659  0  0  -0.589089  0  2.090668  0  0  -0.610632  0  2.081106  0  0  -0.342268  -0.574068  0  2.096879  0
O  O87  1  0.81189440  0.76547973  0.35858299  1  0  -0.628421  0  1.8777  0  0  -0.589002  0  2.090647  0  0  -0.610548  0  2.081099  0  0  -0.342295  -0.573986  0  2.096862  0
O  O88  1  0.50689958  0.87256262  0.68624349  1  0  -0.647005  0  1.994333  0  0  -0.592574  0  2.22087  0  0  -0.616562  0  2.209399  0  0  -0.320651  -0.575725  0  2.228244  0
O  O89  1  0.00690965  0.62743857  0.81375745  1  0  -0.646822  0  1.994872  0  0  -0.592424  0  2.221368  0  0  -0.616421  0  2.209907  0  0  -0.320529  -0.575574  0  2.228738  0
O  O90  1  0.49313791  0.12743880  0.31377361  1  0  -0.647138  0  1.993847  0  0  -0.592749  0  2.2204  0  0  -0.61674  0  2.208928  0  0  -0.320725  -0.575909  0  2.227798  0
O  O91  1  0.99308452  0.37256142  0.18624165  1  0  -0.646821  0  1.994728  0  0  -0.592402  0  2.22127  0  0  -0.616398  0  2.209809  0  0  -0.320545  -0.575547  0  2.228633  0
O  O92  1  0.14426699  0.95206042  0.71533610  1  0  -0.641489  0  2.060388  0  0  -0.578136  0  2.32865  0  0  -0.605657  0  2.312992  0  0  -0.322538  -0.558962  0  2.338843  0
O  O93  1  0.64427034  0.54795756  0.78465967  1  0  -0.641588  0  2.060071  0  0  -0.57827  0  2.328314  0  0  -0.605793  0  2.312647  0  0  -0.322594  -0.55909  0  2.338498  0
O  O94  1  0.85575664  0.04794799  0.28466026  1  0  -0.641549  0  2.060305  0  0  -0.578239  0  2.328574  0  0  -0.605754  0  2.312912  0  0  -0.322576  -0.559058  0  2.338756  0
O  O95  1  0.35571343  0.45205934  0.21533447  1  0  -0.641604  0  2.060255  0  0  -0.578263  0  2.32857  0  0  -0.605785  0  2.3129  0  0  -0.322624  -0.559087  0  2.338771  0
O  O96  1  0.25687720  0.45483482  0.85487340  1  0  -0.795158  0  1.894703  0  0  -0.727509  0  2.099295  0  0  -0.749987  0  2.068136  0  0  -0.550515  -0.711763  0  2.120915  0
O  O97  1  0.75685562  0.04515724  0.64513019  1  0  -0.795206  0  1.894669  0  0  -0.727688  0  2.099206  0  0  -0.750168  0  2.068052  0  0  -0.550534  -0.711941  0  2.120825  0
O  O98  1  0.74311524  0.54516327  0.14513336  1  0  -0.794974  0  1.894782  0  0  -0.7274  0  2.099276  0  0  -0.74988  0  2.068124  0  0  -0.550436  -0.711656  0  2.120893  0
O  O99  1  0.24316108  0.95483844  0.35487316  1  0  -0.795168  0  1.894579  0  0  -0.727519  0  2.099253  0  0  -0.749999  0  2.068094  0  0  -0.55052  -0.711766  0  2.120871  0
