# generated using pymatgen
data_AgPH18C13(N2O)2
_symmetry_space_group_name_H-M   'P 1'
_cell_length_a   6.84521189
_cell_length_b   12.83377088
_cell_length_c   17.81203069
_cell_angle_alpha   90.00028207
_cell_angle_beta   89.99912590
_cell_angle_gamma   90.00073504
_symmetry_Int_Tables_number   1
_chemical_formula_structural   AgPH18C13(N2O)2
_chemical_formula_sum   'Ag4 P4 H72 C52 N16 O8'
_cell_volume   1564.78477724
_cell_formula_units_Z   4
loop_
 _symmetry_equiv_pos_site_id
 _symmetry_equiv_pos_as_xyz
  1  'x, y, z'
loop_
 _atom_site_type_symbol
 _atom_site_label
 _atom_site_symmetry_multiplicity
 _atom_site_fract_x
 _atom_site_fract_y
 _atom_site_fract_z
 _atom_site_occupancy
 _atom_site_pbe_bader_charge
 _atom_site_pbe_bader_spin_density
 _atom_site_pbe_cm5_charge
 _atom_site_pbe_ddec_charge
 _atom_site_pbe_ddec_spin_density
 _atom_site_pbe_ddec_sum_bond_order
 _atom_site_pbe_magmom
Ag  Ag0  1  0.09746729  0.40487120  0.43739298  1  0.416533  0  0.433118  0.219857  0  2.198947  0
Ag  Ag1  1  0.40252693  0.59512752  0.93739155  1  0.416511  0  0.433126  0.219848  0  2.198998  0
Ag  Ag2  1  0.59748061  0.09512182  0.56260748  1  0.416454  0  0.433172  0.219832  0  2.198942  0
Ag  Ag3  1  0.90252239  0.90487839  0.06260658  1  0.416478  0  0.433134  0.219826  0  2.199014  0
P  P4  1  0.37402275  0.50703457  0.42140371  1  1.114528  0  -0.068665  0.220749  0  4.092545  0
P  P5  1  0.12597503  0.49296716  0.92140524  1  1.114572  0  -0.06868  0.220804  0  4.092626  0
P  P6  1  0.87402907  0.99296492  0.57859683  1  1.114978  0  -0.068694  0.220849  0  4.092556  0
P  P7  1  0.62596162  0.00703462  0.07859169  1  1.115059  0  -0.068709  0.22079  0  4.09259  0
H  H8  1  0.93986229  0.51826855  0.63751275  1  0.054887  0  0.097923  0.102847  0  1.039365  0
H  H9  1  0.56013335  0.48174388  0.13751185  1  0.054987  0  0.097902  0.102776  0  1.039445  0
H  H10  1  0.43987281  0.98171580  0.36247842  1  0.054893  0  0.097937  0.102836  0  1.039325  0
H  H11  1  0.06013754  0.01827849  0.86248546  1  0.054809  0  0.097902  0.102767  0  1.039351  0
H  H12  1  0.11238176  0.65059191  0.71539198  1  0.068274  0  0.102178  0.100964  0  0.996353  0
H  H13  1  0.38760814  0.34941847  0.21538647  1  0.068366  0  0.102169  0.101023  0  0.99643  0
H  H14  1  0.61241817  0.84939880  0.28460111  1  0.068025  0  0.10223  0.100986  0  0.996323  0
H  H15  1  0.88760376  0.15059910  0.78461005  1  0.068082  0  0.102196  0.100943  0  0.996313  0
H  H16  1  0.46613625  0.63026013  0.74370884  1  0.057388  0  0.095144  0.100701  0  1.01838  0
H  H17  1  0.03385837  0.36974422  0.24370042  1  0.057487  0  0.095176  0.100724  0  1.018473  0
H  H18  1  0.96617136  0.86973608  0.25629284  1  0.057662  0  0.095123  0.100687  0  1.018249  0
H  H19  1  0.53385316  0.13026161  0.75629367  1  0.05739  0  0.095167  0.100686  0  1.018328  0
H  H20  1  0.64442789  0.47398302  0.69163707  1  0.062082  0  0.096848  0.094936  0  1.036895  0
H  H21  1  0.85555976  0.52602044  0.19163460  1  0.06199  0  0.096857  0.094977  0  1.036736  0
H  H22  1  0.14446013  0.02601109  0.30836985  1  0.061848  0  0.096866  0.095037  0  1.036842  0
H  H23  1  0.35556844  0.97398048  0.80836493  1  0.062063  0  0.096887  0.094967  0  1.036765  0
H  H24  1  0.60943721  0.39326154  0.48505980  1  0.095273  0  0.113632  0.129377  0  1.002358  0
H  H25  1  0.89055631  0.60673933  0.98506297  1  0.095244  0  0.113602  0.129319  0  1.002413  0
H  H26  1  0.10945444  0.10673545  0.51494002  1  0.095315  0  0.113658  0.129402  0  1.002388  0
H  H27  1  0.39054197  0.89326260  0.01493691  1  0.095224  0  0.113667  0.129446  0  1.002334  0
H  H28  1  0.62356276  0.38007649  0.38611762  1  0.080691  0  0.114759  0.125881  0  0.984238  0
H  H29  1  0.87643762  0.61992524  0.88612036  1  0.080732  0  0.114739  0.125933  0  0.984208  0
H  H30  1  0.12356907  0.11992215  0.61388156  1  0.080721  0  0.11477  0.125944  0  0.984212  0
H  H31  1  0.37642194  0.88007738  0.11388017  1  0.081036  0  0.114735  0.125925  0  0.984214  0
H  H32  1  0.44725065  0.53433574  0.28769560  1  0.084489  0  0.103993  0.111195  0  1.035897  0
H  H33  1  0.05275391  0.46566347  0.78769802  1  0.084547  0  0.104014  0.111216  0  1.035782  0
H  H34  1  0.94724660  0.96566346  0.71230283  1  0.084535  0  0.104002  0.111239  0  1.03582  0
H  H35  1  0.55274899  0.03433236  0.21230214  1  0.084524  0  0.103972  0.111189  0  1.03584  0
H  H36  1  0.32920812  0.64422836  0.32634754  1  0.055227  0  0.109631  0.116048  0  0.964085  0
H  H37  1  0.17079782  0.35577191  0.82635002  1  0.058451  0  0.109624  0.116063  0  0.96403  0
H  H38  1  0.82920147  0.85577005  0.67365270  1  0.055261  0  0.109636  0.116055  0  0.964076  0
H  H39  1  0.67078981  0.14422783  0.17364833  1  0.058537  0  0.10961  0.11606  0  0.963996  0
H  H40  1  0.30414403  0.67194945  0.48315684  1  0.05302  0  0.103951  0.101169  0  1.033418  0
H  H41  1  0.19585276  0.32805350  0.98315908  1  0.053055  0  0.103947  0.101164  0  1.033439  0
H  H42  1  0.80414732  0.82804957  0.51684130  1  0.05304  0  0.103954  0.101199  0  1.033449  0
H  H43  1  0.69584582  0.17194875  0.01684024  1  0.053102  0  0.103958  0.101199  0  1.033411  0
H  H44  1  0.40145782  0.58033936  0.54833875  1  0.097347  0  0.103467  0.108629  0  1.039858  0
H  H45  1  0.09853872  0.41966438  0.04834022  1  0.097281  0  0.103424  0.108643  0  1.039886  0
H  H46  1  0.90147031  0.91965875  0.45166107  1  0.097371  0  0.103433  0.108669  0  1.03987  0
H  H47  1  0.59852599  0.08033955  0.95165798  1  0.097253  0  0.103418  0.108641  0  1.039847  0
H  H48  1  0.74682437  0.54180235  0.54525492  1  0.069757  0  0.117916  0.086928  0  0.991997  0
H  H49  1  0.75316910  0.45820630  0.04525899  1  0.069761  0  0.117917  0.08688  0  0.992082  0
H  H50  1  0.24684088  0.95819783  0.45474468  1  0.069777  0  0.117961  0.086975  0  0.991993  0
H  H51  1  0.25315704  0.04180101  0.95474448  1  0.069763  0  0.117963  0.086937  0  0.992006  0
H  H52  1  0.90862418  0.62615984  0.49415655  1  0.059522  0  0.112514  0.071749  0  0.998081  0
H  H53  1  0.59136606  0.37384266  0.99416236  1  0.059236  0  0.11258  0.071852  0  0.997931  0
H  H54  1  0.40863660  0.87383676  0.50584323  1  0.059707  0  0.112545  0.071778  0  0.99802  0
H  H55  1  0.09135725  0.12616278  0.00584543  1  0.059546  0  0.112554  0.071752  0  0.997942  0
H  H56  1  0.93030021  0.60608504  0.35688799  1  0.053653  0  0.112889  0.069698  0  0.987822  0
H  H57  1  0.56970133  0.39391258  0.85689344  1  0.053665  0  0.112888  0.069678  0  0.987794  0
H  H58  1  0.43029743  0.89391093  0.64310997  1  0.053634  0  0.112882  0.069661  0  0.987827  0
H  H59  1  0.06969680  0.10608492  0.14311448  1  0.05341  0  0.112869  0.069748  0  0.987778  0
H  H60  1  0.79228513  0.50507826  0.31300159  1  0.080435  0  0.118076  0.085246  0  0.985392  0
H  H61  1  0.70771815  0.49491984  0.81300433  1  0.080462  0  0.118067  0.085239  0  0.98537  0
H  H62  1  0.29228600  0.99491756  0.68699830  1  0.080506  0  0.118085  0.085285  0  0.985309  0
H  H63  1  0.20770796  0.00507704  0.18699998  1  0.080394  0  0.118078  0.085263  0  0.985414  0
H  H64  1  0.77038336  0.75314902  0.40812430  1  0.055059  0  0.113702  0.072864  0  1.010535  0
H  H65  1  0.72961906  0.24685364  0.90813056  1  0.055116  0  0.113736  0.072901  0  1.010498  0
H  H66  1  0.27037612  0.74684821  0.59187404  1  0.055177  0  0.113733  0.072904  0  1.010513  0
H  H67  1  0.22961285  0.25314961  0.09187699  1  0.055014  0  0.113733  0.072923  0  1.010587  0
H  H68  1  0.51138801  0.76637183  0.40194331  1  0.048105  0  0.114533  0.077234  0  0.983552  0
H  H69  1  0.98861320  0.23362923  0.90194913  1  0.047648  0  0.114539  0.077251  0  0.983554  0
H  H70  1  0.01138020  0.73362754  0.59805543  1  0.048047  0  0.11454  0.077238  0  0.983599  0
H  H71  1  0.48860999  0.26636954  0.09805578  1  0.047624  0  0.114553  0.077257  0  0.983571  0
H  H72  1  0.94755999  0.34299567  0.58585521  1  0.536036  0  0.289554  0.317816  0  0.99524  0
H  H73  1  0.55244063  0.65701016  0.08585439  1  0.536068  0  0.289582  0.317809  0  0.995172  0
H  H74  1  0.44756201  0.15698179  0.41414039  1  0.536394  0  0.289532  0.31778  0  0.995235  0
H  H75  1  0.05244775  0.84301131  0.91414242  1  0.536437  0  0.289551  0.317779  0  0.995235  0
H  H76  1  0.16971801  0.28225013  0.57214474  1  0.481637  0  0.288197  0.288721  0  1.011182  0
H  H77  1  0.33028343  0.71775846  0.07214475  1  0.481781  0  0.288293  0.28894  0  1.010941  0
H  H78  1  0.66970899  0.21773324  0.42785305  1  0.481829  0  0.288161  0.288595  0  1.011386  0
H  H79  1  0.83030141  0.78225320  0.92785043  1  0.481736  0  0.288113  0.288594  0  1.011332  0
C  C80  1  0.51256310  0.31670195  0.61323007  1  1.521405  0  0.190499  0.566514  0  4.242377  0
C  C81  1  0.98742621  0.68330563  0.11322792  1  1.52149  0  0.190567  0.566704  0  4.242201  0
C  C82  1  0.01256830  0.18329283  0.38677145  1  1.522408  0  0.190657  0.566589  0  4.242513  0
C  C83  1  0.48744547  0.81669774  0.88677308  1  1.520993  0  0.190621  0.56684  0  4.242007  0
C  C84  1  0.39454401  0.40927536  0.63829229  1  0.010683  0  -0.037351  -0.165662  0  3.950471  0
C  C85  1  0.10544312  0.59073214  0.13829037  1  0.010869  0  -0.037189  -0.165631  0  3.950579  0
C  C86  1  0.89455936  0.09071420  0.36171598  1  0.01009  0  -0.037282  -0.16539  0  3.949997  0
C  C87  1  0.60545075  0.90927333  0.86170949  1  0.010747  0  -0.037293  -0.165678  0  3.950323  0
C  C88  1  0.19265154  0.42115889  0.62155702  1  0.38385  0  0.09712  0.284594  0  4.02245  0
C  C89  1  0.30734648  0.57885160  0.12155388  1  0.384099  0  0.096904  0.28434  0  4.022528  0
C  C90  1  0.69265717  0.07882697  0.37844345  1  0.384004  0  0.097235  0.284601  0  4.022442  0
C  C91  1  0.80735081  0.92116302  0.87844368  1  0.3839  0  0.097063  0.284494  0  4.022485  0
C  C92  1  0.09503054  0.50976396  0.64977939  1  -0.061968  0  -0.109858  -0.215415  0  3.978905  0
C  C93  1  0.40495905  0.49025142  0.14978212  1  -0.062525  0  -0.109779  -0.215223  0  3.979033  0
C  C94  1  0.59504294  0.99022975  0.35021380  1  -0.061914  0  -0.10989  -0.215468  0  3.978864  0
C  C95  1  0.90496909  0.00976393  0.85021373  1  -0.061777  0  -0.109779  -0.215269  0  3.978812  0
C  C96  1  0.19174781  0.58354010  0.69328635  1  -0.127222  0  -0.094526  -0.067271  0  4.07117  0
C  C97  1  0.30825612  0.41647246  0.19328097  1  -0.126737  0  -0.094502  -0.067401  0  4.071089  0
C  C98  1  0.69177329  0.91645036  0.30671021  1  -0.127004  0  -0.094554  -0.067254  0  4.071111  0
C  C99  1  0.80824485  0.08354613  0.80671657  1  -0.127037  0  -0.094578  -0.067337  0  4.071082  0
C  C100  1  0.39113929  0.57269289  0.70912167  1  -0.013606  0  -0.118257  -0.146671  0  4.075405  0
C  C101  1  0.10884502  0.42731356  0.20911806  1  -0.01363  0  -0.118268  -0.14665  0  4.07519  0
C  C102  1  0.89116128  0.92730360  0.29088775  1  -0.014015  0  -0.118334  -0.146721  0  4.075884  0
C  C103  1  0.60885602  0.07269278  0.79088514  1  -0.013645  0  -0.118336  -0.146622  0  4.075612  0
C  C104  1  0.48931984  0.48612542  0.68081565  1  -0.074314  0  -0.096053  -0.095045  0  4.047446  0
C  C105  1  0.01067729  0.51388082  0.18080841  1  -0.074544  0  -0.096217  -0.095176  0  4.047641  0
C  C106  1  0.98933793  0.01386556  0.31918476  1  -0.073698  0  -0.096109  -0.095305  0  4.047727  0
C  C107  1  0.51068118  0.98612712  0.81918527  1  -0.074318  0  -0.096112  -0.09514  0  4.047613  0
C  C108  1  0.60973389  0.43677857  0.43199013  1  -0.151407  0  -0.079473  -0.213609  0  3.837559  0
C  C109  1  0.89026320  0.56322270  0.93199203  1  -0.151507  0  -0.079441  -0.213643  0  3.837598  0
C  C110  1  0.10974649  0.06321686  0.56800970  1  -0.151447  0  -0.079483  -0.213729  0  3.837655  0
C  C111  1  0.39024635  0.93678157  0.06800729  1  -0.151569  0  -0.079476  -0.213797  0  3.837539  0
C  C112  1  0.44279608  0.58534274  0.33706346  1  -0.116347  0  -0.076159  -0.207215  0  3.892675  0
C  C113  1  0.05720652  0.41465839  0.83706624  1  -0.119537  0  -0.076148  -0.207198  0  3.892833  0
C  C114  1  0.94279421  0.91465488  0.66293668  1  -0.116398  0  -0.076215  -0.207333  0  3.892642  0
C  C115  1  0.55719604  0.08534215  0.16293502  1  -0.119592  0  -0.076096  -0.207275  0  3.892547  0
C  C116  1  0.41766921  0.61220125  0.49145473  1  -0.122596  0  -0.083175  -0.217206  0  3.885822  0
C  C117  1  0.08232433  0.38780098  0.99145728  1  -0.12269  0  -0.083209  -0.217337  0  3.885949  0
C  C118  1  0.91767428  0.88779775  0.50854443  1  -0.122874  0  -0.083183  -0.217335  0  3.885843  0
C  C119  1  0.58232211  0.11220207  0.00854159  1  -0.123142  0  -0.083145  -0.217267  0  3.88588  0
C  C120  1  0.76848633  0.58421534  0.49236147  1  0.589726  0  0.018007  0.003505  0  3.895165  0
C  C121  1  0.73150690  0.41578715  0.99236604  1  0.589812  0  0.017935  0.003396  0  3.895249  0
C  C122  1  0.26849824  0.91577876  0.50763688  1  0.58934  0  0.017923  0.003429  0  3.895319  0
C  C123  1  0.23149846  0.08422001  0.00763756  1  0.589567  0  0.017927  0.003568  0  3.8951  0
C  C124  1  0.79130177  0.56307150  0.35822225  1  0.556393  0  0.01973  0.003318  0  3.916851  0
C  C125  1  0.70870118  0.43692691  0.85822479  1  0.556345  0  0.019706  0.003352  0  3.916905  0
C  C126  1  0.29130010  0.93692353  0.64177765  1  0.556056  0  0.019672  0.00331  0  3.916877  0
C  C127  1  0.20869273  0.06307075  0.14177951  1  0.55674  0  0.019741  0.003177  0  3.916883  0
C  C128  1  0.63131773  0.71044638  0.40935864  1  0.598613  0  0.016952  -0.002676  0  3.948381  0
C  C129  1  0.86868318  0.28955552  0.90936254  1  0.598357  0  0.016919  -0.002647  0  3.948444  0
C  C130  1  0.13131596  0.78955069  0.59063996  1  0.598506  0  0.016941  -0.002697  0  3.948481  0
C  C131  1  0.36867598  0.21044712  0.09064307  1  0.599219  0  0.016901  -0.002795  0  3.9485  0
N  N132  1  0.09469262  0.35125766  0.57542994  1  -1.277762  0  -0.608448  -0.593217  0  3.39043  0
N  N133  1  0.40530285  0.64875172  0.07542983  1  -1.277999  0  -0.608413  -0.593186  0  3.390455  0
N  N134  1  0.59469666  0.14872520  0.42456661  1  -1.278341  0  -0.608418  -0.592984  0  3.390407  0
N  N135  1  0.90531095  0.85126589  0.92456379  1  -1.278445  0  -0.608315  -0.592934  0  3.390473  0
N  N136  1  0.78053445  0.50691442  0.43079112  1  -0.985044  0  -0.343572  -0.120234  0  3.446428  0
N  N137  1  0.71946269  0.49308529  0.93079434  1  -0.984914  0  -0.343554  -0.120192  0  3.446589  0
N  N138  1  0.28054288  0.99308132  0.56920828  1  -0.985014  0  -0.343574  -0.120285  0  3.446579  0
N  N139  1  0.21945138  0.00691711  0.06920709  1  -0.985225  0  -0.34357  -0.120203  0  3.44646  0
N  N140  1  0.63219607  0.63721826  0.34636344  1  -0.991535  0  -0.34205  -0.152053  0  3.4353  0
N  N141  1  0.86781319  0.36278318  0.84636816  1  -0.991625  0  -0.34198  -0.152084  0  3.435533  0
N  N142  1  0.13218920  0.86277881  0.65363514  1  -0.991281  0  -0.341984  -0.151994  0  3.43531  0
N  N143  1  0.36780024  0.13721633  0.15363689  1  -0.991721  0  -0.342051  -0.151885  0  3.435223  0
N  N144  1  0.61118041  0.66084073  0.48338274  1  -1.02628  0  -0.346221  -0.169107  0  3.437602  0
N  N145  1  0.88881318  0.33916169  0.98338725  1  -1.025331  0  -0.346198  -0.169074  0  3.4376  0
N  N146  1  0.11118571  0.83915620  0.51661654  1  -1.026291  0  -0.346239  -0.169121  0  3.437719  0
N  N147  1  0.38880917  0.16084342  0.01661712  1  -1.026097  0  -0.346228  -0.169156  0  3.43774  0
O  O148  1  0.41686042  0.23221354  0.59915994  1  -1.160476  0  -0.344157  -0.515675  0  2.326141  0
O  O149  1  0.08313995  0.76779523  0.09916269  1  -1.160689  0  -0.344271  -0.515893  0  2.326037  0
O  O150  1  0.91686100  0.26777461  0.40084875  1  -1.161253  0  -0.344316  -0.515777  0  2.326366  0
O  O151  1  0.58316216  0.73221086  0.90083338  1  -1.16035  0  -0.344202  -0.515839  0  2.325971  0
O  O152  1  0.69502663  0.32588924  0.60765804  1  -1.17599  0  -0.336358  -0.579453  0  2.198511  0
O  O153  1  0.80497313  0.67411830  0.10765805  1  -1.17613  0  -0.336343  -0.579454  0  2.19854  0
O  O154  1  0.19502846  0.17410988  0.39234241  1  -1.176129  0  -0.336401  -0.579516  0  2.198568  0
O  O155  1  0.30498801  0.82588462  0.89235020  1  -1.175796  0  -0.336429  -0.579623  0  2.198481  0
