# generated using pymatgen
data_NiH28C27N4O7
_symmetry_space_group_name_H-M   'P 1'
_cell_length_a   9.56014797
_cell_length_b   12.10413489
_cell_length_c   12.26368894
_cell_angle_alpha   102.13789994
_cell_angle_beta   92.68627007
_cell_angle_gamma   88.81169039
_symmetry_Int_Tables_number   1
_chemical_formula_structural   NiH28C27N4O7
_chemical_formula_sum   'Ni2 H56 C54 N8 O14'
_cell_volume   1385.78523294
_cell_formula_units_Z   2
loop_
 _symmetry_equiv_pos_site_id
 _symmetry_equiv_pos_as_xyz
  1  'x, y, z'
loop_
 _atom_site_type_symbol
 _atom_site_label
 _atom_site_symmetry_multiplicity
 _atom_site_fract_x
 _atom_site_fract_y
 _atom_site_fract_z
 _atom_site_occupancy
 _atom_site_hle17_ddec_charge
 _atom_site_hle17_ddec_spin_density
 _atom_site_hle17_ddec_sum_bond_order
 _atom_site_hle17_magmom
 _atom_site_hse06_10hf_ddec_charge
 _atom_site_hse06_10hf_ddec_spin_density
 _atom_site_hse06_10hf_ddec_sum_bond_order
 _atom_site_hse06_10hf_magmom
 _atom_site_hse06_ddec_charge
 _atom_site_hse06_ddec_spin_density
 _atom_site_hse06_ddec_sum_bond_order
 _atom_site_hse06_magmom
 _atom_site_pbe_cm5_charge
 _atom_site_pbe_ddec_charge
 _atom_site_pbe_ddec_spin_density
 _atom_site_pbe_ddec_sum_bond_order
 _atom_site_pbe_magmom
Ni  Ni0  1  0.16773991  0.36593906  0.58945175  1  0.736166  0.031344  2.137986  0.016  0.729822  0.018036  2.557957  0.009  0.837598  0.012309  2.46567  0.005  0.635825  0.661662  -0.004968  2.619296  -0.006
Ni  Ni1  1  0.83224966  0.63403954  0.41053656  1  0.736603  -0.031383  2.137348  -0.016  0.730137  -0.018057  2.557274  -0.009  0.837834  -0.01231  2.46518  -0.005  0.635722  0.661904  -0.005015  2.618783  -0.006
H  H2  1  0.37022795  0.25845612  0.71091326  1  0.10108  0.000607  0.970272  0.001  0.107045  0.000704  1.03385  0.001  0.109604  0.000636  1.031084  0.001  0.124954  0.105024  -0.000732  1.036243  -0.001
H  H3  1  0.62973052  0.74154077  0.28908765  1  0.101126  -0.000608  0.970001  -0.001  0.107019  -0.000703  1.033694  -0.001  0.109653  -0.000636  1.030841  -0.001  0.124997  0.105002  -0.000732  1.036075  -0.001
H  H4  1  0.21704016  0.56615281  0.64342586  1  0.419834  8.7e-05  0.87519  -0.001  0.389862  0.00035  0.943585  0.0  0.40243  0.000224  0.925745  0.0  0.292645  0.381272  -0.000423  0.955672  0.0
H  H5  1  0.78296728  0.43381374  0.35657763  1  0.419699  -8.5e-05  0.875484  0.001  0.389831  -0.000349  0.943696  0.0  0.402406  -0.000223  0.92584  0.0  0.292629  0.381237  -0.000422  0.95579  0.0
H  H6  1  0.14464931  0.56211568  0.51768455  1  0.432026  0.000621  0.868407  0.001  0.406258  0.000773  0.924388  0.001  0.417201  0.000613  0.909107  0.001  0.297524  0.398865  -0.000945  0.934646  -0.001
H  H7  1  0.85530731  0.43782373  0.48229071  1  0.431798  -0.00062  0.868816  -0.001  0.406124  -0.000772  0.924601  -0.001  0.41705  -0.000613  0.909354  -0.001  0.297598  0.398744  -0.000946  0.934838  -0.001
H  H8  1  0.37254163  0.09217782  0.80327453  1  0.11427  0.00021  0.946071  0.0  0.123317  0.000182  1.007151  0.0  0.126561  0.000143  1.005997  0.0  0.114294  0.120944  -0.00021  1.008164  0.0
H  H9  1  0.62744462  0.90784827  0.19675191  1  0.11423  -0.00021  0.946024  0.0  0.123253  -0.000183  1.007166  0.0  0.126501  -0.000143  1.005983  0.0  0.114283  0.120866  -0.000211  1.008198  0.0
H  H10  1  0.25375513  0.01756821  0.92045971  1  0.301504  1.7e-05  0.926283  0.0  0.283789  1.4e-05  0.995403  0.0  0.291239  1.2e-05  0.989485  0.0  0.306762  0.278493  -1.6e-05  0.999814  0.0
H  H11  1  0.74623582  0.98244079  0.07953402  1  0.301515  -8e-06  0.926517  0.0  0.283875  -1.4e-05  0.995548  0.0  0.291326  -1.1e-05  0.989622  0.0  0.306685  0.278581  -1.6e-05  0.999962  0.0
H  H12  1  0.41180471  0.72574313  0.82597687  1  0.296599  2e-05  0.944978  0.0  0.274344  1.2e-05  1.017411  0.0  0.283375  6e-06  1.010428  0.0  0.296014  0.267921  0.0  1.022248  0.0
H  H13  1  0.58818412  0.27426927  0.17401178  1  0.296586  -2e-05  0.945109  0.0  0.274334  -1.2e-05  1.017533  0.0  0.283336  -6e-06  1.010587  0.0  0.296028  0.26791  0.0  1.022367  0.0
H  H14  1  0.98413001  0.98843847  0.62104158  1  0.1131  0.00034  0.944502  0.0  0.12206  0.000262  1.002798  0.0  0.124891  0.000203  1.002416  0.0  0.114117  0.120058  -0.000382  1.003242  0.0
H  H15  1  0.01589849  0.01156145  0.37894652  1  0.113177  -0.000341  0.944411  0.0  0.122099  -0.000263  1.002745  0.0  0.124926  -0.000203  1.00237  0.0  0.114131  0.120095  -0.000382  1.003193  0.0
H  H16  1  0.99221393  0.16497791  0.54209522  1  0.101671  0.000694  0.930187  0.001  0.106144  0.000777  0.996639  0.001  0.108312  0.0007  0.993881  0.001  0.126615  0.104381  -0.000791  0.999094  -0.001
H  H17  1  0.00776156  0.83499319  0.45785852  1  0.10164  -0.000691  0.930456  -0.001  0.106047  -0.000778  0.996975  -0.001  0.108221  -0.000701  0.994208  -0.001  0.126601  0.104256  -0.000792  0.999455  -0.001
H  H18  1  0.18245379  0.77527921  0.88582391  1  0.067541  -3e-06  0.901027  0.0  0.082245  2e-06  0.953989  0.0  0.083789  2e-06  0.952549  0.0  0.119643  0.080778  1e-06  0.955489  0.0
H  H19  1  0.81754033  0.22472301  0.11417669  1  0.067513  -2e-06  0.900985  0.0  0.0822  -2e-06  0.953949  0.0  0.083759  -2e-06  0.952516  0.0  0.119648  0.080739  1e-06  0.955443  0.0
H  H20  1  0.14719015  0.96943229  0.08843819  1  0.07633  8e-06  0.932622  0.0  0.092162  -5e-06  0.997211  0.0  0.093406  -5e-06  0.997007  0.0  0.09063  0.091527  2e-06  0.997009  0.0
H  H21  1  0.85280479  0.03056732  0.91154477  1  0.076256  5e-06  0.932647  0.0  0.092092  5e-06  0.997193  0.0  0.093337  5e-06  0.996985  0.0  0.090612  0.091428  2e-06  0.99702  0.0
H  H22  1  0.01275783  0.88890863  0.00650305  1  0.076169  1.5e-05  0.935432  0.0  0.092791  9e-06  0.998309  0.0  0.093861  6e-06  0.998423  0.0  0.091102  0.092038  1.3e-05  0.998372  0.0
H  H23  1  0.98723596  0.11108760  0.99347430  1  0.076166  -1e-05  0.935671  0.0  0.0928  -9e-06  0.998496  0.0  0.093874  -6e-06  0.9986  0.0  0.091099  0.092044  1.3e-05  0.998556  0.0
H  H24  1  0.06217866  0.82601411  0.18754514  1  0.058663  -5e-06  0.962664  0.0  0.075861  1e-06  1.025088  0.0  0.075809  0.0  1.027116  0.0  0.082028  0.07587  3e-06  1.023781  0.0
H  H25  1  0.93780791  0.17399069  0.81243537  1  0.058705  4e-06  0.962516  0.0  0.075879  -1e-06  1.024922  0.0  0.075832  -1e-06  1.026947  0.0  0.082064  0.07589  3e-06  1.023617  0.0
H  H26  1  0.09819482  0.71600234  0.07296075  1  0.059214  0.0  0.936536  0.0  0.079955  3e-06  0.995772  0.0  0.080316  3e-06  0.996676  0.0  0.086957  0.079354  6e-06  0.995543  0.0
H  H27  1  0.90178238  0.28400432  0.92702314  1  0.059063  -2e-06  0.936619  0.0  0.079838  -3e-06  0.99582  0.0  0.080197  -3e-06  0.996724  0.0  0.086919  0.07924  6e-06  0.995587  0.0
H  H28  1  0.29351138  0.73260921  0.21835134  1  0.068704  -3e-06  0.961403  0.0  0.086842  -3e-06  1.021644  0.0  0.08691  -4e-06  1.023592  0.0  0.087026  0.086688  7e-06  1.02031  0.0
H  H29  1  0.70646390  0.26740427  0.78164203  1  0.069118  1e-06  0.961577  0.0  0.087202  3e-06  1.021784  0.0  0.087273  4e-06  1.023731  0.0  0.08715  0.087049  7e-06  1.020446  0.0
H  H30  1  0.31842629  0.87518798  0.20952719  1  0.053992  3e-06  0.925633  0.0  0.075032  -4e-06  0.981489  0.0  0.075516  -3e-06  0.982096  0.0  0.083858  0.07492  -8e-06  0.980763  0.0
H  H31  1  0.68155009  0.12481792  0.79047608  1  0.054061  -6e-06  0.925667  0.0  0.075124  4e-06  0.98147  0.0  0.075617  3e-06  0.982068  0.0  0.083863  0.075  -8e-06  0.980758  0.0
H  H32  1  0.34289113  0.66824516  0.01777354  1  0.074404  -4e-06  0.941268  0.0  0.093974  0.0  1.001395  0.0  0.094242  0.0  1.002651  0.0  0.093044  0.093569  0.0  1.000764  0.0
H  H33  1  0.65709990  0.33176892  0.98222287  1  0.074304  -5e-06  0.941225  0.0  0.093836  -0.0  1.001393  0.0  0.094111  -0.0  1.00265  0.0  0.092998  0.093431  0.0  1.000762  0.0
H  H34  1  0.48783916  0.74241729  0.09131703  1  0.070432  -7e-06  0.94992  0.0  0.088645  -2e-06  1.01257  0.0  0.088871  -2e-06  1.013394  0.0  0.09084  0.088403  2e-06  1.012142  0.0
H  H35  1  0.51214153  0.25759784  0.90868988  1  0.07045  2e-06  0.950013  0.0  0.088672  2e-06  1.012587  0.0  0.088883  2e-06  1.013449  0.0  0.090895  0.088442  2e-06  1.012128  0.0
H  H36  1  0.41525906  0.91553935  0.02649713  1  0.056885  -2e-06  0.921334  0.0  0.067572  -3e-06  0.984544  0.0  0.068836  -3e-06  0.983398  0.0  0.110464  0.066635  -8e-06  0.985533  0.0
H  H37  1  0.58472252  0.08446982  0.97350045  1  0.056869  3e-06  0.921235  0.0  0.067558  4e-06  0.984506  0.0  0.068811  3e-06  0.983347  0.0  0.110469  0.06662  -8e-06  0.985497  0.0
H  H38  1  0.44823593  0.77686582  0.66908123  1  0.1199  0.000153  0.937397  0.0  0.129985  0.000154  0.992885  0.0  0.133293  0.000117  0.991826  0.0  0.115582  0.127356  0.000166  0.994263  0.0
H  H39  1  0.55177531  0.22315056  0.33094070  1  0.119894  -0.000149  0.937417  0.0  0.130072  -0.000154  0.992781  0.0  0.133388  -0.000117  0.99171  0.0  0.11561  0.127386  0.000165  0.994224  0.0
H  H40  1  0.55451111  0.69671659  0.48675309  1  0.101044  0.000538  0.95282  0.001  0.108204  0.000573  1.013751  0.001  0.110812  0.000522  1.010841  0.001  0.123205  0.106116  0.000649  1.016338  0.001
H  H41  1  0.44550831  0.30327853  0.51326801  1  0.10122  -0.000536  0.952426  -0.001  0.108192  -0.000572  1.013596  -0.001  0.11079  -0.000522  1.01069  -0.001  0.123233  0.106108  0.000649  1.016181  0.001
H  H42  1  0.94983872  0.68247036  0.63836463  1  0.112084  0.001078  0.931887  0.001  0.115577  0.001326  0.999763  0.001  0.11869  0.00113  0.995439  0.001  0.126881  0.112891  0.001078  1.003728  0.002
H  H43  1  0.05017210  0.31751305  0.36164567  1  0.112132  -0.001083  0.931878  -0.001  0.115624  -0.001325  0.999728  -0.001  0.118732  -0.00113  0.995414  -0.001  0.126953  0.112936  0.001076  1.003698  0.002
H  H44  1  0.86071943  0.76440381  0.82680785  1  0.116911  0.000286  0.933507  0.0  0.127101  0.000254  0.990997  0.0  0.130638  0.000194  0.989557  0.0  0.114937  0.124571  0.000319  0.992305  0.0
H  H45  1  0.13931680  0.23559612  0.17321472  1  0.116865  -0.000278  0.933465  0.0  0.127053  -0.000253  0.99101  0.0  0.130597  -0.000194  0.989564  0.0  0.114947  0.124523  0.000318  0.992319  0.0
H  H46  1  0.51441855  0.58680173  0.94339446  1  0.089949  1.5e-05  0.990249  0.0  0.098486  1.9e-05  1.059994  0.0  0.101243  1.6e-05  1.059147  0.0  0.099241  0.096438  -1e-05  1.060858  0.0
H  H47  1  0.48559362  0.41321880  0.05661448  1  0.090015  -2.1e-05  0.990084  0.0  0.098541  -1.9e-05  1.059843  0.0  0.101309  -1.6e-05  1.05896  0.0  0.099252  0.09649  -1.1e-05  1.060718  0.0
H  H48  1  0.66649662  0.62532446  0.10142632  1  0.101579  7e-06  0.968445  0.0  0.121346  1.1e-05  1.034195  0.0  0.12222  1e-05  1.034801  0.0  0.087153  0.120621  6e-06  1.034038  0.0
H  H49  1  0.33350716  0.37470547  0.89857451  1  0.101686  -8e-06  0.968605  0.0  0.121422  -1.1e-05  1.034373  0.0  0.122298  -1e-05  1.034978  0.0  0.087208  0.12071  6e-06  1.034193  0.0
H  H50  1  0.83058267  0.67591707  0.07252086  1  0.110377  -7e-06  0.940707  0.0  0.133477  5e-06  1.000467  0.0  0.13475  4e-06  1.000699  0.0  0.090801  0.132586  1.1e-05  1.000446  0.0
H  H51  1  0.16942862  0.32412711  0.92748473  1  0.110516  1e-05  0.940798  0.0  0.133754  -5e-06  1.000373  0.0  0.135028  -4e-06  1.000607  0.0  0.090952  0.132856  1.1e-05  1.000357  0.0
H  H52  1  0.81855048  0.54039353  0.10253239  1  0.12442  3e-05  0.956294  0.0  0.143933  2.8e-05  1.019734  0.0  0.146932  2e-06  1.017415  0.0  0.093026  0.141579  4.9e-05  1.021524  0.0
H  H53  1  0.18148354  0.45965271  0.89744575  1  0.124704  -3.2e-05  0.956114  0.0  0.144143  -2.8e-05  1.019616  0.0  0.147144  -2e-06  1.0173  0.0  0.093256  0.141787  4.9e-05  1.021406  0.0
H  H54  1  0.95212789  0.50765878  0.90055833  1  0.099128  -0.000165  0.959091  0.0  0.110662  -0.00014  1.021981  0.0  0.114431  -9.9e-05  1.019067  0.0  0.103008  0.107764  0.000143  1.024384  0.0
H  H55  1  0.04787667  0.49233063  0.09944975  1  0.099315  0.000139  0.958896  0.0  0.110807  0.00014  1.021832  0.0  0.114577  0.0001  1.018921  0.0  0.103066  0.107911  0.000144  1.024228  0.0
H  H56  1  0.65761941  0.42374421  0.62155906  1  0.105585  2.7e-05  0.945688  0.0  0.114321  6.5e-05  1.008937  0.0  0.118677  4.8e-05  1.005129  0.0  0.105045  0.111163  2.7e-05  1.011651  0.0
H  H57  1  0.34237062  0.57625643  0.37845169  1  0.105527  -2.2e-05  0.945717  0.0  0.114337  -6.5e-05  1.008889  0.0  0.118694  -4.8e-05  1.005077  0.0  0.105056  0.111171  2.7e-05  1.011607  0.0
C  C58  1  0.28684083  0.19626946  0.69457142  1  0.126602  -0.002072  3.652683  -0.002  0.097648  0.000286  3.907429  -0.001  0.107218  -0.000455  3.924896  -0.001  0.052921  0.0904  -0.001041  3.897024  0.0
C  C59  1  0.71311797  0.80375111  0.30544004  1  0.126633  0.00207  3.652117  0.002  0.097675  -0.000283  3.906846  0.001  0.107194  0.000456  3.92428  0.001  0.052881  0.09044  -0.00104  3.89642  0.0
C  C60  1  0.28649843  0.10364640  0.74498599  1  -0.139534  0.003687  3.715559  0.003  -0.159071  0.001886  3.959488  0.002  -0.164816  0.001795  3.977943  0.002  -0.076731  -0.155419  -0.001913  3.948118  -0.002
C  C61  1  0.71348354  0.89637973  0.25503218  1  -0.139312  -0.003676  3.715202  -0.003  -0.158859  -0.001891  3.959092  -0.002  -0.164596  -0.001799  3.977539  -0.002  -0.07671  -0.155203  -0.001919  3.94773  -0.002
C  C62  1  0.17567638  0.02764417  0.72040156  1  0.015365  -0.00242  3.738211  -0.002  0.032081  -0.000488  3.968675  0.0  0.03363  -0.000876  3.986539  -0.001  0.011166  0.029922  -0.000167  3.957667  0.0
C  C63  1  0.82432800  0.97235024  0.27958714  1  0.015205  0.002389  3.738448  0.002  0.032024  0.000495  3.968782  0.0  0.033568  0.000883  3.986642  0.001  0.011087  0.029879  -0.000159  3.957781  0.0
C  C64  1  0.07065961  0.04717548  0.64310332  1  -0.126931  0.003828  3.718856  0.004  -0.144486  0.002246  3.960766  0.002  -0.150525  0.002172  3.979519  0.002  -0.072754  -0.140523  -0.002298  3.949009  -0.002
C  C65  1  0.92935518  0.95283306  0.35686982  1  -0.12688  -0.003808  3.718908  -0.004  -0.144446  -0.002252  3.960795  -0.002  -0.15048  -0.002175  3.979542  -0.002  -0.072695  -0.140492  -0.002304  3.949033  -0.002
C  C66  1  0.07544998  0.14303593  0.59790493  1  0.113155  -0.001336  3.666475  -0.002  0.083392  0.000782  3.926467  0.0  0.09337  6.9e-05  3.943896  -0.001  0.050942  0.075824  -0.001514  3.915974  -0.001
C  C67  1  0.92452900  0.85696470  0.40205657  1  0.113157  0.001311  3.666555  0.002  0.083413  -0.000782  3.926437  0.0  0.093389  -7.1e-05  3.943857  0.001  0.050948  0.075879  -0.001516  3.915932  -0.001
C  C68  1  0.16601591  0.92584471  0.77191584  1  0.522588  0.000258  3.884491  0.0  0.477866  0.000148  4.176596  0.0  0.506473  9.4e-05  4.17485  0.0  0.232598  0.458721  -0.00022  4.177779  0.0
C  C69  1  0.83398744  0.07415730  0.22806868  1  0.522468  -0.000208  3.883998  0.0  0.477677  -0.000149  4.176148  0.0  0.506296  -9.9e-05  4.174378  0.0  0.232604  0.458508  -0.00022  4.177368  0.0
C  C70  1  0.21903706  0.85293013  0.94328397  1  0.133109  2.2e-05  3.571246  0.0  0.11294  -7e-06  3.811961  0.0  0.117229  -8e-06  3.825728  0.0  0.017321  0.110358  1.3e-05  3.802389  0.0
C  C71  1  0.78096218  0.14707786  0.05670328  1  0.133529  1e-06  3.570877  0.0  0.113371  7e-06  3.811511  0.0  0.117563  8e-06  3.825394  0.0  0.01741  0.110787  1.3e-05  3.801933  0.0
C  C72  1  0.12056870  0.88406508  0.04081469  1  -0.162442  -5.8e-05  3.66145  0.0  -0.207795  1e-06  3.924405  0.0  -0.209745  -1e-06  3.938207  0.0  -0.166428  -0.206161  9e-06  3.914352  0.0
C  C73  1  0.87942209  0.11593713  0.95916950  1  -0.162413  2.4e-05  3.661734  0.0  -0.207732  0.0  3.92449  0.0  -0.209657  2e-06  3.938318  0.0  -0.166338  -0.206081  9e-06  3.914452  0.0
C  C74  1  0.13257352  0.80033503  0.11824852  1  -0.098567  1.4e-05  3.698089  0.0  -0.136142  4e-06  3.959077  0.0  -0.137097  2e-06  3.974313  0.0  -0.168334  -0.135356  1.7e-05  3.948683  0.0
C  C75  1  0.86740988  0.19966813  0.88173075  1  -0.098331  5e-06  3.698272  0.0  -0.135892  -4e-06  3.959099  0.0  -0.136854  -4e-06  3.974346  0.0  -0.168288  -0.135104  1.7e-05  3.948693  0.0
C  C76  1  0.28407227  0.79169362  0.16159794  1  -0.102567  -3.6e-05  3.698273  0.0  -0.141307  -1e-06  3.95837  0.0  -0.142459  1e-06  3.973754  0.0  -0.168624  -0.140391  4e-06  3.947521  0.0
C  C77  1  0.71591763  0.20831792  0.83839302  1  -0.103244  2.4e-05  3.698961  0.0  -0.14201  3e-06  3.958988  0.0  -0.143164  2e-06  3.974378  0.0  -0.168794  -0.141083  4e-06  3.948142  0.0
C  C78  1  0.37814891  0.75208927  0.06339679  1  -0.158917  1.3e-05  3.664775  0.0  -0.203978  -1.5e-05  3.925646  0.0  -0.205677  -1.3e-05  3.939867  0.0  -0.163915  -0.2026  -1e-06  3.916004  0.0
C  C79  1  0.62183688  0.24791900  0.93660317  1  -0.158821  2e-05  3.664855  0.0  -0.203774  1.5e-05  3.925602  0.0  -0.205488  1.3e-05  3.939797  0.0  -0.163885  -0.202389  -2e-06  3.915958  0.0
C  C80  1  0.37167659  0.83370466  0.98310157  1  0.129711  -2.8e-05  3.584866  0.0  0.107618  -1.4e-05  3.828467  0.0  0.111793  -1.5e-05  3.842633  0.0  0.012355  0.104864  7e-06  3.818719  0.0
C  C81  1  0.62830910  0.16630442  0.01688958  1  0.12972  2.5e-05  3.584786  0.0  0.107481  1.3e-05  3.828536  0.0  0.11174  1.3e-05  3.842615  0.0  0.012227  0.104725  7e-06  3.818789  0.0
C  C82  1  0.58770322  0.82048637  0.87703145  1  0.536908  0.000256  3.853256  0.0  0.49028  0.000123  4.144378  0.0  0.5193  9.8e-05  4.141826  0.0  0.237701  0.470516  0.000145  4.146137  0.0
C  C83  1  0.41230345  0.17950638  0.12297493  1  0.536623  -0.000223  3.854095  0.0  0.490012  -0.000123  4.145136  0.0  0.519028  -0.000101  4.142579  0.0  0.237581  0.470254  0.000145  4.146891  0.0
C  C84  1  0.64614616  0.77505090  0.76430871  1  -0.003368  -0.002979  3.744988  -0.002  0.013974  -0.001243  3.97835  -0.001  0.014493  -0.001462  3.997575  -0.001  0.006332  0.012969  -0.001035  3.96588  -0.001
C  C85  1  0.35388059  0.22494916  0.23570871  1  -0.003238  0.002998  3.744553  0.003  0.014148  0.001242  3.977852  0.001  0.014671  0.001461  3.997072  0.001  0.006429  0.013136  -0.001031  3.965368  -0.001
C  C86  1  0.55996539  0.75748824  0.66665366  1  -0.131817  0.00361  3.72254  0.003  -0.153171  0.001841  3.969149  0.002  -0.158882  0.001821  3.988286  0.002  -0.0786  -0.149477  0.001913  3.957155  0.002
C  C87  1  0.44005024  0.24253486  0.33338119  1  -0.13188  -0.003627  3.722743  -0.003  -0.153271  -0.00184  3.969224  -0.002  -0.158991  -0.001819  3.988356  -0.002  -0.078687  -0.14952  0.001909  3.957243  0.002
C  C88  1  0.61746081  0.71339131  0.56465977  1  0.115562  -0.003288  3.669496  -0.003  0.087063  -0.001112  3.926145  -0.001  0.096589  -0.001678  3.943877  -0.002  0.043139  0.079735  -0.000619  3.915852  -0.001
C  C89  1  0.38254933  0.28661244  0.43536689  1  0.115618  0.003275  3.669709  0.003  0.087117  0.001111  3.926511  0.001  0.096661  0.001676  3.944197  0.002  0.043237  0.079787  -0.000615  3.916225  -0.001
C  C90  1  0.83951811  0.70461183  0.64898392  1  0.125873  -0.000751  3.634502  -0.001  0.095265  0.001642  3.900894  0.001  0.105081  0.000786  3.917699  0.0  0.054528  0.087988  0.002238  3.89125  0.001
C  C91  1  0.16049081  0.29537588  0.35104025  1  0.126025  0.000783  3.634223  0.001  0.095428  -0.00164  3.900539  -0.001  0.105226  -0.000786  3.917345  0.0  0.054692  0.088148  0.002235  3.890921  0.001
C  C92  1  0.78890657  0.75018305  0.75381490  1  -0.105622  0.004805  3.689651  0.005  -0.128348  0.003087  3.937495  0.003  -0.133656  0.00297  3.956435  0.003  -0.068533  -0.12499  0.003235  3.925566  0.003
C  C93  1  0.21111403  0.24981631  0.24621525  1  -0.10566  -0.004836  3.689558  -0.005  -0.12848  -0.003084  3.93742  -0.003  -0.133797  -0.002968  3.956373  -0.003  -0.068763  -0.125108  0.003229  3.925485  0.003
C  C94  1  0.42387631  0.50612405  0.72681431  1  0.65296  -1.7e-05  3.90442  0.0  0.604424  -6.3e-05  4.202501  0.0  0.639594  2.5e-05  4.194382  0.0  0.211686  0.580776  -0.000134  4.206685  0.0
C  C95  1  0.57616308  0.49389941  0.27319277  1  0.652657  4.3e-05  3.904764  0.0  0.604221  6.4e-05  4.202833  0.0  0.639402  -2.8e-05  4.194715  0.0  0.211462  0.580566  -0.000135  4.207001  0.0
C  C96  1  0.57028110  0.50856149  0.77710198  1  -0.057534  -0.001624  3.79609  -0.002  -0.033142  -0.000705  4.035412  -0.001  -0.040247  -0.000421  4.058164  0.0  -0.020148  -0.028257  0.000675  4.018977  0.001
C  C97  1  0.42974572  0.49145291  0.22291103  1  -0.057252  0.001532  3.796004  0.001  -0.033086  0.000706  4.035607  0.001  -0.040198  0.000422  4.058375  0.0  -0.020086  -0.028195  0.000674  4.019157  0.001
C  C98  1  0.59978606  0.55270996  0.89037593  1  -0.13674  -0.000244  3.709067  0.0  -0.170592  -0.000312  3.95577  0.0  -0.171802  -0.000241  3.97692  0.0  -0.09029  -0.169356  -0.000375  3.941188  0.0
C  C99  1  0.40022809  0.44728187  0.10964434  1  -0.136656  0.000348  3.708749  0.0  -0.170474  0.00031  3.955551  0.0  -0.171679  0.000241  3.976702  0.0  -0.090159  -0.169235  -0.000373  3.940969  0.0
C  C100  1  0.73618628  0.55275374  0.93729352  1  0.139992  -9.6e-05  3.772114  0.0  0.170486  -1.9e-05  4.009982  0.0  0.16967  -3e-06  4.034925  0.0  -0.010502  0.170989  5.3e-05  3.99262  0.0
C  C101  1  0.26383415  0.44725651  0.06271275  1  0.139802  -2.2e-05  3.772481  0.0  0.170376  1.9e-05  4.010194  0.0  0.169566  3e-06  4.035128  0.0  -0.010606  0.170873  5.2e-05  3.992846  0.0
C  C102  1  0.76433370  0.60063131  0.05926226  1  -0.338432  0.000192  3.723097  0.0  -0.423757  0.00011  3.963086  0.0  -0.426071  5.9e-05  3.972189  0.0  -0.243969  -0.421824  7e-05  3.95687  0.0
C  C103  1  0.23567974  0.39941706  0.94074425  1  -0.339002  -0.000198  3.723797  0.0  -0.424438  -0.000109  3.963902  0.0  -0.426763  -5.9e-05  3.973005  0.0  -0.244345  -0.422499  7e-05  3.957687  0.0
C  C104  1  0.84425822  0.50786185  0.86748729  1  -0.127875  -0.000463  3.686582  0.0  -0.160914  -0.000621  3.928822  0.0  -0.159702  -0.000488  3.945894  0.0  -0.084175  -0.161327  6.4e-05  3.917382  0.0
C  C105  1  0.15575058  0.49212582  0.13252626  1  -0.127785  0.000678  3.686211  0.0  -0.160777  0.000624  3.928419  0.0  -0.159607  0.000487  3.94545  0.0  -0.084103  -0.161164  6.7e-05  3.916999  0.0
C  C106  1  0.81571174  0.46149540  0.75422426  1  -0.064786  0.001107  3.806328  0.001  -0.037277  0.000869  4.039429  0.001  -0.044255  0.000584  4.060843  0.001  -0.020696  -0.033019  -0.001126  4.025271  -0.002
C  C107  1  0.18429812  0.53849478  0.24578902  1  -0.064956  -0.00123  3.806202  -0.002  -0.037483  -0.000872  4.039358  -0.001  -0.044335  -0.000586  4.060601  -0.001  -0.020752  -0.033296  -0.001129  4.025296  -0.002
C  C108  1  0.67860841  0.46133256  0.70940716  1  -0.091644  0.000496  3.732091  0.0  -0.132206  7.5e-05  3.985753  0.0  -0.1316  5.1e-05  4.004374  0.0  -0.085878  -0.132175  0.000519  3.972771  0.001
C  C109  1  0.32140154  0.53867197  0.29060335  1  -0.091789  -0.000423  3.732063  0.0  -0.132303  -7.3e-05  3.985761  0.0  -0.131737  -4.6e-05  4.004352  0.0  -0.086019  -0.132245  0.000521  3.972801  0.001
C  C110  1  0.92829094  0.40956347  0.67915291  1  0.62693  -0.000341  3.881073  0.001  0.581202  -0.001855  4.180373  0.0  0.617325  -0.001466  4.178226  0.0  0.206854  0.55663  0.001743  4.180566  0.0
C  C111  1  0.07168800  0.59039673  0.32083540  1  0.627496  0.000335  3.88149  -0.001  0.581758  0.001854  4.180747  0.0  0.617852  0.001467  4.178567  0.0  0.206977  0.55721  0.001742  4.180939  0.0
N  N112  1  0.18151054  0.21727737  0.62436380  1  -0.250037  0.039313  3.360504  0.038  -0.207232  0.027715  3.65451  0.026  -0.241642  0.024812  3.675583  0.023  -0.328576  -0.184834  -0.028744  3.641353  -0.027
N  N113  1  0.81846747  0.78270898  0.37561433  1  -0.250494  -0.039435  3.360315  -0.038  -0.207447  -0.027788  3.654058  -0.026  -0.241842  -0.024868  3.675157  -0.023  -0.328613  -0.185057  -0.02883  3.640885  -0.028
N  N114  1  0.75475471  0.68588184  0.55586190  1  -0.26457  0.035908  3.369996  0.035  -0.225546  0.027438  3.675826  0.026  -0.260545  0.024761  3.69713  0.023  -0.333342  -0.203145  0.029518  3.662638  0.027
N  N115  1  0.24525519  0.31409994  0.44416108  1  -0.26484  -0.035828  3.370314  -0.035  -0.225696  -0.027383  3.676005  -0.026  -0.260679  -0.024724  3.697248  -0.023  -0.33361  -0.203314  0.029446  3.662869  0.027
N  N116  1  0.21607766  0.94098688  0.87877593  1  -0.453771  -0.000227  3.324334  0.0  -0.406752  -7.9e-05  3.579224  0.0  -0.428646  -9.7e-05  3.589181  0.0  -0.418663  -0.392161  4.3e-05  3.5722  0.0
N  N117  1  0.78392992  0.05902097  0.12120828  1  -0.45404  0.000151  3.324693  0.0  -0.40701  8e-05  3.579312  0.0  -0.428898  9.9e-05  3.589318  0.0  -0.418647  -0.392404  4.4e-05  3.572282  0.0
N  N118  1  0.45329985  0.79333712  0.88496573  1  -0.460006  -0.000116  3.327057  0.0  -0.408839  -4.6e-05  3.58151  0.0  -0.43155  -6.6e-05  3.591412  0.0  -0.416444  -0.39309  -5.7e-05  3.574176  0.0
N  N119  1  0.54670054  0.20666500  0.11503503  1  -0.460021  0.000111  3.327362  0.0  -0.408876  4.6e-05  3.5818  0.0  -0.431605  6.8e-05  3.591762  0.0  -0.416475  -0.393129  -5.7e-05  3.574476  0.0
O  O120  1  0.38673104  0.41180604  0.66723320  1  -0.631046  0.001423  2.074332  0.001  -0.591653  0.002914  2.330892  0.003  -0.624321  0.002374  2.318114  0.002  -0.31182  -0.569174  -0.004059  2.339207  -0.004
O  O121  1  0.61335332  0.58820909  0.33277514  1  -0.630578  -0.001411  2.07497  -0.001  -0.591376  -0.002909  2.331692  -0.003  -0.624067  -0.002369  2.318921  -0.002  -0.311517  -0.568874  -0.00406  2.340005  -0.004
O  O122  1  0.14613275  0.52775261  0.58522645  1  -0.778016  0.032011  1.999177  0.032  -0.743502  0.023237  2.212043  0.023  -0.783692  0.020498  2.178068  0.02  -0.563264  -0.714672  -0.023911  2.234459  -0.024
O  O123  1  0.85387111  0.47216838  0.41477335  1  -0.777908  -0.032099  1.999523  -0.032  -0.743477  -0.023284  2.211992  -0.023  -0.783635  -0.020529  2.178035  -0.02  -0.56336  -0.714651  -0.023976  2.234413  -0.024
O  O124  1  0.05435086  0.41058087  0.72122252  1  -0.528141  -0.039449  2.048753  -0.042  -0.505414  -0.024857  2.320987  -0.026  -0.554658  -0.020462  2.319476  -0.021  -0.294618  -0.470402  0.027599  2.320343  0.028
O  O125  1  0.94565389  0.58938216  0.27873206  1  -0.528541  0.039564  2.048742  0.042  -0.505862  0.024929  2.321079  0.026  -0.555086  0.020509  2.319588  0.022  -0.294612  -0.470853  0.027696  2.320427  0.028
O  O126  1  0.89825101  0.36597765  0.57755346  1  -0.632879  -0.006455  1.979357  -0.006  -0.591189  -0.004884  2.209363  -0.004  -0.618925  -0.003388  2.195493  -0.003  -0.318067  -0.571565  0.005127  2.218463  0.005
O  O127  1  0.10167553  0.63395223  0.42245240  1  -0.633174  0.006467  1.979947  0.006  -0.591402  0.00489  2.209958  0.004  -0.619166  0.003389  2.19609  0.003  -0.318093  -0.571746  0.005138  2.219046  0.005
O  O128  1  0.34781555  0.59568533  0.74451928  1  -0.627078  -0.001713  1.952183  -0.002  -0.569634  -0.001128  2.165948  -0.002  -0.593927  -0.000838  2.155278  -0.001  -0.314672  -0.552123  0.000825  2.172376  0.001
O  O129  1  0.65220466  0.40432149  0.25547161  1  -0.627085  0.001703  1.951835  0.002  -0.569598  0.001127  2.165481  0.001  -0.593891  0.000837  2.154827  0.001  -0.314625  -0.552075  0.000825  2.171892  0.001
O  O130  1  0.11407955  0.83683567  0.71698012  1  -0.544699  3.8e-05  1.882656  0.0  -0.510318  0.000218  2.094231  0.0  -0.529854  0.000107  2.087299  0.0  -0.307854  -0.497214  -0.000402  2.099203  0.0
O  O131  1  0.88591358  0.16317247  0.28302084  1  -0.54466  -2.7e-05  1.882325  0.0  -0.510269  -0.000221  2.093908  0.0  -0.529814  -0.000107  2.086975  0.0  -0.307929  -0.497157  -0.000402  2.098892  0.0
O  O132  1  0.66092478  0.88013043  0.95375538  1  -0.581327  -0.000233  1.93095  0.0  -0.542799  -0.000103  2.163822  0.0  -0.561922  -0.000111  2.155148  0.0  -0.313899  -0.529932  -0.000103  2.170133  0.0
O  O133  1  0.33909662  0.11984105  0.04627318  1  -0.581102  0.000208  1.931626  0.0  -0.542519  0.000102  2.164375  0.0  -0.561634  0.000113  2.155706  0.0  -0.313724  -0.529659  -0.000102  2.170697  0.0
