# generated using pymatgen
data_CuH32C40(N9O4)2
_symmetry_space_group_name_H-M   'P 1'
_cell_length_a   7.94722158
_cell_length_b   8.40056815
_cell_length_c   17.19249903
_cell_angle_alpha   77.45970690
_cell_angle_beta   80.32875354
_cell_angle_gamma   65.51183236
_symmetry_Int_Tables_number   1
_chemical_formula_structural   CuH32C40(N9O4)2
_chemical_formula_sum   'Cu1 H32 C40 N18 O8'
_cell_volume   1015.68739740
_cell_formula_units_Z   1
loop_
 _symmetry_equiv_pos_site_id
 _symmetry_equiv_pos_as_xyz
  1  'x, y, z'
loop_
 _atom_site_type_symbol
 _atom_site_label
 _atom_site_symmetry_multiplicity
 _atom_site_fract_x
 _atom_site_fract_y
 _atom_site_fract_z
 _atom_site_occupancy
 _atom_site_pbe_cm5_charge
 _atom_site_pbe_ddec_charge
 _atom_site_pbe_ddec_spin_density
 _atom_site_pbe_ddec_sum_bond_order
 _atom_site_pbe_magmom
Cu  Cu0  1  0.99999969  0.99999884  0.99999932  1  0.791914  0.741282  -0.739951  2.342025  -0.586
H  H1  1  0.23549549  0.09156691  0.27042924  1  0.102523  0.108202  1.1e-05  1.038506  0.0
H  H2  1  0.76450100  0.90842562  0.72957197  1  0.102545  0.108246  1.1e-05  1.038524  0.0
H  H3  1  0.00615767  0.36419686  0.19936022  1  0.095962  0.094143  1.2e-05  1.037547  0.0
H  H4  1  0.99384172  0.63580100  0.80063962  1  0.095949  0.094128  1.2e-05  1.037583  0.0
H  H5  1  0.76126030  0.54651872  0.42345721  1  0.098743  0.098774  5e-06  1.070444  0.0
H  H6  1  0.23873979  0.45348048  0.57654360  1  0.098751  0.098773  5e-06  1.070479  0.0
H  H7  1  0.99175101  0.27328165  0.49571738  1  0.106267  0.111947  -1e-06  0.990619  0.0
H  H8  1  0.00824456  0.72671619  0.50428275  1  0.106258  0.111933  -1e-06  0.990596  0.0
H  H9  1  0.66080341  0.60991553  0.22261975  1  0.115401  0.10091  -0.000123  1.030635  0.0
H  H10  1  0.33919430  0.39008632  0.77738095  1  0.115395  0.100879  -0.000123  1.03068  0.0
H  H11  1  0.62792147  0.72248506  0.30401647  1  0.119543  0.118608  -9.3e-05  1.002774  0.0
H  H12  1  0.37208191  0.27751547  0.69598279  1  0.119537  0.118614  -9.3e-05  1.002748  0.0
H  H13  1  0.76219285  0.76156234  0.09305866  1  0.143014  0.117283  -8.1e-05  1.03225  0.0
H  H14  1  0.23780652  0.23843553  0.90694177  1  0.142999  0.117266  -8.1e-05  1.03225  0.0
H  H15  1  0.09148368  0.95341798  0.18393985  1  0.137921  0.107208  -2.4e-05  1.004813  0.0
H  H16  1  0.90851588  0.04658254  0.81605970  1  0.137924  0.107204  -2.4e-05  1.004809  0.0
H  H17  1  0.29207173  0.99032327  0.65402622  1  0.103698  0.104999  -4.7e-05  1.028014  0.0
H  H18  1  0.70792456  0.00967590  0.34597372  1  0.103702  0.104998  -4.7e-05  1.02802  0.0
H  H19  1  0.37294065  0.86113897  0.79199841  1  0.0985  0.095276  8.6e-05  1.044026  0.0
H  H20  1  0.62705547  0.13885754  0.20800183  1  0.098509  0.095312  8.6e-05  1.044002  0.0
H  H21  1  0.71096260  0.35468489  0.71881342  1  0.103665  0.106212  -1.3e-05  1.02197  0.0
H  H22  1  0.28904515  0.64531434  0.28118566  1  0.103662  0.106236  -1.3e-05  1.021958  0.0
H  H23  1  0.63447943  0.48548854  0.57947014  1  0.108882  0.111996  1e-06  1.011922  0.0
H  H24  1  0.36552196  0.51451065  0.42052941  1  0.10885  0.111977  1e-06  1.011972  0.0
H  H25  1  0.63347912  0.37136261  0.86103235  1  0.118342  0.113165  -7.1e-05  0.994484  0.0
H  H26  1  0.36652622  0.62863929  0.13896836  1  0.118333  0.113183  -7.1e-05  0.994422  0.0
H  H27  1  0.68117931  0.55624797  0.87173107  1  0.120655  0.122754  1e-05  0.980026  0.0
H  H28  1  0.31881987  0.44375653  0.12826808  1  0.120674  0.122806  1e-05  0.979983  0.0
H  H29  1  0.98946266  0.63989830  0.95436154  1  0.13154  0.103082  2.3e-05  1.04656  0.0
H  H30  1  0.01053494  0.36011012  0.04563380  1  0.13154  0.103116  2.3e-05  1.046508  0.0
H  H31  1  0.43882460  0.78728111  0.94917399  1  0.142917  0.127124  -1.5e-05  1.046331  0.0
H  H32  1  0.56117782  0.21271548  0.05082867  1  0.142941  0.12716  -1.5e-05  1.04633  0.0
C  C33  1  0.26025214  0.00279115  0.42836317  1  0.218635  0.299684  0.0  4.010184  0.0
C  C34  1  0.73974907  0.99720539  0.57163727  1  0.218636  0.299719  0.0  4.010215  0.0
C  C35  1  0.12661068  0.16399256  0.38779508  1  -0.012737  -0.005115  -0.000266  4.05465  0.0
C  C36  1  0.87338850  0.83600266  0.61220680  1  -0.012741  -0.005127  -0.000266  4.054646  0.0
C  C37  1  0.13040228  0.19028318  0.30394218  1  -0.082166  -0.091647  4.1e-05  3.947489  0.0
C  C38  1  0.86959308  0.80971203  0.69606000  1  -0.08214  -0.09166  4.1e-05  3.947496  0.0
C  C39  1  0.00226333  0.34396846  0.26439249  1  -0.093582  -0.136265  -0.00017  3.975644  0.0
C  C40  1  0.99773712  0.65602677  0.73560931  1  -0.093587  -0.136283  -0.00017  3.97569  0.0
C  C41  1  0.86923517  0.47315171  0.30705330  1  -0.004327  0.109666  -6.1e-05  3.949097  0.0
C  C42  1  0.13075925  0.52684881  0.69294837  1  -0.004374  0.109647  -6.1e-05  3.949152  0.0
C  C43  1  0.86656729  0.44693545  0.39034977  1  -0.089385  -0.12599  -0.000292  3.966377  0.0
C  C44  1  0.13343261  0.55306111  0.60965192  1  -0.089368  -0.125941  -0.000291  3.966379  0.0
C  C45  1  0.99415878  0.29339418  0.43075593  1  -0.086074  -0.101278  0.000114  3.956545  0.0
C  C46  1  0.00583678  0.70660367  0.56924478  1  -0.086084  -0.101299  0.000114  3.956557  0.0
C  C47  1  0.73250011  0.64022354  0.26295238  1  -0.043936  -0.147547  -0.000712  3.859217  -0.001
C  C48  1  0.26749997  0.35977567  0.73704843  1  -0.04393  -0.147527  -0.000712  3.859231  -0.001
C  C49  1  0.83472708  0.79308515  0.13179397  1  0.165555  0.092358  0.000997  3.863037  0.0
C  C50  1  0.16527427  0.20691407  0.86820733  1  0.165577  0.092375  0.000997  3.862951  0.0
C  C51  1  0.99926957  0.89039737  0.17999341  1  0.144941  0.133084  0.000793  3.987675  -0.001
C  C52  1  0.00073071  0.10960447  0.82000594  1  0.144962  0.133121  0.000792  3.987735  -0.001
C  C53  1  0.40901661  0.81762123  0.52608332  1  0.218666  0.300426  -4.9e-05  4.008634  0.0
C  C54  1  0.59098480  0.18237795  0.47391507  1  0.218596  0.30037  -4.9e-05  4.008656  0.0
C  C55  1  0.45945619  0.74630259  0.60730890  1  -0.011799  -0.009443  -0.000126  4.055885  0.0
C  C56  1  0.54054757  0.25369396  0.39269075  1  -0.011699  -0.009312  -0.000126  4.05578  0.0
C  C57  1  0.38528776  0.85161599  0.66774259  1  -0.084495  -0.097156  3.4e-05  3.965412  0.0
C  C58  1  0.61471109  0.14838319  0.33225657  1  -0.084491  -0.097169  3.3e-05  3.965435  0.0
C  C59  1  0.42968485  0.77742025  0.74582189  1  -0.091639  -0.128645  -5.7e-05  3.974799  0.0
C  C60  1  0.57031200  0.22257758  0.25417756  1  -0.091691  -0.12872  -5.7e-05  3.974811  0.0
C  C61  1  0.62141322  0.49449966  0.70475947  1  -0.084164  -0.12439  -0.000151  3.96105  0.0
C  C62  1  0.37859071  0.50549955  0.29523989  1  -0.08416  -0.124414  -0.000151  3.961084  0.0
C  C63  1  0.58029019  0.56781025  0.62614022  1  -0.073473  -0.078429  -3e-06  3.924603  0.0
C  C64  1  0.41971374  0.43218896  0.37385914  1  -0.073468  -0.078466  -3e-06  3.924502  0.0
C  C65  1  0.58172729  0.51653961  0.85193787  1  -0.040267  -0.14178  -0.000599  3.852356  -0.001
C  C66  1  0.41827735  0.48346094  0.14806188  1  -0.040248  -0.141796  -0.000599  3.852344  -0.001
C  C67  1  0.12830576  0.63994604  0.94403697  1  0.141685  0.132194  7e-05  3.965991  -0.001
C  C68  1  0.87169472  0.36005845  0.05596091  1  0.141741  0.132306  7.1e-05  3.965916  -0.001
C  C69  1  0.35126112  0.72203049  0.94175929  1  0.163259  0.091368  9.7e-05  3.862736  -0.001
C  C70  1  0.64874023  0.27796874  0.05824201  1  0.163264  0.091379  9.7e-05  3.862837  -0.001
C  C71  1  0.54461996  0.59801251  0.76557372  1  -0.005165  0.098835  -3.2e-05  3.94624  0.0
C  C72  1  0.45538213  0.40198802  0.23442621  1  -0.00518  0.098818  -3.2e-05  3.946312  0.0
N  N73  1  0.94319372  0.88506006  0.10991134  1  -0.371014  -0.329583  -0.057689  3.63536  -0.077
N  N74  1  0.05680510  0.11493913  0.89008898  1  -0.371003  -0.32957  -0.057691  3.635276  -0.077
N  N75  1  0.82825861  0.74600439  0.21161858  1  -0.121433  0.192432  -0.001631  3.70523  -0.002
N  N76  1  0.17174570  0.25399083  0.78838118  1  -0.121448  0.192362  -0.001631  3.705283  -0.002
N  N77  1  0.17204218  0.76245898  0.96771218  1  -0.364028  -0.31606  -0.059226  3.572605  -0.079
N  N78  1  0.82795864  0.23754155  0.03228785  1  -0.364056  -0.316168  -0.059228  3.572619  -0.079
N  N79  1  0.41071600  0.58152253  0.90415611  1  -0.131509  0.171459  -0.001536  3.72215  -0.002
N  N80  1  0.58928738  0.41847801  0.09584314  1  -0.131496  0.17149  -0.001536  3.722252  -0.002
N  N81  1  0.47636839  0.74375155  0.46176446  1  -0.217925  -0.245485  -9.1e-05  3.221967  0.0
N  N82  1  0.52363555  0.25624765  0.53823432  1  -0.21791  -0.245476  -9.1e-05  3.222061  0.0
N  N83  1  0.38053002  0.86253447  0.39880249  1  -0.223069  -0.251264  -0.000162  3.186495  0.0
N  N84  1  0.61946866  0.13746204  0.60119696  1  -0.223065  -0.25132  -0.000162  3.186651  0.0
N  N85  1  0.32837718  0.05727067  0.08911058  1  0.091761  0.727318  0.000817  4.422698  0.001
N  N86  1  0.67162143  0.94273516  0.91088904  1  0.091804  0.727294  0.000817  4.422601  0.001
N  N87  1  0.27030605  0.52793343  0.90452442  1  -0.212851  -0.250963  -0.006  3.117192  -0.007
N  N88  1  0.72969317  0.47207104  0.09547240  1  -0.212911  -0.251085  -0.006  3.117302  -0.007
N  N89  1  0.93186509  0.80648044  0.24338753  1  -0.213259  -0.247611  -0.005922  3.090973  -0.007
N  N90  1  0.06813556  0.19351744  0.75661280  1  -0.213283  -0.247591  -0.005922  3.091141  -0.007
O  O91  1  0.27099554  0.98339032  0.50919189  1  -0.101805  -0.182779  -6e-06  2.503802  0.0
O  O92  1  0.72900510  0.01660755  0.49080844  1  -0.101774  -0.18272  -6e-06  2.50371  0.0
O  O93  1  0.28732778  0.97708327  0.04484277  1  -0.219601  -0.513037  0.001306  2.06163  0.0
O  O94  1  0.71267212  0.02292256  0.95515618  1  -0.219594  -0.513021  0.001305  2.061586  0.0
O  O95  1  0.40524215  0.97268752  0.15241484  1  -0.198493  -0.454436  0.000526  1.919216  0.0
O  O96  1  0.59475704  0.02731697  0.84758372  1  -0.198542  -0.454447  0.000526  1.919082  0.0
O  O97  1  0.29045144  0.22280259  0.06869070  1  -0.209846  -0.482262  0.000284  1.975653  0.0
O  O98  1  0.70954843  0.77720327  0.93130999  1  -0.209851  -0.482223  0.000284  1.975718  0.0
