# generated using pymatgen
data_AgH12C15S2(OF)2
_symmetry_space_group_name_H-M   'P 1'
_cell_length_a   10.89593635
_cell_length_b   11.24271720
_cell_length_c   13.06940000
_cell_angle_alpha   99.39028048
_cell_angle_beta   90.38631525
_cell_angle_gamma   99.45933756
_symmetry_Int_Tables_number   1
_chemical_formula_structural   AgH12C15S2(OF)2
_chemical_formula_sum   'Ag4 H48 C60 S8 O8 F8'
_cell_volume   1557.14250253
_cell_formula_units_Z   4
loop_
 _symmetry_equiv_pos_site_id
 _symmetry_equiv_pos_as_xyz
  1  'x, y, z'
loop_
 _atom_site_type_symbol
 _atom_site_label
 _atom_site_symmetry_multiplicity
 _atom_site_fract_x
 _atom_site_fract_y
 _atom_site_fract_z
 _atom_site_occupancy
 _atom_site_hle17_bader_spin_density
 _atom_site_hle17_ddec_charge
 _atom_site_hle17_ddec_spin_density
 _atom_site_hle17_ddec_sum_bond_order
 _atom_site_hle17_magmom
 _atom_site_hse06_10hf_bader_spin_density
 _atom_site_hse06_10hf_ddec_charge
 _atom_site_hse06_10hf_ddec_spin_density
 _atom_site_hse06_10hf_ddec_sum_bond_order
 _atom_site_hse06_10hf_magmom
 _atom_site_hse06_bader_spin_density
 _atom_site_hse06_ddec_charge
 _atom_site_hse06_ddec_spin_density
 _atom_site_hse06_ddec_sum_bond_order
 _atom_site_hse06_magmom
 _atom_site_pbe_bader_charge
 _atom_site_pbe_bader_spin_density
 _atom_site_pbe_cm5_charge
 _atom_site_pbe_ddec_charge
 _atom_site_pbe_ddec_spin_density
 _atom_site_pbe_ddec_sum_bond_order
 _atom_site_pbe_magmom
Ag  Ag0  1  0.40029023  0.06097862  0.47009145  1  0  0.397341  0  1.64202  0  0  0.274915  0  2.141368  0  0  0.305621  0  2.0849  0  0.491131  0  0.354117  0.253878  0  2.180284  0
Ag  Ag1  1  0.59971023  0.93902131  0.52990862  1  0  0.39732  0  1.642087  0  0  0.274892  0  2.141442  0  0  0.305602  0  2.084971  0  0.491065  0  0.354102  0.253856  0  2.180357  0
Ag  Ag2  1  0.42368273  0.09253423  0.98450622  1  0  0.411783  0  1.589827  0  0  0.281038  0  2.099493  0  0  0.31538  0  2.038283  0  0.503455  0  0.35104  0.256895  0  2.142285  0
Ag  Ag3  1  0.57631697  0.90746662  0.01549397  1  0  0.411805  0  1.589824  0  0  0.281052  0  2.099496  0  0  0.315399  0  2.038284  0  0.503306  0  0.351053  0.256908  0  2.142287  0
H  H4  1  0.16703371  0.05565076  0.57648124  1  0  0.093754  0  0.979046  0  0  0.100728  0  1.05098  0  0  0.103924  0  1.048636  0  0.09466  0  0.092291  0.098421  0  1.052652  0
H  H5  1  0.83296751  0.94434826  0.42351871  1  0  0.093753  0  0.979073  0  0  0.100715  0  1.051015  0  0  0.10391  0  1.048675  0  0.094677  0  0.092298  0.098416  0  1.05268  0
H  H6  1  0.94528371  0.08346060  0.58527483  1  0  0.085541  0  0.974379  0  0  0.095474  0  1.038853  0  0  0.097862  0  1.038221  0  0.069761  0  0.09383  0.093667  0  1.039537  0
H  H7  1  0.05471583  0.91653934  0.41472600  1  0  0.085534  0  0.974371  0  0  0.095472  0  1.038841  0  0  0.09786  0  1.03821  0  0.069754  0  0.093834  0.093665  0  1.039525  0
H  H8  1  0.89095429  0.28748656  0.64996892  1  0  0.089576  0  0.947209  0  0  0.102506  0  1.004701  0  0  0.104988  0  1.003781  0  0.07104  0  0.100933  0.100561  0  1.00573  0
H  H9  1  0.10904709  0.71251337  0.35003116  1  0  0.08953  0  0.947225  0  0  0.102461  0  1.004717  0  0  0.104943  0  1.003798  0  0.071015  0  0.100913  0.100517  0  1.005746  0
H  H10  1  0.06002754  0.46636753  0.70704694  1  0  0.089449  0  0.958397  0  0  0.096185  0  1.02352  0  0  0.099576  0  1.021275  0  0.062295  0  0.09649  0.09378  0  1.025232  0
H  H11  1  0.93997384  0.53363240  0.29295313  1  0  0.089435  0  0.958419  0  0  0.096171  0  1.023543  0  0  0.099561  0  1.021299  0  0.062277  0  0.096478  0.093766  0  1.025254  0
H  H12  1  0.28126304  0.43978495  0.69440301  1  0  0.09862  0  0.975175  0  0  0.103168  0  1.046618  0  0  0.106666  0  1.04368  0  0.10048  0  0.094039  0.100587  0  1.048952  0
H  H13  1  0.71873926  0.56021498  0.30559630  1  0  0.098656  0  0.975239  0  0  0.103205  0  1.046661  0  0  0.106703  0  1.043723  0  0.100488  0  0.094064  0.100627  0  1.048994  0
H  H14  1  0.05368158  0.26548652  0.38158047  1  0  0.097475  0  0.979106  0  0  0.099303  0  1.054427  0  0  0.103099  0  1.051446  0  0.132876  0  0.090969  0.096572  0  1.056578  0
H  H15  1  0.94631796  0.73451341  0.61842035  1  0  0.097457  0  0.979122  0  0  0.099285  0  1.054446  0  0  0.10308  0  1.051465  0  0.132877  0  0.090966  0.096554  0  1.056597  0
H  H16  1  0.07483869  0.49186461  0.42322661  1  0  0.087367  0  0.958335  0  0  0.097229  0  1.021873  0  0  0.099723  0  1.021176  0  0.075559  0  0.097725  0.095409  0  1.02258  0
H  H17  1  0.92516085  0.50813533  0.57677345  1  0  0.087372  0  0.958326  0  0  0.097237  0  1.021858  0  0  0.099731  0  1.021161  0  0.075576  0  0.097744  0.095417  0  1.022565  0
H  H18  1  0.28466006  0.62146794  0.43123019  1  0  0.085595  0  0.959603  0  0  0.095392  0  1.023293  0  0  0.097972  0  1.021975  0  0.057019  0  0.094034  0.093549  0  1.024336  0
H  H19  1  0.71534041  0.37853199  0.56876835  1  0  0.085612  0  0.959623  0  0  0.095409  0  1.02331  0  0  0.097988  0  1.021993  0  0.057029  0  0.094047  0.093566  0  1.024352  0
H  H20  1  0.47316867  0.52360952  0.40342191  1  0  0.079783  0  0.979249  0  0  0.085466  0  1.049324  0  0  0.087804  0  1.04937  0  0.068814  0  0.090509  0.083735  0  1.049545  0
H  H21  1  0.52683087  0.47639041  0.59657815  1  0  0.079783  0  0.979252  0  0  0.085465  0  1.049327  0  0  0.087803  0  1.049373  0  0.068822  0  0.090506  0.083734  0  1.049547  0
H  H22  1  0.45307861  0.29753047  0.36807575  1  0  0.097234  0  0.984436  0  0  0.105003  0  1.052571  0  0  0.108104  0  1.050768  0  0.103616  0  0.093066  0.102769  0  1.053871  0
H  H23  1  0.54692185  0.70246946  0.63192432  1  0  0.097247  0  0.984417  0  0  0.105013  0  1.052557  0  0  0.108114  0  1.050751  0  0.103615  0  0.093059  0.102778  0  1.053858  0
H  H24  1  0.35554063  0.07694115  0.73520410  1  0  0.13385  0  0.953369  0  0  0.148341  0  1.011958  0  0  0.149997  0  1.011787  0  0.148736  0  0.105937  0.147111  0  1.012199  0
H  H25  1  0.64445692  0.92305787  0.26479506  1  0  0.133851  0  0.953347  0  0  0.148338  0  1.011943  0  0  0.149994  0  1.011772  0  0.148759  0  0.105937  0.14711  0  1.012181  0
H  H26  1  0.51610398  0.13735552  0.72905590  1  0  0.111564  0  0.938173  0  0  0.129326  0  0.999788  0  0  0.130678  0  0.998265  0  0.095706  0  0.102036  0.128316  0  1.001035  0
H  H27  1  0.48389525  0.86264258  0.27094467  1  0  0.111519  0  0.938233  0  0  0.12931  0  0.999799  0  0  0.130662  0  0.998275  0  0.095697  0  0.102037  0.128301  0  1.001045  0
H  H28  1  0.67624844  0.24740418  0.86275464  1  0  0.081497  0  0.971884  0  0  0.091769  0  1.040347  0  0  0.09398  0  1.039463  0  0.040626  0  0.093992  0.090337  0  1.040746  0
H  H29  1  0.32375004  0.75259483  0.13724453  1  0  0.081521  0  0.971874  0  0  0.091791  0  1.040339  0  0  0.094003  0  1.039453  0  0.040631  0  0.093989  0.090359  0  1.040739  0
H  H30  1  0.85780384  0.41167882  0.86063553  1  0  0.087693  0  0.956711  0  0  0.099695  0  1.013691  0  0  0.102013  0  1.013594  0  0.067593  0  0.099887  0.097908  0  1.013981  0
H  H31  1  0.14219371  0.58832019  0.13936440  1  0  0.087682  0  0.956739  0  0  0.099691  0  1.013712  0  0  0.10201  0  1.013616  0  0.067587  0  0.099888  0.097905  0  1.014001  0
H  H32  1  0.82525096  0.62811816  0.86559774  1  0  0.085103  0  0.961115  0  0  0.091109  0  1.029364  0  0  0.093785  0  1.028537  0  0.088702  0  0.096398  0.0893  0  1.029794  0
H  H33  1  0.17474735  0.37187994  0.13440130  1  0  0.085099  0  0.961102  0  0  0.091118  0  1.029345  0  0  0.093795  0  1.028517  0  0.08867  0  0.096397  0.089309  0  1.029775  0
H  H34  1  0.60965361  0.67613562  0.87342532  1  0  0.083966  0  0.992652  0  0  0.092278  0  1.06294  0  0  0.094839  0  1.061496  0  0.059804  0  0.088122  0.090316  0  1.06422  0
H  H35  1  0.39034577  0.32386340  0.12657385  1  0  0.083957  0  0.992646  0  0  0.092271  0  1.062934  0  0  0.094832  0  1.06149  0  0.059749  0  0.08812  0.090311  0  1.06421  0
H  H36  1  0.42925752  0.51243163  0.87211596  1  0  0.107416  0  0.937109  0  0  0.116615  0  0.998523  0  0  0.120157  0  0.996196  0  0.101908  0  0.103533  0.114015  0  1.000336  0
H  H37  1  0.57074019  0.48756830  0.12788563  1  0  0.107449  0  0.937077  0  0  0.116631  0  0.998506  0  0  0.120171  0  0.996177  0  0.101711  0  0.103541  0.114035  0  1.000317  0
H  H38  1  0.22667088  0.85179025  0.00864695  1  0  0.089748  0  0.981131  0  0  0.098248  0  1.051967  0  0  0.100613  0  1.050581  0  0.067579  0  0.094889  0.096466  0  1.053131  0
H  H39  1  0.77332974  0.14821059  0.99135325  1  0  0.089761  0  0.98114  0  0  0.098257  0  1.051979  0  0  0.100623  0  1.050597  0  0.067599  0  0.094898  0.096475  0  1.053144  0
H  H40  1  0.32963058  0.98210781  0.21830932  1  0  0.109639  0  0.934935  0  0  0.128333  0  0.993923  0  0  0.129497  0  0.992641  0  0.090381  0  0.102454  0.127603  0  0.994695  0
H  H41  1  0.67036988  0.01789212  0.78168998  1  0  0.109629  0  0.934938  0  0  0.128329  0  0.993916  0  0  0.129492  0  0.992635  0  0.090374  0  0.102445  0.127594  0  0.994697  0
H  H42  1  0.40781118  0.13656814  0.23618017  1  0  0.134691  0  0.957603  0  0  0.148809  0  1.017337  0  0  0.150132  0  1.017516  0  0.14891  0  0.106941  0.147785  0  1.017392  0
H  H43  1  0.59218852  0.86343270  0.76382003  1  0  0.134682  0  0.957629  0  0  0.148798  0  1.017369  0  0  0.150123  0  1.017544  0  0.148935  0  0.106933  0.147774  0  1.017424  0
H  H44  1  0.85019010  0.69816675  0.07085854  1  0  0.079945  0  0.97347  0  0  0.086471  0  1.042567  0  0  0.088943  0  1.042191  0  0.063687  0  0.09266  0.084659  0  1.042978  0
H  H45  1  0.14981128  0.30183318  0.92914000  1  0  0.079957  0  0.973446  0  0  0.086468  0  1.04255  0  0  0.088938  0  1.042174  0  0.063685  0  0.092662  0.084656  0  1.042959  0
H  H46  1  0.81855280  0.90298101  0.16221055  1  0  0.087789  0  0.976099  0  0  0.097264  0  1.042526  0  0  0.099853  0  1.041248  0  0.076697  0  0.091674  0.095324  0  1.04378  0
H  H47  1  0.18144750  0.09701800  0.83778862  1  0  0.087806  0  0.976071  0  0  0.097268  0  1.042512  0  0  0.099854  0  1.041238  0  0.076677  0  0.091686  0.095328  0  1.043766  0
H  H48  1  0.05490272  0.67357503  0.99144514  1  0  0.089721  0  0.944093  0  0  0.10253  0  0.997693  0  0  0.105538  0  0.996248  0  0.066435  0  0.100379  0.100401  0  0.998703  0
H  H49  1  0.94509881  0.32642581  0.00855354  1  0  0.089725  0  0.944091  0  0  0.102535  0  0.997689  0  0  0.105542  0  0.996245  0  0.066439  0  0.100379  0.100406  0  0.998698  0
H  H50  1  0.98882146  0.08023700  0.17638194  1  0  0.103257  0  0.962115  0  0  0.106751  0  1.033966  0  0  0.110459  0  1.030897  0  0.066856  0  0.095796  0.104166  0  1.036018  0
H  H51  1  0.01117824  0.91976385  0.82361825  1  0  0.103258  0  0.962129  0  0  0.106753  0  1.033976  0  0  0.110461  0  1.030908  0  0.066857  0  0.095801  0.104169  0  1.036029  0
C  C52  1  0.67111852  0.14918819  0.40301517  1  0  0.547969  0  3.961169  0  0  0.491055  0  4.260599  0  0  0.524482  0  4.255107  0  1.647021  0  0.189048  0.468479  0  4.263535  0
C  C53  1  0.32887842  0.85081265  0.59698118  1  0  0.5481  0  3.960974  0  0  0.491182  0  4.26048  0  0  0.524609  0  4.25499  0  1.64723  0  0.18908  0.468607  0  4.263414  0
C  C54  1  0.77196427  0.21635246  0.33926405  1  0  0.331829  0  3.614215  0  0  0.283084  0  3.92245  0  0  0.297625  0  3.909184  0  1.100652  0  0.194542  0.272364  0  3.932754  0
C  C55  1  0.22803543  0.78364838  0.66073690  1  0  0.3318  0  3.614098  0  0  0.282895  0  3.922698  0  0  0.2974  0  3.909411  0  1.100834  0  0.194524  0.272206  0  3.93301  0
C  C56  1  0.72239525  0.26161363  0.24342515  1  0  0.323245  0  3.608737  0  0  0.277475  0  3.914921  0  0  0.291157  0  3.9025  0  1.103508  0  0.191523  0.267241  0  3.924778  0
C  C57  1  0.27760338  0.73838630  0.75657644  1  0  0.323421  0  3.608548  0  0  0.277499  0  3.915043  0  0  0.29134  0  3.90236  0  1.103298  0  0.191525  0.267151  0  3.92508  0
C  C58  1  0.64251850  0.16565644  0.15920806  1  0  0.560511  0  3.968835  0  0  0.50154  0  4.268845  0  0  0.535491  0  4.263581  0  1.665958  0  0.194093  0.478567  0  4.271726  0
C  C59  1  0.35748197  0.83434349  0.84079201  1  0  0.560481  0  3.968804  0  0  0.501549  0  4.268833  0  0  0.535469  0  4.263552  0  1.66596  0  0.19411  0.478601  0  4.271727  0
C  C60  1  0.23738627  0.24650341  0.63490613  1  0  0.020169  0  3.789288  0  0  0.044643  0  4.035666  0  0  0.042456  0  4.063563  0  -0.160335  0  -0.020148  0.045966  0  4.016752  0
C  C61  1  0.76261312  0.75349561  0.36509457  1  0  0.020035  0  3.789246  0  0  0.044516  0  4.035624  0  0  0.04233  0  4.063521  0  -0.160276  0  -0.02017  0.045843  0  4.01671  0
C  C62  1  0.14318056  0.14557136  0.60440701  1  0  -0.11685  0  3.760043  0  0  -0.135289  0  4.003499  0  0  -0.137977  0  4.026603  0  -0.048582  0  -0.096399  -0.13308  0  3.987612  0
C  C63  1  0.85682082  0.85442857  0.39559383  1  0  -0.116755  0  3.759927  0  0  -0.135184  0  4.003385  0  0  -0.137872  0  4.026487  0  -0.048558  0  -0.096387  -0.132985  0  3.987495  0
C  C64  1  0.01891456  0.16124583  0.60988494  1  0  -0.048266  0  3.744654  0  0  -0.059142  0  3.98733  0  0  -0.061795  0  4.009805  0  -0.056827  0  -0.086749  -0.057323  0  3.971916  0
C  C65  1  0.98108666  0.83875319  0.39011577  1  0  -0.048278  0  3.744703  0  0  -0.059166  0  3.987383  0  0  -0.061818  0  4.009858  0  -0.056859  0  -0.086739  -0.057346  0  3.971972  0
C  C66  1  0.98849005  0.27630410  0.64663387  1  0  -0.054139  0  3.739495  0  0  -0.069323  0  3.984458  0  0  -0.069898  0  4.005521  0  0.03897  0  -0.085731  -0.068762  0  3.970008  0
C  C67  1  0.01151149  0.72369675  0.35336710  1  0  -0.054045  0  3.739441  0  0  -0.069223  0  3.984401  0  0  -0.069796  0  4.005462  0  0.038978  0  -0.085702  -0.068662  0  3.969949  0
C  C68  1  0.08268440  0.37624026  0.67810835  1  0  -0.06944  0  3.763622  0  0  -0.08107  0  4.015345  0  0  -0.084243  0  4.037187  0  -0.090964  0  -0.091555  -0.078968  0  4.000504  0
C  C69  1  0.91731591  0.62375876  0.32189159  1  0  -0.069505  0  3.763588  0  0  -0.08114  0  4.015319  0  0  -0.084312  0  4.037158  0  -0.090973  0  -0.091581  -0.079037  0  4.000483  0
C  C70  1  0.20745739  0.36182597  0.67179709  1  0  -0.094039  0  3.742596  0  0  -0.11764  0  3.993337  0  0  -0.11907  0  4.015118  0  -0.009037  0  -0.088298  -0.116591  0  3.978671  0
C  C71  1  0.79254337  0.63817030  0.32820247  1  0  -0.094005  0  3.742641  0  0  -0.117601  0  3.99337  0  0  -0.119029  0  4.01515  0  -0.009076  0  -0.088296  -0.116548  0  3.97869  0
C  C72  1  0.25171431  0.26813307  0.37094136  1  0  0.020047  0  3.792867  0  0  0.044523  0  4.039548  0  0  0.043176  0  4.066565  0  -0.17695  0  -0.020632  0.045226  0  4.021158  0
C  C73  1  0.74828524  0.73186686  0.62905870  1  0  0.020085  0  3.792925  0  0  0.04461  0  4.039538  0  0  0.043259  0  4.066562  0  -0.176963  0  -0.020606  0.045312  0  4.021148  0
C  C74  1  0.14516123  0.32241483  0.38658199  1  0  -0.105355  0  3.748473  0  0  -0.126862  0  3.997857  0  0  -0.129326  0  4.020114  0  -0.124834  0  -0.094455  -0.124854  0  3.982741  0
C  C75  1  0.85483848  0.67758601  0.61341897  1  0  -0.10538  0  3.748512  0  0  -0.12691  0  3.997893  0  0  -0.129373  0  4.020151  0  -0.124833  0  -0.094477  -0.124902  0  3.982776  0
C  C76  1  0.15771770  0.44962219  0.40968900  1  0  -0.057854  0  3.750663  0  0  -0.07088  0  4.001117  0  0  -0.073574  0  4.02376  0  0.013076  0  -0.089779  -0.069068  0  3.985726  0
C  C77  1  0.84228276  0.55037774  0.59031107  1  0  -0.057822  0  3.75064  0  0  -0.070844  0  4.001085  0  0  -0.073539  0  4.023728  0  0.013079  0  -0.089807  -0.069034  0  3.985696  0
C  C78  1  0.27538379  0.52212438  0.41490488  1  0  -0.06291  0  3.754047  0  0  -0.079798  0  4.003068  0  0  -0.080956  0  4.024575  0  0.003037  0  -0.092889  -0.079037  0  3.988328  0
C  C79  1  0.72461591  0.47787647  0.58509455  1  0  -0.062948  0  3.754068  0  0  -0.079838  0  4.003088  0  0  -0.080997  0  4.024598  0  0.003056  0  -0.092879  -0.079076  0  3.988348  0
C  C80  1  0.38128708  0.46718144  0.39932389  1  0  -0.056838  0  3.770747  0  0  -0.06445  0  4.012995  0  0  -0.067244  0  4.036135  0  -0.018454  0  -0.092077  -0.062461  0  3.997211  0
C  C81  1  0.61871262  0.53281941  0.60067707  1  0  -0.056828  0  3.77075  0  0  -0.06444  0  4.012997  0  0  -0.067235  0  4.036138  0  -0.01845  0  -0.092078  -0.06245  0  3.997213  0
C  C82  1  0.37021848  0.34018990  0.37865044  1  0  -0.116254  0  3.750502  0  0  -0.13487  0  3.992596  0  0  -0.137643  0  4.014954  0  -0.075188  0  -0.096966  -0.132698  0  3.977246  0
C  C83  1  0.62978213  0.65981095  0.62134976  1  0  -0.116274  0  3.750537  0  0  -0.134912  0  3.992635  0  0  -0.137683  0  4.014996  0  -0.075195  0  -0.096971  -0.13274  0  3.977287  0
C  C84  1  0.42256516  0.16132173  0.73671658  1  0  -0.203227  0  3.624095  0  0  -0.240006  0  3.89422  0  0  -0.238636  0  3.903633  0  -0.213457  0  -0.144672  -0.240965  0  3.8876  0
C  C85  1  0.57743454  0.83867912  0.26328362  1  0  -0.203174  0  3.624012  0  0  -0.239964  0  3.894152  0  0  -0.238588  0  3.903556  0  -0.213468  0  -0.14467  -0.240926  0  3.887535  0
C  C86  1  0.54159426  0.36952511  0.86550531  1  0  0.026092  0  3.794065  0  0  0.051317  0  4.038908  0  0  0.049729  0  4.065691  0  -0.162063  0  -0.015651  0.05224  0  4.020756  0
C  C87  1  0.45840329  0.63047390  0.13449461  1  0  0.026183  0  3.79397  0  0  0.051424  0  4.038781  0  0  0.049817  0  4.065593  0  -0.162064  0  -0.015589  0.052348  0  4.020633  0
C  C88  1  0.66220638  0.34140984  0.86358538  1  0  -0.108534  0  3.768181  0  0  -0.126526  0  4.005319  0  0  -0.129052  0  4.029142  0  -0.036651  0  -0.094482  -0.124851  0  3.989078  0
C  C89  1  0.33779224  0.65859009  0.13641468  1  0  -0.108593  0  3.768174  0  0  -0.126597  0  4.005318  0  0  -0.129116  0  4.029145  0  -0.036712  0  -0.094508  -0.124923  0  3.989076  0
C  C90  1  0.76418303  0.43431535  0.86347233  1  0  -0.070321  0  3.77466  0  0  -0.07892  0  4.013622  0  0  -0.081929  0  4.036509  0  -0.043464  0  -0.093173  -0.076844  0  3.998155  0
C  C91  1  0.23581453  0.56568367  0.13652759  1  0  -0.070236  0  3.774605  0  0  -0.078829  0  4.013563  0  0  -0.081838  0  4.036448  0  -0.043431  0  -0.093128  -0.076754  0  3.998094  0
C  C92  1  0.74611050  0.55525749  0.86708934  1  0  -0.059571  0  3.758492  0  0  -0.073369  0  4.004761  0  0  -0.074522  0  4.026772  0  -0.021477  0  -0.086717  -0.072432  0  3.989549  0
C  C93  1  0.25388797  0.44474152  0.13291059  1  0  -0.059616  0  3.758512  0  0  -0.073435  0  4.004783  0  0  -0.07459  0  4.0268  0  -0.021489  0  -0.086744  -0.072497  0  3.989573  0
C  C94  1  0.62580469  0.58281767  0.87124841  1  0  -0.059873  0  3.758409  0  0  -0.072327  0  4.008115  0  0  -0.075383  0  4.031218  0  -0.019117  0  -0.092873  -0.070174  0  3.992423  0
C  C95  1  0.37419394  0.41718226  0.12875165  1  0  -0.059817  0  3.758483  0  0  -0.072264  0  4.008174  0  0  -0.075321  0  4.031279  0  -0.019058  0  -0.092845  -0.070114  0  3.992482  0
C  C96  1  0.52304634  0.49042976  0.87008611  1  0  -0.095069  0  3.73234  0  0  -0.119272  0  3.981932  0  0  -0.120819  0  4.003029  0  -0.040114  0  -0.088585  -0.117944  0  3.967558  0
C  C97  1  0.47695229  0.50957017  0.12991471  1  0  -0.095155  0  3.732441  0  0  -0.119361  0  3.982065  0  0  -0.120896  0  4.00316  0  -0.03985  0  -0.088616  -0.118034  0  3.967684  0
C  C98  1  0.11819817  0.97563958  0.09509342  1  0  0.025425  0  3.791882  0  0  0.053481  0  4.030366  0  0  0.051106  0  4.0581  0  -0.16844  0  -0.015168  0.054933  0  4.011627  0
C  C99  1  0.88180245  0.02436127  0.90490525  1  0  0.025477  0  3.791893  0  0  0.053523  0  4.030389  0  0  0.051149  0  4.058124  0  -0.16843  0  -0.015177  0.054976  0  4.01165  0
C  C100  1  0.13720872  0.86153055  0.04271161  1  0  -0.108605  0  3.758407  0  0  -0.127886  0  3.99908  0  0  -0.130074  0  4.022922  0  -0.030048  0  -0.096123  -0.126228  0  3.982788  0
C  C101  1  0.86279190  0.13847029  0.95728859  1  0  -0.108662  0  3.758469  0  0  -0.127939  0  3.999148  0  0  -0.130129  0  4.022993  0  -0.03001  0  -0.096145  -0.126279  0  3.982854  0
C  C102  1  0.31640315  0.07791966  0.22791377  1  0  -0.204247  0  3.622556  0  0  -0.24103  0  3.892756  0  0  -0.239308  0  3.90163  0  -0.227277  0  -0.145061  -0.24232  0  3.886679  0
C  C103  1  0.68359563  0.92208118  0.77208642  1  0  -0.204216  0  3.622508  0  0  -0.240994  0  3.892693  0  0  -0.239272  0  3.901568  0  -0.22727  0  -0.145049  -0.242286  0  3.886615  0
C  C104  1  0.92576617  0.77594833  0.07724678  1  0  -0.067636  0  3.771037  0  0  -0.082906  0  4.020584  0  0  -0.084034  0  4.042873  0  -0.09296  0  -0.089758  -0.081775  0  4.00524  0
C  C105  1  0.07423414  0.22405069  0.92275239  1  0  -0.067659  0  3.770962  0  0  -0.08291  0  4.020496  0  0  -0.084038  0  4.042783  0  -0.092977  0  -0.089736  -0.081778  0  4.005151  0
C  C106  1  0.90754263  0.89023751  0.12871411  1  0  -0.057813  0  3.750641  0  0  -0.068748  0  3.99925  0  0  -0.071992  0  4.021937  0  -0.007613  0  -0.092628  -0.066634  0  3.983944  0
C  C107  1  0.09245675  0.10976151  0.87128506  1  0  -0.057823  0  3.750629  0  0  -0.068743  0  3.999228  0  0  -0.071986  0  4.021914  0  -0.007617  0  -0.092664  -0.066629  0  3.983922  0
C  C108  1  0.04042928  0.76194647  0.03353739  1  0  -0.06869  0  3.76882  0  0  -0.079538  0  4.015057  0  0  -0.082497  0  4.036912  0  -0.029737  0  -0.093564  -0.077495  0  3.99994  0
C  C109  1  0.95957226  0.23805437  0.96646205  1  0  -0.06866  0  3.768839  0  0  -0.079512  0  4.015066  0  0  -0.082471  0  4.036923  0  -0.02976  0  -0.093551  -0.077469  0  3.999948  0
C  C110  1  0.00316935  0.99074706  0.13733957  1  0  -0.094128  0  3.741176  0  0  -0.118631  0  3.991622  0  0  -0.119882  0  4.013284  0  0.039994  0  -0.089846  -0.11746  0  3.976725  0
C  C111  1  0.99683111  0.00925287  0.86265974  1  0  -0.094168  0  3.741296  0  0  -0.118673  0  3.991743  0  0  -0.119925  0  4.013405  0  0.039968  0  -0.089855  -0.117502  0  3.976846  0
S  S112  1  0.39768299  0.23352213  0.62520515  1  0  0.030137  0  2.645044  0  0  0.052954  0  3.035581  0  0  0.047978  0  3.031683  0  0.060259  0  0.011501  0.056571  0  3.038313  0
S  S113  1  0.60231747  0.76647780  0.37479492  1  0  0.030172  0  2.645018  0  0  0.052983  0  3.035563  0  0  0.048007  0  3.031662  0  0.060262  0  0.011499  0.056598  0  3.038297  0
S  S114  1  0.23156982  0.10562341  0.34604589  1  0  0.037735  0  2.625726  0  0  0.06116  0  3.006474  0  0  0.055646  0  3.003126  0  0.062263  0  0.014042  0.064858  0  3.008963  0
S  S115  1  0.76843080  0.89437743  0.65395431  1  0  0.037714  0  2.625695  0  0  0.061124  0  3.006422  0  0  0.05561  0  3.003076  0  0.062258  0  0.014034  0.064824  0  3.008912  0
S  S116  1  0.40852423  0.25441471  0.86173251  1  0  0.027648  0  2.649261  0  0  0.048799  0  3.040307  0  0  0.043424  0  3.037199  0  0.056856  0  0.013  0.052584  0  3.043071  0
S  S117  1  0.59147424  0.74558430  0.13826742  1  0  0.027514  0  2.649124  0  0  0.048667  0  3.040161  0  0  0.043283  0  3.037082  0  0.056898  0  0.012912  0.052451  0  3.042927  0
S  S118  1  0.23928666  0.10425807  0.11212332  1  0  0.020439  0  2.667237  0  0  0.042332  0  3.0591  0  0  0.036857  0  3.056769  0  0.067988  0  0.01045  0.045855  0  3.061185  0
S  S119  1  0.76071304  0.89574277  0.88787687  1  0  0.020438  0  2.667181  0  0  0.042337  0  3.059041  0  0  0.036864  0  3.056705  0  0.068012  0  0.010465  0.045862  0  3.061125  0
O  O120  1  0.56176126  0.12803223  0.36374319  1  0  -0.568927  0  2.10728  0  0  -0.505673  0  2.372204  0  0  -0.535614  0  2.364143  0  -1.137641  0  -0.311109  -0.484729  0  2.376858  0
O  O121  1  0.43824319  0.87196953  0.63625946  1  0  -0.569132  0  2.107016  0  0  -0.505836  0  2.371928  0  0  -0.535784  0  2.363871  0  -1.137563  0  -0.311227  -0.484888  0  2.376578  0
O  O122  1  0.71063034  0.12039893  0.48479270  1  0  -0.556689  0  2.041979  0  0  -0.503497  0  2.302569  0  0  -0.530249  0  2.290479  0  -1.132174  0  -0.319665  -0.485221  0  2.310356  0
O  O123  1  0.28937303  0.87960191  0.51521134  1  0  -0.556589  0  2.042147  0  0  -0.503404  0  2.302792  0  0  -0.530151  0  2.290699  0  -1.132468  0  -0.31956  -0.485132  0  2.310582  0
O  O124  1  0.66544424  0.05824519  0.14963492  1  0  -0.564415  0  2.119926  0  0  -0.50214  0  2.390506  0  0  -0.532305  0  2.38163  0  -1.136262  0  -0.313402  -0.481061  0  2.395747  0
O  O125  1  0.33455638  0.94175566  0.85036451  1  0  -0.564436  0  2.119868  0  0  -0.502158  0  2.390422  0  0  -0.532327  0  2.38156  0  -1.136248  0  -0.313429  -0.481078  0  2.395653  0
O  O126  1  0.56846438  0.20891669  0.10672163  1  0  -0.557729  0  2.078307  0  0  -0.495937  0  2.343784  0  0  -0.524687  0  2.332635  0  -1.138177  0  -0.317637  -0.475924  0  2.350773  0
O  O127  1  0.43153624  0.79108415  0.89327856  1  0  -0.557747  0  2.078377  0  0  -0.495948  0  2.343844  0  0  -0.524701  0  2.332706  0  -1.138211  0  -0.317645  -0.475932  0  2.350822  0
F  F128  1  0.83895367  0.31735950  0.40199786  1  0  -0.213704  0  1.200958  0  0  -0.164934  0  1.364929  0  0  -0.173867  0  1.35304  0  -0.616117  0  -0.095782  -0.158191  0  1.372943  0
F  F129  1  0.16104863  0.68264043  0.59800222  1  0  -0.213713  0  1.200934  0  0  -0.164876  0  1.364961  0  0  -0.173812  0  1.353081  0  -0.616118  0  -0.095785  -0.158133  0  1.372968  0
F  F130  1  0.85586495  0.13921012  0.30769321  1  0  -0.207873  0  1.210916  0  0  -0.159923  0  1.378155  0  0  -0.169949  0  1.366517  0  -0.624862  0  -0.091873  -0.15255  0  1.386148  0
F  F131  1  0.14413551  0.86078981  0.69230686  1  0  -0.207905  0  1.210917  0  0  -0.159902  0  1.378221  0  0  -0.169927  0  1.366587  0  -0.624867  0  -0.09188  -0.15253  0  1.386205  0
F  F132  1  0.65717129  0.35361288  0.28090405  1  0  -0.201204  0  1.220309  0  0  -0.149883  0  1.380319  0  0  -0.158743  0  1.367954  0  -0.62208  0  -0.088671  -0.143387  0  1.389103  0
F  F133  1  0.34282810  0.64638614  0.71909588  1  0  -0.201289  0  1.22026  0  0  -0.149882  0  1.380295  0  0  -0.158778  0  1.367871  0  -0.62207  0  -0.088674  -0.143357  0  1.389123  0
F  F134  1  0.82503984  0.31539150  0.19452758  1  0  -0.220422  0  1.141456  0  0  -0.175826  0  1.294928  0  0  -0.185044  0  1.283041  0  -0.612946  0  -0.109804  -0.16938  0  1.303604  0
F  F135  1  0.17496002  0.68461026  0.80547275  1  0  -0.220411  0  1.141463  0  0  -0.175776  0  1.295001  0  0  -0.185043  0  1.283066  0  -0.612895  0  -0.109773  -0.169303  0  1.303718  0
