# generated using pymatgen
data_Cu2H5C2S(NO)5
_symmetry_space_group_name_H-M   'P 1'
_cell_length_a   8.05372638
_cell_length_b   8.39616314
_cell_length_c   12.26969478
_cell_angle_alpha   89.91342728
_cell_angle_beta   89.97749702
_cell_angle_gamma   110.20085464
_symmetry_Int_Tables_number   1
_chemical_formula_structural   Cu2H5C2S(NO)5
_chemical_formula_sum   'Cu8 H20 C8 S4 N20 O20'
_cell_volume   778.64493223
_cell_formula_units_Z   4
loop_
 _symmetry_equiv_pos_site_id
 _symmetry_equiv_pos_as_xyz
  1  'x, y, z'
loop_
 _atom_site_type_symbol
 _atom_site_label
 _atom_site_symmetry_multiplicity
 _atom_site_fract_x
 _atom_site_fract_y
 _atom_site_fract_z
 _atom_site_occupancy
 _atom_site_pbe_cm5_charge
 _atom_site_pbe_ddec_charge
 _atom_site_pbe_ddec_spin_density
 _atom_site_pbe_ddec_sum_bond_order
 _atom_site_pbe_magmom
Cu  Cu0  1  0.61437034  0.27990055  0.96249981  1  0.71976  0.829502  -0.641328  2.113119  -0.502
Cu  Cu1  1  0.88655132  0.22025551  0.46214361  1  0.729177  0.847115  0.637261  2.128807  0.502
Cu  Cu2  1  0.38600025  0.72106050  0.03767715  1  0.718949  0.828406  0.640489  2.111124  0.504
Cu  Cu3  1  0.11300433  0.77845202  0.53684061  1  0.726455  0.842925  0.642065  2.122288  0.506
Cu  Cu4  1  0.97545741  0.40781585  0.11146546  1  0.756479  0.846033  0.095438  2.330355  0.076
Cu  Cu5  1  0.52481436  0.09013984  0.60956889  1  0.763494  0.870926  -0.557211  2.310334  -0.434
Cu  Cu6  1  0.02544525  0.59138741  0.88817850  1  0.756959  0.848248  -0.041174  2.327406  -0.033
Cu  Cu7  1  0.47499757  0.90837350  0.39018315  1  0.749183  0.8488  0.661155  2.283841  0.518
H  H8  1  0.92622294  0.28431759  0.93163744  1  0.281833  0.353571  -0.000581  1.000745  0.0
H  H9  1  0.57723968  0.21989953  0.43152361  1  0.282821  0.35817  0.00081  0.996736  0.001
H  H10  1  0.07386915  0.71500015  0.06826085  1  0.28158  0.352965  0.000602  1.001406  0.0
H  H11  1  0.42322073  0.78225512  0.57020045  1  0.282066  0.357516  0.000624  0.998411  0.0
H  H12  1  0.22254310  0.45181660  0.58656265  1  0.30718  0.331149  0.000112  0.955765  0.0
H  H13  1  0.27926751  0.04702742  0.08499249  1  0.307105  0.331327  -0.000131  0.956775  0.0
H  H14  1  0.77725983  0.54697521  0.41377688  1  0.307867  0.332145  7.8e-05  0.953982  0.0
H  H15  1  0.72140033  0.95287068  0.91443923  1  0.307179  0.331477  0.000116  0.95622  0.0
H  H16  1  0.25592223  0.53775674  0.71434630  1  0.313203  0.330998  -0.000254  0.918744  0.0
H  H17  1  0.24375195  0.96000994  0.21272316  1  0.31375  0.331372  0.000169  0.917903  0.0
H  H18  1  0.74302521  0.46056707  0.28614679  1  0.313307  0.331291  0.000258  0.918431  0.0
H  H19  1  0.75689556  0.04084753  0.78693629  1  0.313842  0.331507  7e-05  0.917928  0.0
H  H20  1  0.49603373  0.36947403  0.78641819  1  0.323344  0.339835  -0.00034  0.890944  0.0
H  H21  1  0.00379923  0.12994670  0.28649098  1  0.323942  0.340418  0.000324  0.890005  0.0
H  H22  1  0.50408419  0.63197793  0.21414731  1  0.324063  0.340546  0.000275  0.890256  0.0
H  H23  1  0.99576702  0.86812378  0.71419043  1  0.324672  0.340972  0.000294  0.890497  0.0
H  H24  1  0.65848554  0.52789654  0.84933053  1  0.304797  0.329566  0.00013  0.949156  0.001
H  H25  1  0.84110027  0.97195469  0.34989768  1  0.30507  0.328885  3e-06  0.949628  -0.001
H  H26  1  0.34298047  0.47280359  0.15077225  1  0.305038  0.329712  1.7e-05  0.948404  -0.001
H  H27  1  0.15707170  0.02701041  0.64990243  1  0.305273  0.330093  9e-05  0.947983  0.0
C  C28  1  0.74708724  0.39531307  0.74168762  1  0.324828  0.531935  0.001988  4.043515  0.005
C  C29  1  0.75274529  0.10410629  0.24169904  1  0.324396  0.530698  -0.002266  4.041644  -0.006
C  C30  1  0.25265656  0.60422684  0.25838094  1  0.324587  0.533259  0.002086  4.042466  0.001
C  C31  1  0.24716007  0.89611547  0.75816214  1  0.3259  0.53434  -0.00073  4.034931  -0.003
C  C32  1  0.00144317  0.43838643  0.66797829  1  0.32805  0.535793  -0.001868  4.106204  0.0
C  C33  1  0.49916426  0.06071009  0.16767393  1  0.328864  0.539625  -0.000212  4.102371  -0.002
C  C34  1  0.99808445  0.56117695  0.33175613  1  0.328187  0.538168  0.004821  4.103946  0.006
C  C35  1  0.50135020  0.93914490  0.83179859  1  0.32843  0.537726  0.003357  4.104004  0.003
S  S36  1  0.22905083  0.27831405  0.95353872  1  0.540719  1.383468  -0.002402  6.397697  0.0
S  S37  1  0.27075596  0.22202598  0.45335725  1  0.541713  1.382742  0.002388  6.398491  0.0
S  S38  1  0.77093423  0.72142288  0.04621674  1  0.541502  1.386443  0.002348  6.394225  0.0
S  S39  1  0.72921068  0.77874426  0.54639769  1  0.540724  1.382631  0.002154  6.400108  0.0
N  N40  1  0.92171213  0.48607496  0.75362368  1  -0.403418  -0.515541  -0.006043  3.493439  -0.008
N  N41  1  0.57835507  0.01325049  0.25362260  1  -0.402455  -0.518422  0.039422  3.484217  0.052
N  N42  1  0.07818361  0.51326306  0.24640340  1  -0.403928  -0.516747  0.013356  3.491849  0.018
N  N43  1  0.42195220  0.98744186  0.74628881  1  -0.40133  -0.517172  -0.031192  3.476003  -0.04
N  N44  1  0.17745085  0.51036493  0.64678606  1  -0.583651  -0.662429  -0.005168  3.310122  -0.005
N  N45  1  0.32361488  0.98855305  0.14575763  1  -0.584122  -0.663729  0.003144  3.313757  0.004
N  N46  1  0.82228168  0.48875475  0.35332591  1  -0.583751  -0.663689  0.003309  3.310253  0.005
N  N47  1  0.67683545  0.01135140  0.85378334  1  -0.584663  -0.664703  0.004502  3.314812  0.005
N  N48  1  0.62194240  0.40588078  0.81654702  1  -0.602198  -0.632835  -0.051379  3.421572  -0.065
N  N49  1  0.87788823  0.09397727  0.31676008  1  -0.599925  -0.629497  0.054037  3.416596  0.069
N  N50  1  0.37834421  0.59456868  0.18369216  1  -0.602184  -0.633696  0.051816  3.421008  0.066
N  N51  1  0.12148878  0.90556498  0.68364187  1  -0.598532  -0.630722  0.056116  3.413463  0.071
N  N52  1  0.88096658  0.32467660  0.60602428  1  -0.294034  -0.304028  0.024321  3.451073  0.034
N  N53  1  0.61964517  0.17509177  0.10562825  1  -0.295773  -0.304409  -0.020993  3.455071  -0.03
N  N54  1  0.11814581  0.67563232  0.39363646  1  -0.298089  -0.308478  0.056258  3.454174  0.069
N  N55  1  0.38080524  0.82477844  0.89388339  1  -0.294161  -0.301415  0.055309  3.452304  0.069
N  N56  1  0.71782805  0.29587447  0.65478588  1  -0.292847  -0.301327  -0.054195  3.500759  -0.07
N  N57  1  0.78253481  0.20386633  0.15458799  1  -0.294428  -0.296293  0.020057  3.513109  0.025
N  N58  1  0.28200441  0.70400067  0.34516106  1  -0.296984  -0.304278  0.063428  3.500886  0.081
N  N59  1  0.21770300  0.79644763  0.84543854  1  -0.294679  -0.299044  0.019386  3.509978  0.023
O  O60  1  0.87966185  0.37276150  0.96337473  1  -0.55302  -0.760847  -0.061715  2.442616  -0.088
O  O61  1  0.62412838  0.13233030  0.46327317  1  -0.567635  -0.789225  0.05839  2.460931  0.083
O  O62  1  0.12099143  0.62705865  0.03643602  1  -0.552893  -0.760133  0.066846  2.441002  0.096
O  O63  1  0.37589909  0.87028413  0.53942220  1  -0.565885  -0.787815  0.068128  2.457179  0.096
O  O64  1  0.35224951  0.17617316  0.94445848  1  -0.368845  -0.649732  -0.045776  2.365776  -0.064
O  O65  1  0.14646526  0.32354467  0.44468118  1  -0.369013  -0.649363  0.04754  2.369769  0.066
O  O66  1  0.64805035  0.82396842  0.05534156  1  -0.369477  -0.650997  0.045405  2.365299  0.063
O  O67  1  0.85273501  0.67670217  0.55576933  1  -0.36848  -0.648487  0.047117  2.368932  0.066
O  O68  1  0.06098257  0.17982466  0.89889810  1  -0.35842  -0.600186  -0.011172  2.1193  -0.016
O  O69  1  0.43782984  0.32192623  0.39827893  1  -0.35698  -0.596992  0.013001  2.117093  0.018
O  O70  1  0.93857317  0.81904961  0.10160686  1  -0.359173  -0.600861  0.011647  2.116826  0.016
O  O71  1  0.56234643  0.68057921  0.60235612  1  -0.357007  -0.597364  0.012082  2.120716  0.017
O  O72  1  0.19842622  0.29633401  0.07281678  1  -0.373651  -0.6848  -0.000818  2.248533  -0.001
O  O73  1  0.30188597  0.20378352  0.57254572  1  -0.372398  -0.684461  0.000934  2.247607  0.001
O  O74  1  0.80257827  0.70439102  0.92695842  1  -0.373714  -0.686044  0.001486  2.245787  0.002
O  O75  1  0.69719879  0.79528523  0.42709773  1  -0.37219  -0.683246  0.000126  2.24996  0.001
O  O76  1  0.31258975  0.44695138  0.90187119  1  -0.369544  -0.707969  -0.001074  2.24199  -0.001
O  O77  1  0.18764051  0.05341057  0.40209790  1  -0.36856  -0.707491  -0.000359  2.243752  0.001
O  O78  1  0.68642551  0.55235444  0.09710790  1  -0.369756  -0.708578  0.001259  2.2429  0.001
O  O79  1  0.81343834  0.94827341  0.59632713  1  -0.368491  -0.709249  0.000437  2.247628  0.001
