# generated using pymatgen
data_AgPH7C5O3
_symmetry_space_group_name_H-M   'P 1'
_cell_length_a   6.09342864
_cell_length_b   6.69701674
_cell_length_c   15.74420935
_cell_angle_alpha   93.31663553
_cell_angle_beta   90.00009030
_cell_angle_gamma   89.99960447
_symmetry_Int_Tables_number   1
_chemical_formula_structural   AgPH7C5O3
_chemical_formula_sum   'Ag4 P4 H28 C20 O12'
_cell_volume   641.41031976
_cell_formula_units_Z   4
loop_
 _symmetry_equiv_pos_site_id
 _symmetry_equiv_pos_as_xyz
  1  'x, y, z'
loop_
 _atom_site_type_symbol
 _atom_site_label
 _atom_site_symmetry_multiplicity
 _atom_site_fract_x
 _atom_site_fract_y
 _atom_site_fract_z
 _atom_site_occupancy
 _atom_site_hle17_bader_spin_density
 _atom_site_hle17_ddec_charge
 _atom_site_hle17_ddec_spin_density
 _atom_site_hle17_ddec_sum_bond_order
 _atom_site_hle17_magmom
 _atom_site_hse06_10hf_bader_spin_density
 _atom_site_hse06_10hf_ddec_charge
 _atom_site_hse06_10hf_ddec_spin_density
 _atom_site_hse06_10hf_ddec_sum_bond_order
 _atom_site_hse06_10hf_magmom
 _atom_site_hse06_bader_spin_density
 _atom_site_hse06_ddec_charge
 _atom_site_hse06_ddec_spin_density
 _atom_site_hse06_ddec_sum_bond_order
 _atom_site_hse06_magmom
 _atom_site_pbe_bader_spin_density
 _atom_site_pbe_cm5_charge
 _atom_site_pbe_ddec_charge
 _atom_site_pbe_ddec_spin_density
 _atom_site_pbe_ddec_sum_bond_order
 _atom_site_pbe_magmom
Ag  Ag0  1  0.40116465  0.91983777  0.82065549  1  0  0.682959  0  1.343011  0  0  0.593491  0  1.747958  0  0  0.613873  0  1.705568  0  0  0.495422  0.579089  0  1.777062  0
Ag  Ag1  1  0.90116691  0.08015903  0.67934562  1  0  0.68294  0  1.343029  0  0  0.593439  0  1.747969  0  0  0.613826  0  1.70558  0  0  0.495395  0.579038  0  1.777074  0
Ag  Ag2  1  0.59883696  0.08015955  0.17934356  1  0  0.682988  0  1.343066  0  0  0.593518  0  1.748018  0  0  0.613892  0  1.705634  0  0  0.49544  0.579114  0  1.77712  0
Ag  Ag3  1  0.09882977  0.91985609  0.32066092  1  0  0.682981  0  1.343077  0  0  0.59354  0  1.748005  0  0  0.613917  0  1.705612  0  0  0.495455  0.57914  0  1.77711  0
P  P4  1  0.88639140  0.72127111  0.81474760  1  0  1.484307  0  4.794655  0  0  1.333083  0  5.279732  0  0  1.381346  0  5.24457  0  0  0.337247  1.299349  0  5.303335  0
P  P5  1  0.38638865  0.27872744  0.68524657  1  0  1.484344  0  4.794604  0  0  1.333081  0  5.279733  0  0  1.381345  0  5.244574  0  0  0.337189  1.299353  0  5.303333  0
P  P6  1  0.11361348  0.27872922  0.18525090  1  0  1.484408  0  4.794511  0  0  1.333141  0  5.279645  0  0  1.381406  0  5.244483  0  0  0.337248  1.299404  0  5.303249  0
P  P7  1  0.61360803  0.72127897  0.31474766  1  0  1.484312  0  4.794435  0  0  1.333082  0  5.279536  0  0  1.381341  0  5.244373  0  0  0.337221  1.29935  0  5.303139  0
H  H8  1  0.71157134  0.43389273  0.78737387  1  0  0.445406  0  0.859984  0  0  0.410024  0  0.929886  0  0  0.422088  0  0.91258  0  0  0.303746  0.401518  0  0.942097  0
H  H9  1  0.21156811  0.56610836  0.71262088  1  0  0.445314  0  0.860149  0  0  0.409993  0  0.929956  0  0  0.422053  0  0.912655  0  0  0.303717  0.40149  0  0.942163  0
H  H10  1  0.28842533  0.56610765  0.21262272  1  0  0.445352  0  0.860088  0  0  0.410014  0  0.929926  0  0  0.422074  0  0.912626  0  0  0.303739  0.401508  0  0.942138  0
H  H11  1  0.78842857  0.43389645  0.28737774  1  0  0.445344  0  0.860088  0  0  0.410007  0  0.929929  0  0  0.422061  0  0.912638  0  0  0.303715  0.401502  0  0.94214  0
H  H12  1  0.86792933  0.66113609  0.08667172  1  0  0.121334  0  0.946084  0  0  0.140869  0  1.010718  0  0  0.142831  0  1.009732  0  0  0.090921  0.139293  0  1.01165  0
H  H13  1  0.36790731  0.33886002  0.41332984  1  0  0.121328  0  0.945765  0  0  0.140906  0  1.010395  0  0  0.142878  0  1.00939  0  0  0.090927  0.139329  0  1.011331  0
H  H14  1  0.13207884  0.33884323  0.91332935  1  0  0.121285  0  0.945826  0  0  0.140838  0  1.010504  0  0  0.142815  0  1.009497  0  0  0.09089  0.139258  0  1.011443  0
H  H15  1  0.63206967  0.66114920  0.58667273  1  0  0.121355  0  0.945956  0  0  0.140885  0  1.010624  0  0  0.142851  0  1.00963  0  0  0.090933  0.139307  0  1.011557  0
H  H16  1  0.74392428  0.52864853  0.99839591  1  0  0.118296  0  0.955971  0  0  0.140377  0  1.015549  0  0  0.141207  0  1.016808  0  0  0.091565  0.13969  0  1.014769  0
H  H17  1  0.24390126  0.47134775  0.50160445  1  0  0.118425  0  0.955831  0  0  0.140453  0  1.015504  0  0  0.141282  0  1.016764  0  0  0.091592  0.139765  0  1.014721  0
H  H18  1  0.25608225  0.47133830  0.00160411  1  0  0.11836  0  0.955875  0  0  0.140447  0  1.015474  0  0  0.141276  0  1.016736  0  0  0.091587  0.139758  0  1.014693  0
H  H19  1  0.75608229  0.52866598  0.49839697  1  0  0.118357  0  0.955913  0  0  0.140459  0  1.015484  0  0  0.141289  0  1.016743  0  0  0.09158  0.139771  0  1.014705  0
H  H20  1  0.60457884  0.55815773  0.09781127  1  0  0.122462  0  0.949358  0  0  0.140907  0  1.014292  0  0  0.14338  0  1.012848  0  0  0.092143  0.139007  0  1.015507  0
H  H21  1  0.10455270  0.44183549  0.40219003  1  0  0.122475  0  0.949382  0  0  0.14098  0  1.014241  0  0  0.143452  0  1.012799  0  0  0.092142  0.139078  0  1.015456  0
H  H22  1  0.39542933  0.44182765  0.90218616  1  0  0.122418  0  0.949308  0  0  0.140896  0  1.014222  0  0  0.14337  0  1.01278  0  0  0.092112  0.138995  0  1.015437  0
H  H23  1  0.89542757  0.55817220  0.59781376  1  0  0.122404  0  0.949336  0  0  0.140919  0  1.014206  0  0  0.143393  0  1.012762  0  0  0.092121  0.139018  0  1.01542  0
H  H24  1  0.66725259  0.19495040  0.88844017  1  0  0.124229  0  0.958208  0  0  0.131835  0  1.020878  0  0  0.135566  0  1.018394  0  0  0.105798  0.12904  0  1.022915  0
H  H25  1  0.16725204  0.80503592  0.61155794  1  0  0.124238  0  0.95819  0  0  0.131843  0  1.020874  0  0  0.135572  0  1.018394  0  0  0.105827  0.129048  0  1.022908  0
H  H26  1  0.33275557  0.80503343  0.11156039  1  0  0.124155  0  0.958241  0  0  0.131779  0  1.02092  0  0  0.135511  0  1.018431  0  0  0.105782  0.128983  0  1.022957  0
H  H27  1  0.83273644  0.19496428  0.38844627  1  0  0.12424  0  0.958177  0  0  0.131826  0  1.020875  0  0  0.135553  0  1.018399  0  0  0.105827  0.129032  0  1.02291  0
H  H28  1  0.01119452  0.78211421  0.95734143  1  0  0.143807  0  0.936461  0  0  0.162314  0  0.986427  0  0  0.163794  0  0.987674  0  0  0.112484  0.161323  0  0.985444  0
H  H29  1  0.51118369  0.21787906  0.54265551  1  0  0.143812  0  0.936527  0  0  0.162335  0  0.986473  0  0  0.16381  0  0.987727  0  0  0.112488  0.161346  0  0.985485  0
H  H30  1  0.98882185  0.21787557  0.04265994  1  0  0.143765  0  0.936549  0  0  0.162295  0  0.986482  0  0  0.163774  0  0.987737  0  0  0.112476  0.161303  0  0.985499  0
H  H31  1  0.48880806  0.78211829  0.45734226  1  0  0.143803  0  0.936479  0  0  0.162319  0  0.986417  0  0  0.163795  0  0.987672  0  0  0.112495  0.161331  0  0.985429  0
H  H32  1  0.99817707  0.00106433  0.89995600  1  0  0.13041  0  0.956208  0  0  0.142378  0  1.022535  0  0  0.144965  0  1.020944  0  0  0.106886  0.140455  0  1.023711  0
H  H33  1  0.49817825  0.99892896  0.60004190  1  0  0.130372  0  0.956274  0  0  0.142364  0  1.022554  0  0  0.144956  0  1.02094  0  0  0.106879  0.140428  0  1.023764  0
H  H34  1  0.00183109  0.99892993  0.10004614  1  0  0.130401  0  0.956209  0  0  0.142352  0  1.022542  0  0  0.144931  0  1.020977  0  0  0.106854  0.140427  0  1.023717  0
H  H35  1  0.50181514  0.00106839  0.39995588  1  0  0.13036  0  0.956196  0  0  0.142338  0  1.022501  0  0  0.144929  0  1.020886  0  0  0.106878  0.140404  0  1.023711  0
C  C36  1  0.71121957  0.63251180  0.05343957  1  0  -0.334241  0  3.68623  0  0  -0.415267  0  3.92528  0  0  -0.418158  0  3.934948  0  0  -0.247111  -0.412941  0  3.918911  0
C  C37  1  0.21119090  0.36748078  0.44656179  1  0  -0.334505  0  3.686099  0  0  -0.415557  0  3.925111  0  0  -0.418452  0  3.934775  0  0  -0.247205  -0.413233  0  3.918753  0
C  C38  1  0.28880008  0.36746604  0.94656083  1  0  -0.33428  0  3.686061  0  0  -0.415322  0  3.925054  0  0  -0.418225  0  3.934716  0  0  -0.247102  -0.412998  0  3.918702  0
C  C39  1  0.78878608  0.63252545  0.55344069  1  0  -0.334296  0  3.686061  0  0  -0.415397  0  3.925106  0  0  -0.418289  0  3.934774  0  0  -0.247136  -0.41307  0  3.918741  0
C  C40  1  0.60704263  0.82177710  0.02576070  1  0  0.090133  0  3.730829  0  0  0.106136  0  3.979446  0  0  0.106727  0  4.002683  0  0  -0.017731  0.105597  0  3.963706  0
C  C41  1  0.10700896  0.17821615  0.47423870  1  0  0.090315  0  3.730904  0  0  0.106208  0  3.979633  0  0  0.1068  0  4.002873  0  0  -0.017682  0.10567  0  3.963884  0
C  C42  1  0.39298523  0.17820817  0.97424181  1  0  0.090284  0  3.731005  0  0  0.106189  0  3.979736  0  0  0.106783  0  4.002972  0  0  -0.017641  0.105649  0  3.963994  0
C  C43  1  0.89296966  0.82178714  0.52576116  1  0  0.090215  0  3.730867  0  0  0.106146  0  3.979553  0  0  0.106735  0  4.002797  0  0  -0.01771  0.105608  0  3.963804  0
C  C44  1  0.69387366  0.92773939  0.95864992  1  0  0.078669  0  3.76556  0  0  0.088074  0  4.008074  0  0  0.088978  0  4.031931  0  0  -0.022062  0.087213  0  3.991924  0
C  C45  1  0.19386209  0.07225725  0.54134787  1  0  0.078737  0  3.765364  0  0  0.088219  0  4.007794  0  0  0.08912  0  4.031653  0  0  -0.021979  0.087362  0  3.991637  0
C  C46  1  0.30614764  0.07226536  0.04135188  1  0  0.07872  0  3.765567  0  0  0.088208  0  4.00797  0  0  0.089115  0  4.031823  0  0  -0.022056  0.087348  0  3.991817  0
C  C47  1  0.80612310  0.92775204  0.45865152  1  0  0.078666  0  3.765605  0  0  0.088163  0  4.007981  0  0  0.089067  0  4.031841  0  0  -0.022047  0.087306  0  3.991824  0
C  C48  1  0.58497588  0.10199293  0.93350614  1  0  -0.242833  0  3.802804  0  0  -0.257294  0  4.063223  0  0  -0.26041  0  4.079646  0  0  -0.130927  -0.25511  0  4.05208  0
C  C49  1  0.08496786  0.89800735  0.56649233  1  0  -0.242758  0  3.802827  0  0  -0.257224  0  4.063186  0  0  -0.260342  0  4.07962  0  0  -0.130885  -0.255038  0  4.052032  0
C  C50  1  0.41504870  0.89800284  0.06649541  1  0  -0.242694  0  3.802757  0  0  -0.257209  0  4.063113  0  0  -0.260317  0  4.07953  0  0  -0.130819  -0.255023  0  4.051964  0
C  C51  1  0.91501897  0.10200041  0.43350893  1  0  -0.242846  0  3.802931  0  0  -0.257314  0  4.063345  0  0  -0.26043  0  4.079772  0  0  -0.13096  -0.255128  0  4.052193  0
C  C52  1  0.90585627  0.86688168  0.91579949  1  0  -0.485479  0  3.717426  0  0  -0.501428  0  3.943929  0  0  -0.511079  0  3.953346  0  0  -0.169161  -0.494647  0  3.937469  0
C  C53  1  0.40585096  0.13311362  0.58420031  1  0  -0.485555  0  3.717402  0  0  -0.501483  0  3.943803  0  0  -0.511124  0  3.953215  0  0  -0.169183  -0.494703  0  3.937325  0
C  C54  1  0.09416010  0.13311259  0.08420201  1  0  -0.485526  0  3.717514  0  0  -0.501409  0  3.943843  0  0  -0.511077  0  3.953274  0  0  -0.16915  -0.494623  0  3.937374  0
C  C55  1  0.59414572  0.86688964  0.41580082  1  0  -0.485544  0  3.717513  0  0  -0.501474  0  3.943928  0  0  -0.511119  0  3.953346  0  0  -0.169212  -0.494698  0  3.937455  0
O  O56  1  0.73393320  0.82458340  0.75375371  1  0  -0.863903  0  2.065383  0  0  -0.770194  0  2.364299  0  0  -0.799337  0  2.341918  0  0  -0.387724  -0.749331  0  2.378978  0
O  O57  1  0.23394133  0.17541748  0.74624423  1  0  -0.863853  0  2.065303  0  0  -0.770149  0  2.364223  0  0  -0.79929  0  2.341847  0  0  -0.387672  -0.749286  0  2.378898  0
O  O58  1  0.26606676  0.17541838  0.24624673  1  0  -0.863912  0  2.065331  0  0  -0.770226  0  2.364287  0  0  -0.799368  0  2.341907  0  0  -0.387724  -0.749362  0  2.378967  0
O  O59  1  0.76607012  0.82458583  0.25375499  1  0  -0.86387  0  2.0653  0  0  -0.770176  0  2.36422  0  0  -0.799313  0  2.341838  0  0  -0.387681  -0.749314  0  2.378899  0
O  O60  1  0.78561155  0.51437988  0.83840002  1  0  -0.760362  0  2.01401  0  0  -0.68357  0  2.246586  0  0  -0.706286  0  2.222408  0  0  -0.384606  -0.667473  0  2.263158  0
O  O61  1  0.28561038  0.48561771  0.66159723  1  0  -0.760264  0  2.014008  0  0  -0.683547  0  2.246592  0  0  -0.706259  0  2.222415  0  0  -0.384599  -0.66746  0  2.263165  0
O  O62  1  0.21438841  0.48562184  0.16160297  1  0  -0.760338  0  2.014046  0  0  -0.683562  0  2.246593  0  0  -0.706274  0  2.222415  0  0  -0.384621  -0.667464  0  2.263165  0
O  O63  1  0.71438466  0.51438861  0.33840144  1  0  -0.760324  0  2.014059  0  0  -0.683549  0  2.246552  0  0  -0.706262  0  2.222392  0  0  -0.384581  -0.667452  0  2.263122  0
O  O64  1  0.12383389  0.69668752  0.78287215  1  0  -0.855232  0  2.066173  0  0  -0.761805  0  2.340609  0  0  -0.789553  0  2.317691  0  0  -0.376943  -0.742135  0  2.355956  0
O  O65  1  0.62383457  0.30331423  0.71711686  1  0  -0.855324  0  2.066081  0  0  -0.761807  0  2.340499  0  0  -0.789575  0  2.317593  0  0  -0.376911  -0.742138  0  2.355847  0
O  O66  1  0.87616443  0.30330696  0.21712047  1  0  -0.855317  0  2.066118  0  0  -0.761869  0  2.340566  0  0  -0.789609  0  2.317647  0  0  -0.376921  -0.742199  0  2.355917  0
O  O67  1  0.37616539  0.69670876  0.28287213  1  0  -0.855232  0  2.065962  0  0  -0.761839  0  2.340447  0  0  -0.789581  0  2.317524  0  0  -0.376976  -0.742171  0  2.355798  0
