# generated using pymatgen
data_VCuAsH3C4(NO3)2
_symmetry_space_group_name_H-M   'P 1'
_cell_length_a   7.86961334
_cell_length_b   10.33084700
_cell_length_c   11.76822472
_cell_angle_alpha   99.39170783
_cell_angle_beta   90.01674430
_cell_angle_gamma   112.38116394
_symmetry_Int_Tables_number   1
_chemical_formula_structural   VCuAsH3C4(NO3)2
_chemical_formula_sum   'V4 Cu4 As4 H12 C16 N8 O24'
_cell_volume   870.77847397
_cell_formula_units_Z   4
loop_
 _symmetry_equiv_pos_site_id
 _symmetry_equiv_pos_as_xyz
  1  'x, y, z'
loop_
 _atom_site_type_symbol
 _atom_site_label
 _atom_site_symmetry_multiplicity
 _atom_site_fract_x
 _atom_site_fract_y
 _atom_site_fract_z
 _atom_site_occupancy
 _atom_site_hle17_ddec_charge
 _atom_site_hle17_ddec_spin_density
 _atom_site_hle17_ddec_sum_bond_order
 _atom_site_hle17_magmom
 _atom_site_hse06_10hf_ddec_charge
 _atom_site_hse06_10hf_ddec_spin_density
 _atom_site_hse06_10hf_ddec_sum_bond_order
 _atom_site_hse06_10hf_magmom
 _atom_site_hse06_ddec_charge
 _atom_site_hse06_ddec_spin_density
 _atom_site_hse06_ddec_sum_bond_order
 _atom_site_hse06_magmom
 _atom_site_pbe_cm5_charge
 _atom_site_pbe_ddec_charge
 _atom_site_pbe_ddec_spin_density
 _atom_site_pbe_ddec_sum_bond_order
 _atom_site_pbe_magmom
V  V0  1  0.65718855  0.66642393  0.23727477  1  1.960013  -0.012387  2.955062  -0.017  2.009166  -0.007102  3.371585  -0.011  2.103545  -0.005733  3.341931  -0.009  1.43254  1.930464  -0.007724  3.418948  -0.011
V  V1  1  0.99100621  0.33349229  0.26294932  1  1.958994  0.012273  2.956756  0.017  2.008308  0.006874  3.372928  0.01  2.102335  0.005554  3.343759  0.009  1.43255  1.929272  0.007724  3.420845  0.011
V  V2  1  0.34281120  0.33357051  0.76272535  1  1.959864  0.012408  2.955331  0.017  2.008993  0.007099  3.371782  0.011  2.103381  0.005729  3.342236  0.009  1.432532  1.930302  0.007722  3.419275  0.011
V  V3  1  0.00899787  0.66651587  0.73704751  1  1.959128  -0.012159  2.956631  -0.016  2.008388  -0.006878  3.372995  -0.01  2.102486  -0.005562  3.343597  -0.009  1.432524  1.92941  -0.007725  3.420674  -0.011
Cu  Cu4  1  0.25900823  0.25166749  0.46016892  1  0.990897  -0.703155  1.844939  -0.518  1.000597  -0.812011  2.227482  -0.656  1.080104  -0.890441  2.165454  -0.747  0.755272  0.944725  -0.717553  2.278535  -0.566
Cu  Cu5  1  0.00702443  0.74828664  0.03986001  1  0.992291  0.704706  1.843535  0.52  1.008599  0.81125  2.213023  0.655  1.09145  0.889589  2.14439  0.746  0.755547  0.944877  0.716896  2.278519  0.566
Cu  Cu6  1  0.74099080  0.74832803  0.53983305  1  0.990881  0.703143  1.844905  0.518  1.000576  0.812023  2.22747  0.656  1.080083  0.890457  2.165455  0.747  0.755232  0.944697  0.717582  2.278474  0.566
Cu  Cu7  1  0.99297105  0.25171197  0.96013641  1  0.992329  -0.704719  1.843617  -0.52  1.001458  -0.81125  2.226651  -0.655  1.0915  -0.889589  2.144429  -0.746  0.755571  0.944901  -0.716903  2.278604  -0.566
As  As8  1  0.67266872  0.43106210  0.39249805  1  1.809649  0.002972  4.026209  0.002  1.77523  0.001805  4.502665  0.002  1.84824  0.001495  4.452047  0.002  0.679328  1.723034  0.002015  4.534915  0.002
As  As9  1  0.24134464  0.56876936  0.10761866  1  1.810014  -0.002094  4.026198  -0.002  1.775517  -0.001267  4.503293  -0.001  1.848309  -0.001131  4.453619  -0.001  0.679574  1.722757  -0.00199  4.535587  -0.002
As  As10  1  0.32732865  0.56893011  0.60749668  1  1.809682  -0.002964  4.026377  -0.002  1.775239  -0.001808  4.502837  -0.002  1.848252  -0.001495  4.452227  -0.002  0.679375  1.723049  -0.00202  4.535085  -0.002
As  As11  1  0.75865660  0.43123568  0.89238116  1  1.810025  0.002086  4.026037  0.002  1.775552  0.001265  4.503102  0.001  1.848341  0.001127  4.453434  0.001  0.679604  1.722787  0.001986  4.535415  0.002
H  H12  1  0.54115555  0.95367460  0.63177512  1  0.106535  0.000756  0.916646  0.002  0.115667  0.000814  0.973517  0.002  0.117628  0.00056  0.971628  0.001  0.13473  0.114382  0.000942  0.974871  0.002
H  H13  1  0.58756557  0.04696494  0.86862993  1  0.106576  -0.000692  0.91695  -0.002  0.115695  -0.000746  0.973652  -0.002  0.117549  -0.000518  0.971889  -0.001  0.134679  0.114257  -0.000941  0.975263  -0.002
H  H14  1  0.45885414  0.04632953  0.36823307  1  0.106452  -0.000758  0.916691  -0.002  0.115646  -0.000813  0.973532  -0.002  0.117612  -0.00056  0.971643  -0.001  0.134684  0.11436  -0.000942  0.974892  -0.002
H  H15  1  0.41242538  0.95303476  0.13136833  1  0.106605  0.000696  0.917008  0.002  0.115722  0.000746  0.973701  0.002  0.117585  0.000518  0.971934  0.001  0.134693  0.114294  0.000941  0.975305  0.002
H  H16  1  0.63362541  0.22164210  0.64063127  1  0.155076  -0.000174  0.975681  0.0  0.165302  -0.000132  1.029703  0.0  0.169851  -9e-05  1.027078  0.0  0.119981  0.161834  -0.000195  1.031946  0.0
H  H17  1  0.41162147  0.77896700  0.85963160  1  0.156127  0.000175  0.974344  0.0  0.166008  0.000144  1.028354  0.0  0.170664  0.000103  1.02558  0.0  0.120017  0.162304  0.000193  1.030894  0.0
H  H18  1  0.36639060  0.77836196  0.35937351  1  0.154964  0.000175  0.975738  0.0  0.165211  0.000132  1.029744  0.0  0.169756  9e-05  1.027129  0.0  0.119974  0.161743  0.000194  1.031993  0.0
H  H19  1  0.58836877  0.22103383  0.14037021  1  0.156115  -0.000173  0.974386  0.0  0.166026  -0.000144  1.028378  0.0  0.170678  -0.000103  1.025601  0.0  0.120024  0.162318  -0.000193  1.030912  0.0
H  H20  1  0.95099403  0.35946827  0.57945560  1  0.102417  -0.000543  0.943393  -0.001  0.103821  -0.000701  1.012891  -0.001  0.10614  -0.000516  1.008747  -0.001  0.13302  0.102199  -0.00079  1.015901  -0.001
H  H21  1  0.59095968  0.64079540  0.92066484  1  0.103085  0.00047  0.94286  0.001  0.104557  0.000642  1.012028  0.001  0.10681  0.000476  1.007956  0.001  0.133466  0.102733  0.000789  1.015481  0.001
H  H22  1  0.04901269  0.64053249  0.42054195  1  0.102399  0.000547  0.943322  0.001  0.103766  0.000702  1.012845  0.001  0.106084  0.000517  1.008704  0.001  0.133017  0.102147  0.00079  1.015851  0.001
H  H23  1  0.40902908  0.35920754  0.07933640  1  0.103111  -0.000477  0.942843  -0.001  0.104636  -0.000642  1.011984  -0.001  0.10687  -0.000477  1.007938  -0.001  0.133502  0.102801  -0.000788  1.015451  -0.001
C  C24  1  0.94334387  0.03701040  0.52581114  1  0.326812  -0.000611  3.751863  -0.001  0.308504  -0.000284  3.998217  0.0  0.324953  -0.00038  4.010972  -0.001  0.269132  0.296777  -0.00016  3.990073  0.0
C  C25  1  0.90628361  0.96307625  0.97426071  1  0.327621  0.000512  3.753817  0.001  0.309418  0.000197  4.000765  0.0  0.325805  0.000303  4.014454  0.0  0.269791  0.297711  0.000157  3.992321  0.0
C  C26  1  0.05666235  0.96298933  0.47418883  1  0.327263  0.000639  3.751567  0.001  0.308723  0.000282  3.998118  0.0  0.325314  0.00038  4.01074  0.001  0.269177  0.296837  0.000159  3.990135  0.0
C  C27  1  0.09370609  0.03692349  0.02573925  1  0.327444  -0.000509  3.75409  -0.001  0.309352  -0.000199  4.000911  0.0  0.325691  -0.000305  4.01467  0.0  0.26983  0.297796  -0.000156  3.992326  0.0
C  C28  1  0.67215148  0.02280836  0.60459263  1  0.199682  0.000626  3.582889  0.0  0.167092  0.001388  3.836283  0.0  0.180207  0.000621  3.850703  0.0  0.087569  0.158061  0.001887  3.826467  0.001
C  C29  1  0.64925870  0.97765034  0.89574278  1  0.200112  -0.000607  3.584832  0.0  0.167522  -0.001384  3.838232  0.0  0.180623  -0.000638  3.853267  0.0  0.08771  0.158325  -0.001881  3.828873  -0.001
C  C30  1  0.32785834  0.97719350  0.39540762  1  0.199861  -0.000604  3.582816  0.0  0.167168  -0.001391  3.836307  0.0  0.180278  -0.000623  3.850742  0.0  0.087626  0.158141  -0.001889  3.826484  -0.001
C  C31  1  0.35073532  0.02235043  0.10425563  1  0.200003  0.000592  3.584663  0.0  0.167375  0.001387  3.8384  0.001  0.180531  0.00064  3.853104  0.0  0.087724  0.158232  0.001881  3.828721  0.001
C  C32  1  0.72585897  0.16873589  0.61095431  1  -0.120112  0.000871  3.574763  0.001  -0.132646  0.000331  3.816793  0.0  -0.143377  0.000377  3.833033  0.0  -0.052724  -0.126034  0.000337  3.807105  0.001
C  C33  1  0.55682160  0.83173121  0.88930195  1  -0.122423  -0.000935  3.574501  -0.001  -0.134084  -0.000415  3.816017  -0.001  -0.144962  -0.000423  3.832273  -0.001  -0.053293  -0.127457  -0.00034  3.806871  -0.001
C  C34  1  0.27415581  0.83126827  0.38905559  1  -0.120156  -0.000886  3.574941  -0.001  -0.13271  -0.00033  3.817012  0.0  -0.143428  -0.000376  3.833255  0.0  -0.052752  -0.126093  -0.000338  3.807332  -0.001
C  C35  1  0.44317024  0.16827281  0.11070028  1  -0.122532  0.000912  3.574426  0.001  -0.134201  0.000412  3.816056  0.001  -0.145082  0.00042  3.832285  0.001  -0.053387  -0.127575  0.00034  3.80689  0.001
C  C36  1  0.89909360  0.24489549  0.57497815  1  0.2287  -0.001023  3.578671  0.0  0.193956  -0.001437  3.841624  -0.001  0.209248  -0.000851  3.853111  0.0  0.098246  0.183104  -0.001882  3.834019  -0.001
C  C37  1  0.65379911  0.75537722  0.92519383  1  0.229559  0.001154  3.576772  0.001  0.194738  0.001516  3.839429  0.001  0.210007  0.000892  3.851223  0.0  0.098381  0.183802  0.001886  3.832064  0.001
C  C38  1  0.10092111  0.75510853  0.42502408  1  0.228837  0.001021  3.578865  0.0  0.194181  0.001437  3.841669  0.001  0.209471  0.000851  3.853165  0.0  0.098297  0.183332  0.001881  3.834066  0.001
C  C39  1  0.34619419  0.24462463  0.07480556  1  0.229622  -0.001102  3.576457  0.0  0.194715  -0.001516  3.838963  -0.001  0.209935  -0.000891  3.851116  0.0  0.09832  0.18372  -0.001886  3.831951  -0.001
N  N40  1  0.00727451  0.17791289  0.53148286  1  -0.354277  -0.051911  3.27685  -0.066  -0.318252  -0.041989  3.563911  -0.057  -0.351489  -0.034236  3.583703  -0.049  -0.309254  -0.294394  -0.044083  3.5498  -0.057
N  N41  1  0.82906807  0.82218893  0.96860527  1  -0.353357  0.052839  3.274504  0.067  -0.318832  0.042495  3.561822  0.057  -0.352726  0.034575  3.581465  0.049  -0.308839  -0.293924  0.043974  3.548545  0.057
N  N42  1  0.99273530  0.82208894  0.46851569  1  -0.354607  0.05189  3.277003  0.066  -0.318501  0.041989  3.564053  0.057  -0.351771  0.034234  3.583812  0.049  -0.309316  -0.294607  0.044083  3.549994  0.057
N  N43  1  0.17092216  0.17781187  0.03139484  1  -0.35333  -0.052855  3.274336  -0.067  -0.317668  -0.042493  3.561967  -0.057  -0.352665  -0.034574  3.58133  -0.049  -0.308813  -0.293888  -0.043975  3.548331  -0.057
N  N44  1  0.78322493  0.95770118  0.56238642  1  -0.304626  0.056246  3.228788  0.071  -0.25865  0.045068  3.498827  0.061  -0.28813  0.037423  3.513054  0.053  -0.313336  -0.237955  0.046464  3.489367  0.061
N  N45  1  0.82557755  0.04254568  0.93775362  1  -0.305246  -0.056003  3.230219  -0.071  -0.260266  -0.044883  3.50122  -0.06  -0.291729  -0.037358  3.515071  -0.053  -0.314452  -0.239773  -0.046441  3.492396  -0.061
N  N46  1  0.21678236  0.04230072  0.43761554  1  -0.304726  -0.056273  3.228594  -0.071  -0.258711  -0.045073  3.49877  -0.061  -0.288231  -0.037429  3.51296  -0.053  -0.313361  -0.237976  -0.04647  3.489374  -0.061
N  N47  1  0.17441298  0.95745827  0.06224435  1  -0.304977  0.056005  3.23019  0.071  -0.261105  0.044888  3.500825  0.06  -0.291495  0.037359  3.515069  0.053  -0.314395  -0.239589  0.046442  3.492319  0.061
O  O48  1  0.48406738  0.27740685  0.38056911  1  -0.809375  -0.08518  1.744126  -0.111  -0.806951  -0.048614  2.039871  -0.068  -0.852539  -0.036202  2.020846  -0.053  -0.411512  -0.77455  -0.053912  2.052657  -0.072
O  O49  1  0.20629126  0.72239003  0.11949575  1  -0.811532  0.085087  1.745047  0.111  -0.808822  0.048325  2.038935  0.067  -0.854488  0.036084  2.019287  0.053  -0.411566  -0.774383  0.054032  2.053219  0.072
O  O50  1  0.51593801  0.72258360  0.61944578  1  -0.809387  0.085194  1.7442  0.111  -0.806981  0.048616  2.039965  0.068  -0.85257  0.036201  2.020945  0.053  -0.411585  -0.774583  0.053916  2.052733  0.072
O  O51  1  0.79371966  0.27761913  0.88049696  1  -0.81159  -0.085093  1.745088  -0.111  -0.807602  -0.048328  2.040105  -0.067  -0.854528  -0.036083  2.019293  -0.053  -0.411571  -0.774418  -0.054033  2.053237  -0.072
O  O52  1  0.71462251  0.54971868  0.51757901  1  -0.840731  0.076777  1.774752  0.099  -0.843937  0.044452  2.08934  0.06  -0.887846  0.033106  2.069589  0.047  -0.40821  -0.811386  0.049917  2.101499  0.066
O  O53  1  0.16480208  0.45024815  0.98245983  1  -0.840501  -0.078806  1.773987  -0.102  -0.844331  -0.045169  2.088787  -0.062  -0.890692  -0.033567  2.068095  -0.048  -0.408745  -0.811559  -0.049977  2.101188  -0.066
O  O54  1  0.28539051  0.45028197  0.48241258  1  -0.840901  -0.076772  1.774889  -0.099  -0.844056  -0.044451  2.08941  -0.06  -0.887984  -0.033109  2.069694  -0.047  -0.408253  -0.811491  -0.049917  2.101562  -0.066
O  O55  1  0.83519146  0.54975165  0.01754355  1  -0.840486  0.078812  1.773899  0.102  -0.845583  0.04517  2.087464  0.062  -0.890661  0.033569  2.067997  0.048  -0.408756  -0.811535  0.049979  2.10108  0.066
O  O56  1  0.68331730  0.50465530  0.26773153  1  -0.903867  -0.001431  1.751857  -0.001  -0.892666  -0.001424  2.044134  -0.002  -0.929294  -0.001177  2.027917  -0.001  -0.485184  -0.863581  -0.001504  2.056329  -0.002
O  O57  1  0.17870211  0.49527975  0.23244136  1  -0.903311  0.001475  1.753389  0.002  -0.892219  0.001477  2.04574  0.002  -0.92875  0.00122  2.029476  0.001  -0.484937  -0.862982  0.00151  2.057801  0.002
O  O58  1  0.31664881  0.49532522  0.73226165  1  -0.90381  0.001432  1.751999  0.001  -0.892593  0.001425  2.044287  0.002  -0.929232  0.001179  2.028071  0.001  -0.485109  -0.863522  0.001504  2.056485  0.002
O  O59  1  0.82130089  0.50473387  0.76756384  1  -0.903322  -0.001486  1.753429  -0.002  -0.892279  -0.001477  2.045912  -0.002  -0.928798  -0.00122  2.029553  -0.001  -0.484913  -0.862999  -0.001511  2.05781  -0.002
O  O60  1  0.86106757  0.37915438  0.38339121  1  -0.893708  -0.006385  1.744284  -0.009  -0.876557  -0.002983  2.031203  -0.004  -0.913338  -0.001863  2.013559  -0.003  -0.4892  -0.847445  -0.003854  2.044489  -0.005
O  O61  1  0.48166400  0.62073211  0.11671590  1  -0.894473  0.00592  1.743896  0.008  -0.877305  0.002882  2.030666  0.004  -0.913851  0.001881  2.012857  0.003  -0.489371  -0.847658  0.003867  2.044203  0.005
O  O62  1  0.13893065  0.62084206  0.61660237  1  -0.89376  0.006375  1.744192  0.009  -0.876573  0.002983  2.031092  0.004  -0.913363  0.001863  2.013455  0.003  -0.489201  -0.847475  0.003852  2.044385  0.005
O  O63  1  0.51833942  0.37926966  0.88327924  1  -0.894415  -0.005909  1.743861  -0.008  -0.877268  -0.002881  2.030649  -0.004  -0.913828  -0.001882  2.012849  -0.003  -0.489427  -0.847637  -0.003867  2.044198  -0.005
O  O64  1  0.07316137  0.21796930  0.29386007  1  -0.804885  -0.001969  1.347712  -0.004  -0.832306  -0.000336  1.621353  -0.002  -0.863798  -0.000199  1.611229  -0.002  -0.626687  -0.807129  -0.000329  1.632394  -0.002
O  O65  1  0.85469572  0.78203111  0.20629811  1  -0.806167  0.001584  1.347092  0.004  -0.834523  0.000233  1.619881  0.002  -0.86667  0.000149  1.609397  0.002  -0.627011  -0.808068  0.000315  1.631568  0.002
O  O66  1  0.92684196  0.78203991  0.70613605  1  -0.804906  0.001912  1.347705  0.004  -0.832312  0.000338  1.621362  0.002  -0.863839  0.000204  1.611273  0.002  -0.626667  -0.807127  0.000329  1.632352  0.002
O  O67  1  0.14531100  0.21795693  0.79370032  1  -0.806167  -0.001582  1.347182  -0.004  -0.833571  -0.000235  1.620738  -0.002  -0.866634  -0.00015  1.609435  -0.002  -0.627056  -0.808034  -0.000315  1.631627  -0.002
O  O68  1  0.40431163  0.26115253  0.64362062  1  -0.847597  -0.002069  1.457502  -0.005  -0.876596  -0.00011  1.747159  -0.002  -0.908934  -2.1e-05  1.736103  -0.002  -0.613447  -0.851103  -0.000197  1.758572  -0.002
O  O69  1  0.14279473  0.73891454  0.85622057  1  -0.84797  0.00181  1.457923  0.005  -0.878048  -2.6e-05  1.746883  0.002  -0.91085  -0.000111  1.735756  0.002  -0.613739  -0.851257  0.000197  1.758772  0.002
O  O70  1  0.59568286  0.73883138  0.35638406  1  -0.847632  0.002048  1.457484  0.005  -0.876642  0.00011  1.747104  0.002  -0.908972  2.5e-05  1.736077  0.002  -0.613455  -0.851133  0.000197  1.758522  0.002
O  O71  1  0.85720926  0.26108836  0.14377812  1  -0.847883  -0.001846  1.457951  -0.005  -0.877076  2.3e-05  1.74753  -0.002  -0.910775  0.000112  1.735801  -0.002  -0.613713  -0.851166  -0.000197  1.758806  -0.002
