# generated using pymatgen
data_MgH6(CO3)2
_symmetry_space_group_name_H-M   'P 1'
_cell_length_a   7.06186489
_cell_length_b   8.61018412
_cell_length_c   9.42342946
_cell_angle_alpha   98.35837173
_cell_angle_beta   90.00006530
_cell_angle_gamma   90.00024972
_symmetry_Int_Tables_number   1
_chemical_formula_structural   MgH6(CO3)2
_chemical_formula_sum   'Mg4 H24 C8 O24'
_cell_volume   566.89570522
_cell_formula_units_Z   4
loop_
 _symmetry_equiv_pos_site_id
 _symmetry_equiv_pos_as_xyz
  1  'x, y, z'
loop_
 _atom_site_type_symbol
 _atom_site_label
 _atom_site_symmetry_multiplicity
 _atom_site_fract_x
 _atom_site_fract_y
 _atom_site_fract_z
 _atom_site_occupancy
 _atom_site_hle17_bader_spin_density
 _atom_site_hle17_ddec_charge
 _atom_site_hle17_ddec_spin_density
 _atom_site_hle17_ddec_sum_bond_order
 _atom_site_hle17_magmom
 _atom_site_hse06_10hf_bader_spin_density
 _atom_site_hse06_10hf_ddec_charge
 _atom_site_hse06_10hf_ddec_spin_density
 _atom_site_hse06_10hf_ddec_sum_bond_order
 _atom_site_hse06_10hf_magmom
 _atom_site_hse06_bader_spin_density
 _atom_site_hse06_ddec_charge
 _atom_site_hse06_ddec_spin_density
 _atom_site_hse06_ddec_sum_bond_order
 _atom_site_hse06_magmom
 _atom_site_pbe_bader_spin_density
 _atom_site_pbe_cm5_charge
 _atom_site_pbe_ddec_charge
 _atom_site_pbe_ddec_spin_density
 _atom_site_pbe_ddec_sum_bond_order
 _atom_site_pbe_magmom
Mg  Mg0  1  0.99999914  0.99999885  0.00000132  1  0  1.454012  0  1.196111  0  0  1.33343  0  1.463678  0  0  1.358326  0  1.42865  0  0  0.812727  1.314375  0  1.49012  0
Mg  Mg1  1  0.50000147  0.00000080  0.50000094  1  0  1.454048  0  1.19595  0  0  1.333347  0  1.46362  0  0  1.358173  0  1.42868  0  0  0.812811  1.314257  0  1.490018  0
Mg  Mg2  1  0.49999957  0.50000119  0.00000036  1  0  1.523548  0  1.067531  0  0  1.414404  0  1.32158  0  0  1.437059  0  1.285746  0  0  0.79117  1.398259  0  1.347014  0
Mg  Mg3  1  0.99999821  0.50000081  0.49999796  1  0  1.523509  0  1.067641  0  0  1.414358  0  1.321708  0  0  1.437011  0  1.285876  0  0  0.791161  1.398201  0  1.347133  0
H  H4  1  0.60563047  0.79483657  0.99322043  1  0  0.432393  0  0.865854  0  0  0.399534  0  0.931336  0  0  0.410698  0  0.915114  0  0  0.297888  0.391697  0  0.942744  0
H  H5  1  0.10563594  0.20516248  0.50678057  1  0  0.432432  0  0.865785  0  0  0.39957  0  0.931271  0  0  0.410732  0  0.915051  0  0  0.297894  0.391726  0  0.942684  0
H  H6  1  0.39437088  0.20516199  0.00677999  1  0  0.432396  0  0.865852  0  0  0.399541  0  0.931329  0  0  0.410707  0  0.915103  0  0  0.297893  0.391704  0  0.942738  0
H  H7  1  0.89436683  0.79483960  0.49322032  1  0  0.432422  0  0.8658  0  0  0.399567  0  0.931274  0  0  0.410728  0  0.915054  0  0  0.297911  0.391723  0  0.942686  0
H  H8  1  0.38521691  0.76625005  0.95621777  1  0  0.418601  0  0.886541  0  0  0.384211  0  0.956114  0  0  0.395712  0  0.939278  0  0  0.29476  0.376125  0  0.967894  0
H  H9  1  0.88522048  0.23375242  0.54379028  1  0  0.418461  0  0.88675  0  0  0.384108  0  0.956251  0  0  0.39561  0  0.939413  0  0  0.294735  0.376016  0  0.968035  0
H  H10  1  0.61478161  0.23375439  0.04378555  1  0  0.418589  0  0.886579  0  0  0.384186  0  0.956147  0  0  0.395697  0  0.939308  0  0  0.294755  0.376105  0  0.967915  0
H  H11  1  0.11478228  0.76624967  0.45621167  1  0  0.418626  0  0.886515  0  0  0.384238  0  0.95608  0  0  0.395739  0  0.939243  0  0  0.29479  0.376142  0  0.967872  0
H  H12  1  0.03441035  0.33229146  0.88157791  1  0  0.025571  0  0.93054  0  0  0.029573  0  1.008766  0  0  0.030961  0  1.00334  0  0  0.120282  0.028345  0  1.012901  0
H  H13  1  0.53440927  0.66770965  0.61841907  1  0  0.025579  0  0.930548  0  0  0.029554  0  1.008796  0  0  0.030939  0  1.003378  0  0  0.120293  0.028324  0  1.012929  0
H  H14  1  0.96558959  0.66770709  0.11842040  1  0  0.025575  0  0.930546  0  0  0.029552  0  1.008798  0  0  0.030941  0  1.003372  0  0  0.120277  0.028329  0  1.01293  0
H  H15  1  0.46558784  0.33228772  0.38157484  1  0  0.025493  0  0.930554  0  0  0.029539  0  1.008732  0  0  0.030929  0  1.003306  0  0  0.120282  0.028301  0  1.012866  0
H  H16  1  0.71315381  0.08043071  0.77394301  1  0  0.016795  0  0.949532  0  0  0.023963  0  1.020601  0  0  0.025044  0  1.01577  0  0  0.123504  0.023023  0  1.024069  0
H  H17  1  0.21314503  0.91954999  0.72607054  1  0  0.016801  0  0.94969  0  0  0.024083  0  1.020591  0  0  0.025168  0  1.015758  0  0  0.123533  0.023145  0  1.024043  0
H  H18  1  0.28685037  0.91957724  0.22605864  1  0  0.016781  0  0.949546  0  0  0.023934  0  1.020632  0  0  0.025013  0  1.015802  0  0  0.123541  0.022989  0  1.024097  0
H  H19  1  0.78685633  0.08043566  0.27392926  1  0  0.016729  0  0.949501  0  0  0.023951  0  1.020533  0  0  0.025038  0  1.015688  0  0  0.12349  0.023005  0  1.023997  0
H  H20  1  0.34607330  0.46718101  0.72316622  1  0  0.440156  0  0.855894  0  0  0.407948  0  0.919421  0  0  0.418602  0  0.903992  0  0  0.299631  0.400158  0  0.930695  0
H  H21  1  0.84607742  0.53282128  0.77682797  1  0  0.440183  0  0.855871  0  0  0.407957  0  0.919431  0  0  0.418612  0  0.904  0  0  0.299635  0.400164  0  0.930714  0
H  H22  1  0.65392947  0.53282225  0.27683270  1  0  0.440173  0  0.85587  0  0  0.407967  0  0.919394  0  0  0.418622  0  0.903962  0  0  0.299641  0.400176  0  0.930673  0
H  H23  1  0.15392394  0.46717845  0.22316836  1  0  0.440153  0  0.855906  0  0  0.407933  0  0.919457  0  0  0.418586  0  0.904028  0  0  0.299623  0.400142  0  0.930737  0
H  H24  1  0.39866664  0.29914153  0.76358899  1  0  0.433228  0  0.865264  0  0  0.399223  0  0.933366  0  0  0.410076  0  0.917335  0  0  0.298637  0.39134  0  0.945013  0
H  H25  1  0.89868008  0.70085627  0.73640679  1  0  0.433207  0  0.865326  0  0  0.399251  0  0.933343  0  0  0.410104  0  0.917315  0  0  0.298663  0.391374  0  0.944985  0
H  H26  1  0.60133047  0.70086173  0.23641205  1  0  0.433179  0  0.865324  0  0  0.399202  0  0.933383  0  0  0.410055  0  0.917354  0  0  0.298618  0.391326  0  0.945022  0
H  H27  1  0.10132127  0.29914346  0.26359167  1  0  0.433179  0  0.865355  0  0  0.399233  0  0.933359  0  0  0.410084  0  0.917333  0  0  0.298641  0.391356  0  0.945002  0
C  C28  1  0.78045281  0.97016771  0.72425242  1  0  0.624511  0  3.846269  0  0  0.542845  0  4.158236  0  0  0.575979  0  4.148233  0  0  0.170084  0.520308  0  4.164777  0
C  C29  1  0.28047194  0.02981669  0.77572771  1  0  0.62427  0  3.846391  0  0  0.542505  0  4.158374  0  0  0.57563  0  4.148381  0  0  0.169823  0.519975  0  4.164898  0
C  C30  1  0.21954429  0.02983908  0.27575333  1  0  0.624666  0  3.846243  0  0  0.543045  0  4.158178  0  0  0.576177  0  4.14817  0  0  0.170117  0.520517  0  4.164708  0
C  C31  1  0.71952092  0.97016544  0.22427163  1  0  0.624559  0  3.845876  0  0  0.542831  0  4.157856  0  0  0.575957  0  4.147857  0  0  0.169964  0.520308  0  4.164374  0
C  C32  1  0.89271623  0.32878084  0.93092981  1  0  0.626298  0  3.831727  0  0  0.546698  0  4.145215  0  0  0.579702  0  4.135235  0  0  0.169698  0.524315  0  4.151226  0
C  C33  1  0.39271862  0.67122631  0.56906188  1  0  0.626357  0  3.831627  0  0  0.546762  0  4.145145  0  0  0.579769  0  4.135163  0  0  0.169735  0.524354  0  4.151188  0
C  C34  1  0.10728370  0.67121655  0.06907153  1  0  0.626275  0  3.831718  0  0  0.546698  0  4.145199  0  0  0.5797  0  4.135222  0  0  0.169697  0.524306  0  4.151217  0
C  C35  1  0.60727990  0.32876990  0.43093718  1  0  0.626386  0  3.831572  0  0  0.546739  0  4.145112  0  0  0.579743  0  4.135137  0  0  0.169704  0.524344  0  4.151136  0
O  O36  1  0.89646879  0.90414561  0.79891169  1  0  -0.667544  0  2.112117  0  0  -0.595831  0  2.35194  0  0  -0.620969  0  2.341373  0  0  -0.334524  -0.578236  0  2.359343  0
O  O37  1  0.39644284  0.09582758  0.70110420  1  0  -0.667192  0  2.113345  0  0  -0.595287  0  2.353068  0  0  -0.620409  0  2.342539  0  0  -0.334182  -0.577683  0  2.360436  0
O  O38  1  0.10351981  0.09585297  0.20109616  1  0  -0.667545  0  2.112002  0  0  -0.595868  0  2.35183  0  0  -0.621003  0  2.341259  0  0  -0.334522  -0.578276  0  2.359226  0
O  O39  1  0.60355143  0.90416511  0.29889333  1  0  -0.667254  0  2.113297  0  0  -0.595422  0  2.35306  0  0  -0.62054  0  2.342518  0  0  -0.334271  -0.577825  0  2.360429  0
O  O40  1  0.73543613  0.91738395  0.59577270  1  0  -0.671502  0  2.098537  0  0  -0.599477  0  2.336866  0  0  -0.624684  0  2.326164  0  0  -0.339712  -0.581998  0  2.344275  0
O  O41  1  0.23542884  0.08261212  0.90425243  1  0  -0.671717  0  2.097208  0  0  -0.599759  0  2.335606  0  0  -0.624991  0  2.3249  0  0  -0.339815  -0.582294  0  2.343051  0
O  O42  1  0.26456947  0.08262400  0.40422790  1  0  -0.671618  0  2.098646  0  0  -0.59959  0  2.33695  0  0  -0.624808  0  2.326266  0  0  -0.339775  -0.582118  0  2.344354  0
O  O43  1  0.76457110  0.91737588  0.09575086  1  0  -0.671826  0  2.096977  0  0  -0.599808  0  2.335302  0  0  -0.625041  0  2.324601  0  0  -0.339853  -0.582342  0  2.342726  0
O  O44  1  0.77959201  0.44025010  0.91814382  1  0  -0.665626  0  2.061827  0  0  -0.591826  0  2.296839  0  0  -0.617619  0  2.286155  0  0  -0.322884  -0.573527  0  2.303631  0
O  O45  1  0.27958674  0.55975076  0.58185120  1  0  -0.665544  0  2.061593  0  0  -0.591766  0  2.296598  0  0  -0.617562  0  2.285918  0  0  -0.322876  -0.57348  0  2.303404  0
O  O46  1  0.22040792  0.55974963  0.08185570  1  0  -0.665602  0  2.061922  0  0  -0.591802  0  2.296915  0  0  -0.617595  0  2.286233  0  0  -0.322869  -0.573499  0  2.303709  0
O  O47  1  0.72040753  0.44025014  0.41814529  1  0  -0.665623  0  2.06143  0  0  -0.591838  0  2.296463  0  0  -0.617636  0  2.285785  0  0  -0.322899  -0.573558  0  2.303265  0
O  O48  1  0.85346997  0.21226749  0.99550892  1  0  -0.687969  0  2.076443  0  0  -0.619444  0  2.319202  0  0  -0.644375  0  2.307712  0  0  -0.342209  -0.601662  0  2.326454  0
O  O49  1  0.35347145  0.78773248  0.50448711  1  0  -0.688078  0  2.07658  0  0  -0.61955  0  2.319381  0  0  -0.644467  0  2.307891  0  0  -0.342284  -0.601775  0  2.32664  0
O  O50  1  0.14653280  0.78773577  0.00449531  1  0  -0.68797  0  2.076393  0  0  -0.619453  0  2.319159  0  0  -0.644382  0  2.307663  0  0  -0.342232  -0.601661  0  2.326414  0
O  O51  1  0.64652423  0.21226959  0.49550741  1  0  -0.687937  0  2.076743  0  0  -0.619418  0  2.319532  0  0  -0.644333  0  2.308045  0  0  -0.342241  -0.601648  0  2.326779  0
O  O52  1  0.51481711  0.72233528  0.93647581  1  0  -0.88945  0  1.806349  0  0  -0.831863  0  1.985434  0  0  -0.850014  0  1.951947  0  0  -0.615129  -0.819071  0  2.008781  0
O  O53  1  0.01482164  0.27767164  0.56352509  1  0  -0.889302  0  1.8065  0  0  -0.831721  0  1.985559  0  0  -0.84987  0  1.952076  0  0  -0.615071  -0.818948  0  2.008916  0
O  O54  1  0.48518000  0.27766798  0.06352417  1  0  -0.889441  0  1.806396  0  0  -0.831819  0  1.985533  0  0  -0.849989  0  1.952006  0  0  -0.615127  -0.819031  0  2.00888  0
O  O55  1  0.98518255  0.72233161  0.43647595  1  0  -0.88943  0  1.806326  0  0  -0.831848  0  1.985424  0  0  -0.849996  0  1.951938  0  0  -0.615133  -0.81907  0  2.008792  0
O  O56  1  0.38561376  0.41138348  0.80373539  1  0  -0.924219  0  1.829881  0  0  -0.869501  0  2.021759  0  0  -0.886805  0  1.98775  0  0  -0.621963  -0.857116  0  2.046162  0
O  O57  1  0.88562088  0.58861779  0.69626083  1  0  -0.924288  0  1.829935  0  0  -0.869553  0  2.021756  0  0  -0.886871  0  1.987763  0  0  -0.622051  -0.857164  0  2.046151  0
O  O58  1  0.61439184  0.58861743  0.19626322  1  0  -0.924221  0  1.829881  0  0  -0.869516  0  2.021745  0  0  -0.886827  0  1.987741  0  0  -0.621976  -0.857137  0  2.046134  0
O  O59  1  0.11438472  0.41138194  0.30373763  1  0  -0.924244  0  1.829976  0  0  -0.869519  0  2.021789  0  0  -0.886835  0  1.987802  0  0  -0.622012  -0.857132  0  2.046181  0
