# generated using pymatgen
data_MgH9C16O3
_symmetry_space_group_name_H-M   'P 1'
_cell_length_a   6.90830133
_cell_length_b   34.38696403
_cell_length_c   34.38962390
_cell_angle_alpha   119.55108833
_cell_angle_beta   93.83533282
_cell_angle_gamma   93.84657646
_symmetry_Int_Tables_number   1
_chemical_formula_structural   MgH9C16O3
_chemical_formula_sum   'Mg6 H54 C96 O18'
_cell_volume   7043.52788071
_cell_formula_units_Z   6
loop_
 _symmetry_equiv_pos_site_id
 _symmetry_equiv_pos_as_xyz
  1  'x, y, z'
loop_
 _atom_site_type_symbol
 _atom_site_label
 _atom_site_symmetry_multiplicity
 _atom_site_fract_x
 _atom_site_fract_y
 _atom_site_fract_z
 _atom_site_occupancy
 _atom_site_pbe_bader_charge
 _atom_site_pbe_bader_spin_density
 _atom_site_pbe_cm5_charge
 _atom_site_pbe_ddec_charge
 _atom_site_pbe_ddec_spin_density
 _atom_site_pbe_ddec_sum_bond_order
 _atom_site_pbe_magmom
Mg  Mg0  1  0.24589922  0.66980314  0.30462935  1  1.683149  0  0.908845  1.410441  0  1.326523  0
Mg  Mg1  1  0.57620429  0.63480834  0.33013882  1  1.683616  0  0.909171  1.4102  0  1.32682  0
Mg  Mg2  1  0.94125784  0.69531085  0.36512997  1  1.681933  0  0.909018  1.410281  0  1.327024  0
Mg  Mg3  1  0.75410013  0.33019726  0.69537095  1  1.683149  0  0.908843  1.410475  0  1.326476  0
Mg  Mg4  1  0.42379489  0.36519173  0.66986102  1  1.683618  0  0.909165  1.410183  0  1.326861  0
Mg  Mg5  1  0.05874134  0.30468921  0.63487015  1  1.681963  0  0.909037  1.410363  0  1.326933  0
H  H6  1  0.28128565  0.17873361  0.57808158  1  0.106544  0  0.10343  0.106788  0  1.023259  0
H  H7  1  0.52504757  0.07030615  0.53775943  1  0.075209  0  0.101894  0.105837  0  1.004024  0
H  H8  1  0.14865343  0.11469824  0.56424959  1  0.052677  0  0.096212  0.090676  0  1.030756  0
H  H9  1  0.38362064  0.04985537  0.47018153  1  0.064026  0  0.098509  0.100008  0  1.034731  0
H  H10  1  0.42370431  0.99364759  0.39263890  1  0.06574  0  0.102102  0.099138  0  0.990933  0
H  H11  1  0.20136372  0.92118036  0.35242440  1  0.071053  0  0.101836  0.098774  0  0.989389  0
H  H12  1  0.94290168  0.90651234  0.39075100  1  0.068534  0  0.099431  0.099901  0  1.016124  0
H  H13  1  0.00236901  0.80323028  0.38259189  1  0.050122  0  0.103179  0.118803  0  1.015935  0
H  H14  1  0.18495787  0.88009655  0.42580357  1  0.08337  0  0.095939  0.091308  0  1.051498  0
H  H15  1  0.10262423  0.39933819  0.82134529  1  0.098125  0  0.103283  0.105819  0  1.024512  0
H  H16  1  0.45473012  0.46752534  0.92976980  1  0.066233  0  0.101764  0.105337  0  1.004563  0
H  H17  1  0.03407767  0.44958201  0.88530171  1  0.041071  0  0.096404  0.090945  0  1.030242  0
H  H18  1  0.33407910  0.42040713  0.95023911  1  0.059655  0  0.098182  0.099521  0  1.035359  0
H  H19  1  0.43031326  0.39910141  0.00645293  1  0.050384  0  0.10218  0.098988  0  0.990327  0
H  H20  1  0.28025373  0.43129452  0.07887574  1  0.076956  0  0.101885  0.098541  0  0.989683  0
H  H21  1  0.03644655  0.48427371  0.09350501  1  0.065275  0  0.099774  0.099164  0  1.017791  0
H  H22  1  0.19913987  0.57937574  0.19672914  1  0.069573  0  0.102986  0.118496  0  1.015669  0
H  H23  1  0.30469665  0.54569124  0.11988318  1  0.080388  0  0.095797  0.091097  0  1.051932  0
H  H24  1  0.70313834  0.42193442  0.60063651  1  0.071745  0  0.103415  0.106355  0  1.023763  0
H  H25  1  0.98727189  0.46225513  0.53252004  1  0.070924  0  0.101886  0.105495  0  1.003905  0
H  H26  1  0.58442523  0.43576584  0.55046278  1  0.03661  0  0.096248  0.090885  0  1.030642  0
H  H27  1  0.91342380  0.52985910  0.57964023  1  0.065001  0  0.098352  0.099529  0  1.034916  0
H  H28  1  0.03087657  0.60743654  0.60101293  1  0.062342  0  0.102176  0.099147  0  0.990308  0
H  H29  1  0.84855029  0.64765366  0.56879023  1  0.075574  0  0.101977  0.098656  0  0.989927  0
H  H30  1  0.55191850  0.60927102  0.51575795  1  0.046956  0  0.099544  0.098646  0  1.017546  0
H  H31  1  0.61989644  0.61738330  0.42064652  1  0.062853  0  0.103156  0.118979  0  1.015643  0
H  H32  1  0.75924309  0.57422004  0.45435090  1  0.064913  0  0.095855  0.091122  0  1.051721  0
H  H33  1  0.71871610  0.82126578  0.42191825  1  0.106531  0  0.10342  0.106794  0  1.023234  0
H  H34  1  0.47495290  0.92969358  0.46224055  1  0.075228  0  0.101898  0.105825  0  1.004026  0
H  H35  1  0.85134737  0.88530216  0.43575073  1  0.052688  0  0.096225  0.090718  0  1.030736  0
H  H36  1  0.61637854  0.95014469  0.52981831  1  0.064018  0  0.098505  0.1  0  1.034739  0
H  H37  1  0.57629487  0.00635247  0.60736122  1  0.065729  0  0.1021  0.099116  0  0.990949  0
H  H38  1  0.79863401  0.07881970  0.64757571  1  0.071033  0  0.101855  0.098811  0  0.989364  0
H  H39  1  0.05709912  0.09348806  0.60924961  1  0.068609  0  0.099431  0.099874  0  1.016143  0
H  H40  1  0.99763212  0.19677079  0.61740905  1  0.050104  0  0.103163  0.118812  0  1.01586  0
H  H41  1  0.81504745  0.11990419  0.57419727  1  0.08332  0  0.095935  0.09131  0  1.051546  0
H  H42  1  0.89737478  0.60066154  0.17865466  1  0.098122  0  0.103292  0.105838  0  1.024506  0
H  H43  1  0.54526777  0.53247506  0.07023077  1  0.066231  0  0.10174  0.105278  0  1.004588  0
H  H44  1  0.96592134  0.55041771  0.11469825  1  0.041064  0  0.096394  0.090917  0  1.030184  0
H  H45  1  0.66592008  0.57959294  0.04976044  1  0.05978  0  0.098201  0.099545  0  1.035351  0
H  H46  1  0.56968899  0.60089899  0.99354711  1  0.050382  0  0.10219  0.099022  0  0.990316  0
H  H47  1  0.71974835  0.56870555  0.92112501  1  0.076981  0  0.10187  0.098523  0  0.989645  0
H  H48  1  0.96355392  0.51572602  0.90649468  1  0.065281  0  0.099798  0.099202  0  1.017834  0
H  H49  1  0.80085948  0.42062466  0.80327145  1  0.069574  0  0.103  0.118512  0  1.015659  0
H  H50  1  0.69530125  0.45430916  0.88011709  1  0.080415  0  0.095797  0.091086  0  1.051951  0
H  H51  1  0.29686212  0.57806531  0.39936347  1  0.071834  0  0.103397  0.106346  0  1.02381  0
H  H52  1  0.01273489  0.53774561  0.46748052  1  0.070763  0  0.101881  0.105497  0  1.00385  0
H  H53  1  0.41557942  0.56423355  0.44953592  1  0.03678  0  0.096241  0.090872  0  1.030634  0
H  H54  1  0.08657538  0.47014096  0.42035960  1  0.064989  0  0.098364  0.09953  0  1.034928  0
H  H55  1  0.96912278  0.39256387  0.39898736  1  0.06235  0  0.102192  0.09916  0  0.990294  0
H  H56  1  0.15144889  0.35234641  0.43120990  1  0.075574  0  0.10199  0.098667  0  0.98996  0
H  H57  1  0.44808069  0.39072905  0.48424217  1  0.046921  0  0.099527  0.098635  0  1.017556  0
H  H58  1  0.38010385  0.38261609  0.57935329  1  0.062837  0  0.103149  0.118972  0  1.015637  0
H  H59  1  0.24075738  0.42577968  0.54564937  1  0.064924  0  0.095858  0.091119  0  1.051722  0
C  C60  1  0.74372173  0.23123417  0.62442820  1  0.538387  0  0.094263  0.367696  0  4.078441  0
C  C61  1  0.53677025  0.22514837  0.61197090  1  -0.024168  0  -0.041515  -0.205747  0  3.973815  0
C  C62  1  0.43774131  0.18148928  0.58731868  1  -0.060954  0  -0.081297  -0.109376  0  3.942473  0
C  C63  1  0.53253689  0.14296616  0.57428017  1  -0.021935  0  -0.026869  0.077446  0  4.077278  0
C  C64  1  0.43121445  0.09737345  0.55101091  1  0.016687  0  -0.092021  -0.129304  0  4.004044  0
C  C65  1  0.23605091  0.08683120  0.54703049  1  -0.112344  0  -0.096188  -0.132364  0  4.022562  0
C  C66  1  0.12450809  0.04218683  0.52313032  1  0.013798  0  -0.007936  0.018004  0  3.965279  0
C  C67  1  0.97652834  0.03227777  0.54486726  1  -0.013395  0  -0.010112  0.019423  0  3.979908  0
C  C68  1  0.84981536  0.99028112  0.52179293  1  -0.017136  0  -0.00592  0.033195  0  3.963498  0
C  C69  1  0.29192032  0.01776293  0.45379779  1  -0.010668  0  -0.093607  -0.127258  0  3.987377  0
C  C70  1  0.31310012  0.98647785  0.41013861  1  -0.046602  0  -0.096536  -0.088239  0  4.051014  0
C  C71  1  0.18751165  0.94553426  0.38739483  1  -0.138977  0  -0.095376  -0.085442  0  4.052234  0
C  C72  1  0.04510304  0.93705936  0.40916300  1  -0.054006  0  -0.096622  -0.13886  0  4.019042  0
C  C73  1  0.16034680  0.80785893  0.39099397  1  0.02666  0  -0.111401  -0.221016  0  3.991413  0
C  C74  1  0.26245695  0.85046200  0.41522430  1  -0.076052  0  -0.082681  -0.088915  0  3.977729  0
C  C75  1  0.57919104  0.73687791  0.37677427  1  1.523736  0  0.238086  0.679031  0  4.119235  0
C  C76  1  0.51252349  0.39316507  0.76881262  1  0.571535  0  0.093916  0.368375  0  4.076766  0
C  C77  1  0.31167215  0.38678947  0.77492401  1  -0.068413  0  -0.04192  -0.207093  0  3.974668  0
C  C78  1  0.25634251  0.40581633  0.81859220  1  -0.048305  0  -0.081293  -0.108787  0  3.942149  0
C  C79  1  0.38962477  0.43133772  0.85710591  1  0.045297  0  -0.026963  0.079025  0  4.075394  0
C  C80  1  0.33389557  0.45367978  0.90269127  1  -0.027901  0  -0.091525  -0.128749  0  4.003389  0
C  C81  1  0.14921427  0.46023661  0.91319101  1  -0.08951  0  -0.09657  -0.132598  0  4.023313  0
C  C82  1  0.08231991  0.48096319  0.95781856  1  0.024265  0  -0.007383  0.01741  0  3.967637  0
C  C83  1  0.94392764  0.51250867  0.96768175  1  -0.027425  0  -0.010841  0.020278  0  3.97882  0
C  C84  1  0.85918490  0.53141706  0.00966338  1  -0.050538  0  -0.005758  0.033131  0  3.963342  0
C  C85  1  0.27454005  0.43615079  0.98233257  1  -0.058684  0  -0.09312  -0.126577  0  3.986879  0
C  C86  1  0.32706848  0.42381121  0.01364157  1  -0.008092  0  -0.096554  -0.088162  0  4.050875  0
C  C87  1  0.24240775  0.44199390  0.05456994  1  -0.114347  0  -0.095305  -0.084668  0  4.052204  0
C  C88  1  0.10837946  0.47220888  0.06300549  1  -0.01547  0  -0.096959  -0.139079  0  4.019378  0
C  C89  1  0.35247726  0.58314984  0.19209937  1  -0.034722  0  -0.111755  -0.221676  0  3.99039  0
C  C90  1  0.41195576  0.56474859  0.14949397  1  -0.043264  0  -0.082392  -0.088931  0  3.978081  0
C  C91  1  0.84238464  0.63989269  0.26303216  1  1.500363  0  0.238328  0.679485  0  4.121568  0
C  C92  1  0.11916268  0.37559569  0.60680988  1  0.560335  0  0.094345  0.368463  0  4.076782  0
C  C93  1  0.92466154  0.38803624  0.61315209  1  -0.052072  0  -0.041923  -0.206615  0  3.975192  0
C  C94  1  0.85033087  0.41268177  0.59413194  1  0.021449  0  -0.081382  -0.109325  0  3.942751  0
C  C95  1  0.95815421  0.42571178  0.56863852  1  -0.009131  0  -0.027033  0.078222  0  4.076799  0
C  C96  1  0.88020790  0.44900661  0.54634242  1  0.003281  0  -0.092055  -0.129014  0  4.002023  0
C  C97  1  0.68898694  0.45299648  0.53981359  1  -0.13064  0  -0.096235  -0.132542  0  4.022318  0
C  C98  1  0.60138348  0.47688408  0.51906461  1  0.046938  0  -0.007279  0.018445  0  3.966411  0
C  C99  1  0.43164118  0.45513111  0.48744618  1  -0.051899  0  -0.011347  0.018537  0  3.979101  0
C  C100  1  0.32796289  0.47819856  0.46852531  1  -0.047608  0  -0.00567  0.033076  0  3.964571  0
C  C101  1  0.83810442  0.54624577  0.56394108  1  0.055367  0  -0.093351  -0.126049  0  3.987649  0
C  C102  1  0.90283868  0.58991991  0.57632636  1  -0.153942  0  -0.096532  -0.088819  0  4.05104  0
C  C103  1  0.79990325  0.61266321  0.55814140  1  -0.03346  0  -0.095259  -0.08467  0  4.051447  0
C  C104  1  0.63578296  0.59086072  0.52788045  1  -0.053294  0  -0.096642  -0.137865  0  4.018108  0
C  C105  1  0.76951882  0.60900650  0.41689262  1  -0.017643  0  -0.111871  -0.222067  0  3.991166  0
C  C106  1  0.84738757  0.58480632  0.43530292  1  -0.043477  0  -0.082465  -0.088788  0  3.978889  0
C  C107  1  0.20266864  0.62320269  0.36013009  1  1.512928  0  0.238165  0.67886  0  4.122184  0
C  C108  1  0.25627762  0.76876623  0.37557181  1  0.538392  0  0.094297  0.367774  0  4.078383  0
C  C109  1  0.46323056  0.77485203  0.38802884  1  -0.024256  0  -0.041503  -0.205711  0  3.973777  0
C  C110  1  0.56225932  0.81851079  0.41268147  1  -0.060908  0  -0.081313  -0.109449  0  3.942505  0
C  C111  1  0.46746503  0.85703357  0.42572012  1  -0.021939  0  -0.026864  0.077477  0  4.077233  0
C  C112  1  0.56878909  0.90262661  0.44898957  1  0.016683  0  -0.092005  -0.129231  0  4.004054  0
C  C113  1  0.76394989  0.91316920  0.45296983  1  -0.112354  0  -0.096273  -0.132515  0  4.022584  0
C  C114  1  0.87549271  0.95781357  0.47686999  1  0.01379  0  -0.00784  0.018061  0  3.965317  0
C  C115  1  0.02347246  0.96772263  0.45513335  1  -0.013436  0  -0.010163  0.019372  0  3.980054  0
C  C116  1  0.15018544  0.00971928  0.47820738  1  -0.017136  0  -0.005872  0.033254  0  3.963479  0
C  C117  1  0.70807869  0.98223680  0.54620188  1  -0.01067  0  -0.093608  -0.127255  0  3.987372  0
C  C118  1  0.68689761  0.01352222  0.58986121  1  -0.046462  0  -0.096514  -0.088171  0  4.050998  0
C  C119  1  0.81248753  0.05446580  0.61260588  1  -0.13906  0  -0.095412  -0.085514  0  4.052185  0
C  C120  1  0.95489776  0.06294104  0.59083731  1  -0.05413  0  -0.096631  -0.138846  0  4.018994  0
C  C121  1  0.83965512  0.19214080  0.60900574  1  0.026663  0  -0.11136  -0.22096  0  3.991261  0
C  C122  1  0.73754513  0.14953807  0.58477586  1  -0.076031  0  -0.082671  -0.088921  0  3.977801  0
C  C123  1  0.42080814  0.26312215  0.62322557  1  1.523705  0  0.238107  0.679037  0  4.119155  0
C  C124  1  0.48747698  0.60683466  0.23118736  1  0.571539  0  0.093924  0.368359  0  4.076713  0
C  C125  1  0.68832687  0.61321026  0.22507594  1  -0.068415  0  -0.041956  -0.207138  0  3.97467  0
C  C126  1  0.74365667  0.59418374  0.18140793  1  -0.048285  0  -0.081311  -0.108825  0  3.942063  0
C  C127  1  0.61037297  0.56866234  0.14289420  1  0.045309  0  -0.026932  0.079001  0  4.075348  0
C  C128  1  0.66610489  0.54631994  0.09730871  1  -0.027918  0  -0.091507  -0.128611  0  4.00343  0
C  C129  1  0.85078184  0.53976311  0.08680891  1  -0.089491  0  -0.096535  -0.132572  0  4.023364  0
C  C130  1  0.91767748  0.51903620  0.04218092  1  0.02413  0  -0.007427  0.017324  0  3.967584  0
C  C131  1  0.05607249  0.48749039  0.03231789  1  -0.027519  0  -0.01076  0.020388  0  3.978829  0
C  C132  1  0.14081121  0.46858266  0.99033595  1  -0.05061  0  -0.005729  0.033085  0  3.96334  0
C  C133  1  0.72546025  0.56384860  0.01766666  1  -0.058741  0  -0.093077  -0.126532  0  3.98689  0
C  C134  1  0.67293071  0.57618885  0.98635797  1  -0.008104  0  -0.096593  -0.088266  0  4.050873  0
C  C135  1  0.75759255  0.55800549  0.94542987  1  -0.11438  0  -0.09527  -0.084613  0  4.052221  0
C  C136  1  0.89161810  0.52779085  0.93699416  1  -0.015497  0  -0.096975  -0.1391  0  4.019426  0
C  C137  1  0.64752192  0.41685022  0.80790076  1  -0.034699  0  -0.111768  -0.221687  0  3.990399  0
C  C138  1  0.58804342  0.43525147  0.85050615  1  -0.043282  0  -0.082392  -0.088927  0  3.978065  0
C  C139  1  0.15761599  0.36010738  0.73696798  1  1.500345  0  0.238244  0.679307  0  4.121778  0
C  C140  1  0.88083779  0.62440404  0.39319010  1  0.560615  0  0.094368  0.3685  0  4.07684  0
C  C141  1  0.07533764  0.61196382  0.38684774  1  -0.052077  0  -0.041922  -0.206624  0  3.975225  0
C  C142  1  0.14966960  0.58731796  0.40586774  1  0.021353  0  -0.081364  -0.109337  0  3.942832  0
C  C143  1  0.04184787  0.57428829  0.43136136  1  -0.009146  0  -0.026982  0.078324  0  4.076874  0
C  C144  1  0.11979887  0.55099413  0.45365756  1  0.003504  0  -0.092034  -0.128971  0  4.002091  0
C  C145  1  0.31101224  0.54700358  0.46018566  1  -0.130901  0  -0.096261  -0.13265  0  4.022351  0
C  C146  1  0.39861972  0.52311531  0.48093466  1  0.04691  0  -0.007263  0.018539  0  3.966272  0
C  C147  1  0.56836219  0.54486862  0.51255325  1  -0.051977  0  -0.011332  0.018555  0  3.979043  0
C  C148  1  0.67204047  0.52180117  0.53147412  1  -0.04739  0  -0.005711  0.033015  0  3.964546  0
C  C149  1  0.16189767  0.45375430  0.43605879  1  0.055479  0  -0.093356  -0.126053  0  3.987647  0
C  C150  1  0.09716195  0.41008015  0.42367379  1  -0.153907  0  -0.096533  -0.088824  0  4.05101  0
C  C151  1  0.20009593  0.38733685  0.44185873  1  -0.033469  0  -0.095265  -0.084644  0  4.051471  0
C  C152  1  0.36421751  0.40913901  0.47211923  1  -0.053271  0  -0.096656  -0.137918  0  4.018119  0
C  C153  1  0.23048164  0.39099323  0.58310736  1  -0.017405  0  -0.111857  -0.222058  0  3.991154  0
C  C154  1  0.15261451  0.41519374  0.56469725  1  -0.043499  0  -0.082405  -0.088682  0  3.978769  0
C  C155  1  0.79733055  0.37679738  0.63986974  1  1.512928  0  0.238163  0.678848  0  4.122157  0
O  O156  1  0.75910720  0.74339737  0.39165638  1  -1.250351  0  -0.355531  -0.646242  0  2.149593  0
O  O157  1  0.49282111  0.69650647  0.35086683  1  -1.303782  0  -0.402988  -0.766266  0  2.417576  0
O  O158  1  0.15063032  0.72840628  0.35053425  1  -1.310679  0  -0.447509  -0.777679  0  2.3123  0
O  O159  1  0.01577985  0.64827526  0.25651156  1  -1.239672  0  -0.354978  -0.645789  0  2.151109  0
O  O160  1  0.79646947  0.65429235  0.30340423  1  -1.296563  0  -0.403246  -0.766286  0  2.417303  0
O  O161  1  0.42231568  0.62213842  0.27155179  1  -1.309616  0  -0.446972  -0.777426  0  2.311955  0
O  O162  1  0.36775124  0.60833841  0.35179477  1  -1.242551  0  -0.354917  -0.645269  0  2.151187  0
O  O163  1  0.14211303  0.64908382  0.34563570  1  -1.295776  0  -0.402907  -0.766133  0  2.417939  0
O  O164  1  0.80017833  0.64941369  0.37783571  1  -1.30667  0  -0.447199  -0.777451  0  2.31171  0
O  O165  1  0.24089070  0.25660303  0.60834390  1  -1.250364  0  -0.355554  -0.646283  0  2.149557  0
O  O166  1  0.50717807  0.30349359  0.64913358  1  -1.303781  0  -0.403017  -0.766272  0  2.41753  0
O  O167  1  0.84936887  0.27159378  0.64946530  1  -1.310682  0  -0.447495  -0.77765  0  2.312287  0
O  O168  1  0.98421934  0.35172481  0.74348857  1  -1.239679  0  -0.354938  -0.645733  0  2.15114  0
O  O169  1  0.20352971  0.34570771  0.69659619  1  -1.296549  0  -0.403225  -0.766236  0  2.417386  0
O  O170  1  0.57768351  0.37786164  0.72844862  1  -1.309604  0  -0.446931  -0.777413  0  2.311998  0
O  O171  1  0.63224939  0.39166165  0.64820538  1  -1.242558  0  -0.354917  -0.645266  0  2.1512  0
O  O172  1  0.85788760  0.35091624  0.65436444  1  -1.295766  0  -0.402905  -0.766144  0  2.417909  0
O  O173  1  0.19982214  0.35058604  0.62216456  1  -1.306636  0  -0.447195  -0.777464  0  2.311692  0
