# generated using pymatgen
data_Ni2MoH60C32(N5O)4
_symmetry_space_group_name_H-M   'P 1'
_cell_length_a   14.81710849
_cell_length_b   14.81402589
_cell_length_c   16.69325497
_cell_angle_alpha   105.37943044
_cell_angle_beta   105.37595552
_cell_angle_gamma   112.66548898
_symmetry_Int_Tables_number   1
_chemical_formula_structural   Ni2MoH60C32(N5O)4
_chemical_formula_sum   'Ni4 Mo2 H120 C64 N40 O8'
_cell_volume   2969.27379089
_cell_formula_units_Z   2
loop_
 _symmetry_equiv_pos_site_id
 _symmetry_equiv_pos_as_xyz
  1  'x, y, z'
loop_
 _atom_site_type_symbol
 _atom_site_label
 _atom_site_symmetry_multiplicity
 _atom_site_fract_x
 _atom_site_fract_y
 _atom_site_fract_z
 _atom_site_occupancy
 _atom_site_pbe_bader_charge
 _atom_site_pbe_bader_spin_density
 _atom_site_pbe_cm5_charge
 _atom_site_pbe_ddec_charge
 _atom_site_pbe_ddec_spin_density
 _atom_site_pbe_ddec_sum_bond_order
 _atom_site_pbe_magmom
Ni  Ni0  1  0.49999230  0.99998827  0.99999775  1  1.046162  1.457375  0.699389  0.591604  1.699231  2.771629  1.442
Ni  Ni1  1  0.99999170  0.49999884  0.50000073  1  1.047057  1.457313  0.699364  0.591496  1.699195  2.771971  1.442
Ni  Ni2  1  0.99998128  0.00000715  0.49997834  1  1.049564  1.462411  0.690786  0.59079  1.70118  2.708004  1.448
Ni  Ni3  1  0.00000850  0.99998267  0.99998179  1  1.04952  1.46231  0.690904  0.59062  1.701084  2.708555  1.448
Mo  Mo4  1  0.87293298  0.12711046  0.24998607  1  1.694135  0.022865  0.860794  0.590565  0.016748  5.520096  0.024
Mo  Mo5  1  0.12710198  0.87292877  0.74999336  1  1.695072  0.022861  0.860874  0.59035  0.016746  5.521147  0.024
H  H6  1  0.58165063  0.87278773  0.09648594  1  0.072373  0.000209  0.112154  0.100151  -5.2e-05  0.981798  0.0
H  H7  1  0.47339546  0.74009500  0.02788666  1  0.040589  0.004192  0.099662  0.075273  0.001972  0.986297  0.002
H  H8  1  0.65595342  0.90633569  0.98767930  1  0.07169  0.000859  0.120859  0.087799  0.000246  0.988427  0.001
H  H9  1  0.56963274  0.76837930  0.91048821  1  0.038258  0.006414  0.105867  0.054013  0.003006  1.001653  0.003
H  H10  1  0.62094534  0.00285932  0.81348804  1  0.029202  0.00694  0.108509  0.062374  0.003254  0.96734  0.003
H  H11  1  0.68492901  0.03883723  0.93320568  1  0.047643  0.000817  0.118061  0.078838  0.000262  0.992062  0.0
H  H12  1  0.34331768  0.81293336  0.02552875  1  0.056783  0.000481  0.109545  0.092781  0.000101  0.965697  0.0
H  H13  1  0.42039390  0.83146834  0.13689522  1  0.086402  0.003567  0.105537  0.095988  0.001705  1.000993  0.002
H  H14  1  0.00048984  0.19989952  0.62522279  1  0.05878  0.000401  0.106754  0.083108  8.3e-05  1.005032  0.0
H  H15  1  0.06702743  0.20734785  0.73495076  1  0.050272  0.004176  0.100187  0.078821  0.001995  0.984047  0.002
H  H16  1  0.14440755  0.25178961  0.58214325  1  0.073188  0.000886  0.117044  0.073377  0.00033  1.031266  0.0
H  H17  1  0.23670495  0.28422540  0.69232175  1  0.051684  0.005854  0.108201  0.059074  0.002733  1.007557  0.003
H  H18  1  0.26599603  0.13631717  0.46255282  1  0.044084  0.006796  0.105798  0.060805  0.003234  0.966644  0.003
H  H19  1  0.15842567  0.16530000  0.45105224  1  0.113018  0.000943  0.117863  0.092227  0.000295  1.009064  0.001
H  H20  1  0.87352822  0.06806434  0.66694658  1  0.017695  0.004336  0.098743  0.071915  0.002022  0.972829  0.002
H  H21  1  0.95573815  0.00658362  0.67604568  1  0.086902  0.000206  0.112868  0.099209  -6.8e-05  0.993095  0.0
H  H22  1  0.46469060  0.84248617  0.72421080  1  0.075615  0.000285  0.112193  0.097573  0.000129  0.966416  0.0
H  H23  1  0.40250667  0.76492889  0.77686198  1  0.0245  -4.7e-05  0.101606  0.078468  -9.9e-05  0.983914  0.0
H  H24  1  0.56014554  0.74314961  0.69655599  1  0.032774  0.000324  0.09496  0.05345  0.000159  0.984545  0.0
H  H25  1  0.51965863  0.67537402  0.76532324  1  0.031085  0.00043  0.092139  0.045522  0.000237  1.010162  0.0
H  H26  1  0.36244561  0.13980480  0.59366478  1  0.03894  0.000333  0.106725  0.086911  0.000161  0.968549  0.0
H  H27  1  0.26648329  0.07783109  0.63387944  1  0.026956  -6e-05  0.093645  0.0663  -0.00013  1.014525  0.0
H  H28  1  0.44352010  0.31335322  0.73083573  1  0.020038  7.7e-05  0.093775  0.060646  2.5e-05  0.965166  0.0
H  H29  1  0.35289988  0.24344264  0.77371992  1  0.038414  0.000123  0.083873  0.045918  6.6e-05  1.024964  0.0
H  H30  1  0.42068347  0.79662441  0.91252270  1  0.422131  -0.000344  0.301447  0.247517  -0.000284  0.955595  0.0
H  H31  1  0.53647222  0.01090968  0.16526952  1  0.445519  -0.000208  0.295613  0.249367  -0.000136  0.970218  0.0
H  H32  1  0.13530333  0.10479008  0.67152032  1  0.439796  -0.000213  0.295292  0.250391  -0.000173  0.973621  0.0
H  H33  1  0.83901225  0.01638767  0.50951835  1  0.413049  -8.6e-05  0.305587  0.249384  -0.000135  0.935146  0.0
H  H34  1  0.40968025  0.57882588  0.60499860  1  0.57114  0.000206  0.324713  0.344735  0.000129  0.903314  0.0
H  H35  1  0.42552534  0.12013876  0.74461299  1  0.607445  4e-06  0.284476  0.320817  2e-06  1.015934  0.0
H  H36  1  0.12718333  0.41834547  0.40351839  1  0.072261  0.000209  0.112106  0.100103  -5.2e-05  0.98191  0.0
H  H37  1  0.25988474  0.52659856  0.47211154  1  0.040066  0.004194  0.099765  0.075461  0.001972  0.985776  0.002
H  H38  1  0.09364789  0.34405048  0.51232726  1  0.071504  0.000858  0.120849  0.0878  0.000246  0.988499  0.001
H  H39  1  0.23160449  0.43036828  0.58952437  1  0.038667  0.006417  0.105959  0.054091  0.003008  1.001508  0.003
H  H40  1  0.99713211  0.37907089  0.68653105  1  0.029186  0.006937  0.108568  0.062467  0.003253  0.96714  0.003
H  H41  1  0.96114458  0.31508850  0.56680841  1  0.048155  0.000817  0.11812  0.078928  0.000262  0.992089  0.0
H  H42  1  0.18706813  0.65669297  0.47447973  1  0.056516  0.00048  0.109526  0.09271  0.000101  0.965668  0.0
H  H43  1  0.16850815  0.57959709  0.36310658  1  0.086456  0.003565  0.10547  0.095763  0.001704  1.001049  0.002
H  H44  1  0.80009103  0.99949324  0.87477326  1  0.054573  0.0004  0.106805  0.083152  8.4e-05  1.004899  0.0
H  H45  1  0.79264239  0.93295982  0.76504635  1  0.050407  0.004184  0.100134  0.078742  0.001998  0.984021  0.002
H  H46  1  0.74820270  0.85558834  0.91785116  1  0.072956  0.000887  0.117017  0.073248  0.000331  1.031434  0.0
H  H47  1  0.71575888  0.76329185  0.80767581  1  0.051618  0.00586  0.108189  0.059071  0.002736  1.007382  0.003
H  H48  1  0.86365553  0.73399739  0.03745141  1  0.04403  0.006786  0.105827  0.060824  0.00323  0.966651  0.003
H  H49  1  0.83468042  0.84156994  0.04894340  1  0.112921  0.000942  0.11788  0.092163  0.000295  1.009246  0.001
H  H50  1  0.93192462  0.12646019  0.83304921  1  0.016645  0.004341  0.098696  0.071844  0.002021  0.972857  0.002
H  H51  1  0.99340826  0.04424790  0.82395351  1  0.0864  0.000207  0.112871  0.099107  -6.8e-05  0.993145  0.0
H  H52  1  0.15751190  0.53531900  0.77580170  1  0.075861  0.000285  0.112249  0.097708  0.000129  0.966276  0.0
H  H53  1  0.23507310  0.59750023  0.72315204  1  0.02452  -4.7e-05  0.101569  0.07846  -9.9e-05  0.984051  0.0
H  H54  1  0.25683648  0.43984671  0.80344964  1  0.03253  0.000324  0.095016  0.053497  0.000159  0.984717  0.0
H  H55  1  0.32461324  0.48033327  0.73467905  1  0.026695  0.00043  0.092136  0.045478  0.000237  1.010252  0.0
H  H56  1  0.86018231  0.63755467  0.90634142  1  0.03877  0.000333  0.106747  0.086955  0.000161  0.968672  0.0
H  H57  1  0.92216375  0.73351659  0.86613389  1  0.027069  -6e-05  0.093606  0.066312  -0.000131  1.014359  0.0
H  H58  1  0.68664683  0.55647281  0.76916267  1  0.019976  7.7e-05  0.093803  0.060745  2.5e-05  0.96478  0.0
H  H59  1  0.75655304  0.64710604  0.72628357  1  0.038548  0.000124  0.083889  0.045948  6.6e-05  1.024931  0.0
H  H60  1  0.20337905  0.57932069  0.58749038  1  0.421943  -0.000341  0.301452  0.247449  -0.000281  0.955701  0.0
H  H61  1  0.98907622  0.46353659  0.33474846  1  0.445379  -0.000209  0.295588  0.249141  -0.000137  0.970685  0.0
H  H62  1  0.89519587  0.86467425  0.82846588  1  0.440103  -0.000217  0.295239  0.250218  -0.000176  0.973784  0.0
H  H63  1  0.98360492  0.16096351  0.99048245  1  0.41295  -8.4e-05  0.305518  0.249176  -0.000133  0.935409  0.0
H  H64  1  0.42116748  0.59030080  0.89500489  1  0.570943  0.000206  0.32483  0.34488  0.000129  0.903127  0.0
H  H65  1  0.87987099  0.57449643  0.75539282  1  0.606966  4e-06  0.284526  0.320936  2e-06  1.015481  0.0
H  H66  1  0.41835188  0.12718820  0.90352087  1  0.072486  0.00021  0.112123  0.100111  -5.2e-05  0.981907  0.0
H  H67  1  0.52660085  0.25988781  0.97211612  1  0.039938  0.004193  0.09973  0.075376  0.001971  0.986095  0.002
H  H68  1  0.34405078  0.09364598  0.01232814  1  0.071718  0.000859  0.120888  0.08793  0.000246  0.988483  0.001
H  H69  1  0.43036487  0.23160120  0.08952391  1  0.038609  0.006412  0.105958  0.05406  0.003005  1.001642  0.003
H  H70  1  0.37905474  0.99712379  0.18652354  1  0.029219  0.006939  0.108597  0.06248  0.003253  0.967159  0.003
H  H71  1  0.31508067  0.96114284  0.06680571  1  0.047895  0.000818  0.118084  0.078843  0.000262  0.992094  0.0
H  H72  1  0.65669166  0.18706487  0.97447803  1  0.056552  0.000481  0.109555  0.092745  0.000101  0.965535  0.0
H  H73  1  0.57960235  0.16851371  0.86310916  1  0.086387  0.00357  0.105489  0.095815  0.001706  1.001009  0.002
H  H74  1  0.99948978  0.80009065  0.37477769  1  0.054398  0.000399  0.106787  0.083171  8.3e-05  1.004913  0.0
H  H75  1  0.93295701  0.79263769  0.26504678  1  0.050809  0.004176  0.100156  0.078765  0.001995  0.984128  0.002
H  H76  1  0.85559006  0.74821010  0.41785262  1  0.07327  0.000886  0.117016  0.073293  0.00033  1.031361  0.0
H  H77  1  0.76329087  0.71576290  0.30767327  1  0.05156  0.005858  0.108206  0.059132  0.002734  1.007385  0.003
H  H78  1  0.73399464  0.86366220  0.53744833  1  0.043976  0.006796  0.105786  0.06077  0.003234  0.966574  0.003
H  H79  1  0.84157014  0.83468829  0.54894338  1  0.113251  0.000942  0.117865  0.092226  0.000295  1.009095  0.001
H  H80  1  0.12646179  0.93191898  0.33305178  1  0.01737  0.004335  0.098737  0.071897  0.002021  0.972822  0.002
H  H81  1  0.04424962  0.99340497  0.32394983  1  0.086848  0.000206  0.112879  0.099183  -6.9e-05  0.993095  0.0
H  H82  1  0.53531693  0.15750342  0.27579761  1  0.075624  0.000285  0.112217  0.097559  0.000129  0.966276  0.0
H  H83  1  0.59749200  0.23505990  0.22314645  1  0.024561  -4.7e-05  0.101588  0.078396  -9.9e-05  0.983902  0.0
H  H84  1  0.43984506  0.25682553  0.30344470  1  0.032637  0.000324  0.095004  0.053504  0.000159  0.984674  0.0
H  H85  1  0.48032320  0.32459762  0.23467263  1  0.026203  0.00043  0.092185  0.0456  0.000237  1.010211  0.0
H  H86  1  0.63755389  0.86019137  0.40634747  1  0.038713  0.000333  0.106713  0.0869  0.000161  0.968711  0.0
H  H87  1  0.73350987  0.92216555  0.36612957  1  0.02696  -6e-05  0.09365  0.066253  -0.00013  1.014592  0.0
H  H88  1  0.55645079  0.68665298  0.26917074  1  0.020458  7.7e-05  0.09386  0.060769  2.5e-05  0.964827  0.0
H  H89  1  0.64707888  0.75654638  0.22628187  1  0.03876  0.000124  0.083957  0.04599  6.6e-05  1.024818  0.0
H  H90  1  0.57931680  0.20336793  0.08748819  1  0.422122  -0.000344  0.301438  0.247524  -0.000283  0.955607  0.0
H  H91  1  0.46353591  0.98907941  0.83474551  1  0.445628  -0.00021  0.295567  0.249118  -0.000137  0.970616  0.0
H  H92  1  0.86467275  0.89519585  0.32846028  1  0.44013  -0.000216  0.295283  0.250418  -0.000174  0.973416  0.0
H  H93  1  0.16096253  0.98360154  0.49048191  1  0.412862  -8.4e-05  0.305473  0.249153  -0.000132  0.935427  0.0
H  H94  1  0.59029438  0.42115275  0.39500022  1  0.570746  0.000207  0.324764  0.344798  0.000129  0.903241  0.0
H  H95  1  0.57449146  0.87988547  0.25540202  1  0.607216  4e-06  0.284435  0.320842  2e-06  1.015737  0.0
H  H96  1  0.87279077  0.58166437  0.59649037  1  0.072131  0.000209  0.112131  0.100116  -5.2e-05  0.981896  0.0
H  H97  1  0.74009752  0.47340066  0.52788643  1  0.040756  0.004195  0.099702  0.07534  0.001973  0.985937  0.002
H  H98  1  0.90633271  0.65595835  0.48767866  1  0.071518  0.000858  0.120857  0.087802  0.000246  0.988609  0.001
H  H99  1  0.76837580  0.56962701  0.41048413  1  0.038224  0.00642  0.105892  0.054047  0.003008  1.001471  0.003
H  H100  1  0.00286265  0.62094323  0.31348924  1  0.029136  0.00694  0.108569  0.062506  0.003254  0.967394  0.003
H  H101  1  0.03883838  0.68493258  0.43320709  1  0.047678  0.000818  0.11805  0.078871  0.000263  0.992159  0.0
H  H102  1  0.81293580  0.34332365  0.52553085  1  0.056765  0.00048  0.109526  0.092687  0.0001  0.965857  0.0
H  H103  1  0.83147234  0.42040606  0.63689971  1  0.086414  0.003563  0.105494  0.095962  0.001702  1.000961  0.002
H  H104  1  0.19989736  0.00049207  0.12522698  1  0.058783  0.000402  0.10675  0.083087  8.4e-05  1.004863  0.0
H  H105  1  0.20734914  0.06702697  0.23495743  1  0.050008  0.004184  0.100135  0.07865  0.001998  0.984068  0.002
H  H106  1  0.25178974  0.14440312  0.08215160  1  0.07323  0.000887  0.116999  0.073261  0.00033  1.031439  0.0
H  H107  1  0.28423185  0.23670013  0.19233085  1  0.051526  0.005857  0.108212  0.059132  0.002734  1.00744  0.003
H  H108  1  0.13633110  0.26600440  0.96256444  1  0.044256  0.006785  0.105806  0.060883  0.003229  0.966694  0.003
H  H109  1  0.16530804  0.15842728  0.95106159  1  0.113465  0.000942  0.117803  0.092157  0.000295  1.009299  0.001
H  H110  1  0.06806139  0.87352816  0.16695180  1  0.017035  0.004342  0.098704  0.071841  0.002022  0.972911  0.002
H  H111  1  0.00658089  0.95573985  0.17604933  1  0.086182  0.000207  0.112854  0.099132  -6.8e-05  0.993185  0.0
H  H112  1  0.84248671  0.46468017  0.22421526  1  0.075931  0.000285  0.112213  0.097656  0.000129  0.966368  0.0
H  H113  1  0.76493189  0.40250270  0.27686921  1  0.02427  -4.7e-05  0.101611  0.078569  -9.9e-05  0.984166  0.0
H  H114  1  0.74314775  0.56013375  0.19655199  1  0.032952  0.000324  0.094931  0.053415  0.000159  0.984565  0.0
H  H115  1  0.67537190  0.51964837  0.26532010  1  0.031097  0.00043  0.092125  0.045439  0.000237  1.010256  0.0
H  H116  1  0.13981468  0.36244371  0.09367555  1  0.038757  0.000333  0.106801  0.086962  0.000161  0.968531  0.0
H  H117  1  0.07783954  0.26648338  0.13388861  1  0.026831  -6e-05  0.093654  0.066328  -0.00013  1.014525  0.0
H  H118  1  0.31336786  0.44350837  0.23084303  1  0.019841  7.7e-05  0.093784  0.060718  2.5e-05  0.964998  0.0
H  H119  1  0.24345281  0.35288827  0.27373037  1  0.038209  0.000124  0.083812  0.04588  6.6e-05  1.025122  0.0
H  H120  1  0.79662939  0.42068541  0.41252471  1  0.422142  -0.000343  0.301497  0.247615  -0.000283  0.955613  0.0
H  H121  1  0.01091364  0.53648139  0.66527696  1  0.445369  -0.000207  0.295641  0.249356  -0.000134  0.970352  0.0
H  H122  1  0.10479266  0.13530912  0.17152794  1  0.440151  -0.000214  0.295252  0.250164  -0.000174  0.973902  0.0
H  H123  1  0.01638096  0.83901707  0.00951782  1  0.412998  -8.8e-05  0.305516  0.249209  -0.000136  0.935378  0.0
H  H124  1  0.57882368  0.40966613  0.10499931  1  0.571381  0.000206  0.324714  0.344766  0.000129  0.903134  0.0
H  H125  1  0.12016189  0.42553346  0.24462634  1  0.607726  4e-06  0.284453  0.320893  2e-06  1.015714  0.0
C  C126  1  0.73530427  0.09944369  0.14473657  1  0.746164  0.002673  0.005573  -0.031709  -0.00072  3.806274  0.008
C  C127  1  0.73371136  0.06702562  0.27866021  1  0.748137  3.9e-05  0.011505  -0.005338  -0.000573  3.807395  0.0
C  C128  1  0.92984322  0.10668829  0.37297462  1  0.765044  0.006849  0.031533  0.025721  0.002734  3.721962  0.01
C  C129  1  0.04117877  0.17870160  0.29468764  1  0.677247  0.000437  -0.017513  -0.083179  1.9e-05  3.862844  0.0
C  C130  1  0.49853257  0.82549277  0.04439011  1  0.293251  0.000496  -0.06818  -0.044828  -0.000285  3.886283  -0.001
C  C131  1  0.57720355  0.84909989  0.93068041  1  0.634896  -0.000238  0.026042  0.051144  -0.000909  3.929935  -0.002
C  C132  1  0.60796537  0.98995861  0.87269380  1  0.642584  -0.000264  0.027334  0.046428  -0.000885  3.9622  -0.002
C  C133  1  0.42470572  0.85525672  0.08039254  1  0.248934  0.000618  -0.069731  -0.059978  -0.000184  3.885548  -0.001
C  C134  1  0.02618871  0.15582564  0.66111866  1  0.277003  0.000893  -0.070651  -0.057967  0.000105  3.909052  -0.001
C  C135  1  0.18458128  0.22048920  0.62293985  1  0.604397  3e-06  0.022231  0.046414  -0.000656  3.929971  -0.002
C  C136  1  0.20158220  0.13135478  0.48563591  1  0.579201  -0.000324  0.022954  0.046227  -0.000996  3.932772  -0.002
C  C137  1  0.92929877  0.05112542  0.64131956  1  0.263604  0.000809  -0.067499  -0.048611  8.3e-05  3.896459  -0.001
C  C138  1  0.47782671  0.80075508  0.76790263  1  0.301277  -5.4e-05  -0.065613  -0.079679  -0.000124  3.903875  0.0
C  C139  1  0.49539671  0.71066191  0.71876327  1  0.427346  0.00042  -0.077454  0.055987  0.000269  3.955946  0.0
C  C140  1  0.31563347  0.15486685  0.63174892  1  0.287134  -3.5e-05  -0.077842  -0.108836  -0.000112  3.961612  0.0
C  C141  1  0.39534077  0.23430089  0.72936058  1  0.474963  0.00023  -0.084121  0.065339  0.000167  3.955275  0.0
C  C142  1  0.90055733  0.26472787  0.35517122  1  0.749678  0.002687  0.00555  -0.031513  -0.000707  3.807564  0.008
C  C143  1  0.93304959  0.26639788  0.22128005  1  0.745412  3.6e-05  0.010827  -0.007107  -0.000576  3.807821  0.0
C  C144  1  0.89335938  0.07018753  0.12694344  1  0.763105  0.006887  0.031604  0.025555  0.002766  3.72128  0.01
C  C145  1  0.82140809  0.95893596  0.20528976  1  0.675777  0.000436  -0.017659  -0.083036  1.9e-05  3.865555  0.0
C  C146  1  0.17449313  0.50146739  0.45561935  1  0.294082  0.000493  -0.068338  -0.045058  -0.000285  3.885971  -0.001
C  C147  1  0.15088795  0.42279747  0.56933004  1  0.63406  -0.000235  0.025941  0.05105  -0.00091  3.930095  -0.002
C  C148  1  0.01003254  0.39205282  0.62732509  1  0.642019  -0.000267  0.027255  0.046299  -0.000887  3.962122  -0.002
C  C149  1  0.14472939  0.57529805  0.41961533  1  0.249241  0.000619  -0.06957  -0.059434  -0.000185  3.884531  -0.001
C  C150  1  0.84416808  0.97379802  0.83887799  1  0.281054  0.0009  -0.0706  -0.057945  0.000111  3.909328  -0.001
C  C151  1  0.77950357  0.81541282  0.87705617  1  0.604717  8e-06  0.022241  0.04665  -0.000652  3.930002  -0.002
C  C152  1  0.86863398  0.79841783  0.01436721  1  0.579484  -0.000325  0.022966  0.046365  -0.000996  3.932266  -0.002
C  C153  1  0.94886613  0.07068872  0.85867678  1  0.264666  0.000807  -0.067497  -0.048338  8.2e-05  3.896172  -0.001
C  C154  1  0.19924111  0.52217682  0.73211161  1  0.302646  -5.4e-05  -0.065686  -0.079851  -0.000123  3.903837  0.0
C  C155  1  0.28932631  0.50459354  0.78124054  1  0.432365  0.000419  -0.077416  0.056103  0.000269  3.95582  0.0
C  C156  1  0.84512348  0.68436645  0.86825547  1  0.28741  -3.5e-05  -0.07777  -0.108889  -0.000113  3.961884  0.0
C  C157  1  0.76569769  0.60465924  0.77064167  1  0.474851  0.00023  -0.084152  0.065227  0.000167  3.955192  0.0
C  C158  1  0.26471916  0.90054916  0.85519506  1  0.748901  0.002686  0.00552  -0.031654  -0.000711  3.806254  0.008
C  C159  1  0.26636792  0.93303198  0.72129928  1  0.748157  3.8e-05  0.010933  -0.006806  -0.000573  3.807975  0.0
C  C160  1  0.07018074  0.89333991  0.62696043  1  0.763865  0.006895  0.031864  0.026066  0.002768  3.721668  0.01
C  C161  1  0.95889581  0.82139417  0.70529147  1  0.676145  0.000437  -0.017437  -0.082831  2e-05  3.863699  0.0
C  C162  1  0.50146921  0.17449120  0.95561909  1  0.294256  0.000494  -0.068325  -0.045048  -0.000284  3.886187  -0.001
C  C163  1  0.42279661  0.15088122  0.06932710  1  0.633775  -0.000235  0.025935  0.051034  -0.000911  3.929938  -0.002
C  C164  1  0.39204190  0.01002446  0.12731953  1  0.642457  -0.000266  0.027218  0.046258  -0.000886  3.962794  -0.002
C  C165  1  0.57530016  0.14473276  0.91961723  1  0.249034  0.000619  -0.06961  -0.059622  -0.000184  3.884988  -0.001
C  C166  1  0.97379587  0.84416352  0.33887620  1  0.280783  0.000896  -0.070547  -0.057881  0.000106  3.908943  -0.001
C  C167  1  0.81541145  0.77950464  0.37705399  1  0.604445  6e-06  0.022231  0.04643  -0.000653  3.929961  -0.002
C  C168  1  0.79841108  0.86863432  0.51436408  1  0.579089  -0.000324  0.022971  0.046246  -0.000995  3.932738  -0.002
C  C169  1  0.07068900  0.94886178  0.35867501  1  0.264152  0.000808  -0.067544  -0.048448  8.1e-05  3.896496  -0.001
C  C170  1  0.52217113  0.19922982  0.23210404  1  0.303252  -5.4e-05  -0.065561  -0.079371  -0.000124  3.903724  0.0
C  C171  1  0.50459235  0.28931669  0.28123730  1  0.43237  0.000419  -0.07754  0.055763  0.000269  3.956351  0.0
C  C172  1  0.68435812  0.84512627  0.36825643  1  0.287832  -3.5e-05  -0.077796  -0.108808  -0.000112  3.961701  0.0
C  C173  1  0.60464055  0.76570058  0.27064371  1  0.474124  0.00023  -0.08427  0.065212  0.000167  3.954723  0.0
C  C174  1  0.09945219  0.73530938  0.64476850  1  0.74948  0.002687  0.005409  -0.031792  -0.000713  3.807296  0.008
C  C175  1  0.06700285  0.73368808  0.77867981  1  0.747869  3.7e-05  0.011128  -0.006338  -0.000575  3.808556  0.0
C  C176  1  0.10668099  0.92983301  0.87300396  1  0.764258  0.006884  0.031539  0.025791  0.002754  3.722072  0.01
C  C177  1  0.17864274  0.04112932  0.79468559  1  0.676759  0.000438  -0.017728  -0.083047  2e-05  3.864599  0.0
C  C178  1  0.82549291  0.49854118  0.54439323  1  0.292907  0.000496  -0.068194  -0.044792  -0.000285  3.885978  -0.001
C  C179  1  0.84909650  0.57720687  0.43067931  1  0.634961  -0.000236  0.026076  0.051118  -0.000909  3.930324  -0.002
C  C180  1  0.98995831  0.60796573  0.37269413  1  0.642577  -0.000264  0.027343  0.04634  -0.000886  3.962194  -0.002
C  C181  1  0.85526314  0.42471578  0.58039835  1  0.249158  0.000616  -0.069672  -0.059752  -0.000186  3.884904  -0.001
C  C182  1  0.15582430  0.02619060  0.16112525  1  0.277687  0.000897  -0.070439  -0.057506  0.000109  3.908995  -0.001
C  C183  1  0.22049285  0.18457983  0.12294906  1  0.604394  6e-06  0.022203  0.046469  -0.000654  3.930281  -0.002
C  C184  1  0.13135842  0.20158126  0.98564161  1  0.578848  -0.000323  0.023008  0.0462  -0.000997  3.932671  -0.002
C  C185  1  0.05112391  0.92930229  0.14132528  1  0.264249  0.000809  -0.06752  -0.048545  8.4e-05  3.896265  -0.001
C  C186  1  0.80075592  0.47782230  0.26790435  1  0.300962  -5.4e-05  -0.065648  -0.079903  -0.000123  3.904291  0.0
C  C187  1  0.71066191  0.49538743  0.21876279  1  0.427787  0.00042  -0.077332  0.056295  0.000269  3.955875  0.0
C  C188  1  0.15487513  0.31562924  0.13175944  1  0.28697  -3.5e-05  -0.077914  -0.108962  -0.000113  3.961623  0.0
C  C189  1  0.23431625  0.39533482  0.22937061  1  0.475924  0.00023  -0.084019  0.065402  0.000167  3.955333  0.0
N  N190  1  0.65771080  0.07810037  0.08390870  1  -1.374726  0.059529  -0.389413  -0.35784  0.035379  3.453819  0.049
N  N191  1  0.65400002  0.03018194  0.28901150  1  -1.355724  0.001928  -0.375482  -0.395356  0.000983  3.030508  0.001
N  N192  1  0.96294913  0.09327791  0.43854141  1  -1.360827  0.055281  -0.377457  -0.367041  0.032366  3.360776  0.045
N  N193  1  0.13283168  0.20511282  0.31477964  1  -1.322348  0.001275  -0.381575  -0.379485  0.000559  3.005109  0.001
N  N194  1  0.49482220  0.85105577  0.96434021  1  -1.050127  0.086896  -0.490707  -0.337312  0.050805  3.541153  0.076
N  N195  1  0.57117560  0.87814196  0.85402241  1  -1.070787  0.001439  -0.340454  -0.178964  0.000326  3.581503  0.002
N  N196  1  0.46576487  0.97168663  0.10765622  1  -1.058124  0.088447  -0.488995  -0.330022  0.051514  3.511186  0.077
N  N197  1  0.09890118  0.12930809  0.62692056  1  -1.049967  0.085953  -0.49098  -0.331471  0.050074  3.496604  0.075
N  N198  1  0.25054635  0.19249063  0.58295235  1  -1.06637  0.001614  -0.345342  -0.180876  0.000467  3.576394  0.002
N  N199  1  0.87684063  0.98343649  0.54265787  1  -1.04128  0.084743  -0.489173  -0.327595  0.049401  3.521704  0.074
N  N200  1  0.92186400  0.34228623  0.41603167  1  -1.379157  0.059524  -0.389615  -0.357938  0.035367  3.454036  0.049
N  N201  1  0.96988810  0.34614815  0.21096275  1  -1.353246  0.00192  -0.374576  -0.393733  0.000979  3.031195  0.001
N  N202  1  0.90674751  0.03702238  0.06137287  1  -1.359022  0.055291  -0.377308  -0.366629  0.032378  3.361527  0.045
N  N203  1  0.79497192  0.86727110  0.18525471  1  -1.320451  0.001272  -0.38182  -0.379882  0.000557  3.005949  0.001
N  N204  1  0.14893730  0.50518319  0.53567126  1  -1.049684  0.086911  -0.490544  -0.337175  0.050816  3.54139  0.076
N  N205  1  0.12184229  0.42882949  0.64598870  1  -1.072349  0.001441  -0.34041  -0.178971  0.000327  3.580973  0.002
N  N206  1  0.02830876  0.53424759  0.39236373  1  -1.057683  0.088487  -0.489153  -0.33015  0.051538  3.510912  0.077
N  N207  1  0.87068076  0.90108096  0.87306736  1  -1.050305  0.085985  -0.490913  -0.331482  0.05009  3.497313  0.075
N  N208  1  0.80750011  0.74945002  0.91705108  1  -1.066431  0.001612  -0.345485  -0.181033  0.000465  3.576484  0.002
N  N209  1  0.01656127  0.12314601  0.95733741  1  -1.04136  0.084769  -0.489097  -0.327336  0.049416  3.521444  0.074
N  N210  1  0.34227861  0.92186577  0.91604334  1  -1.378217  0.059512  -0.389459  -0.357857  0.035366  3.452963  0.049
N  N211  1  0.34609937  0.96986754  0.71097131  1  -1.355753  0.001923  -0.374655  -0.393895  0.00098  3.031549  0.001
N  N212  1  0.03702549  0.90672144  0.56138580  1  -1.359679  0.055271  -0.377627  -0.367271  0.032371  3.36164  0.045
N  N213  1  0.86724526  0.79496234  0.68524531  1  -1.321066  0.001273  -0.381727  -0.379839  0.000558  3.005676  0.001
N  N214  1  0.50517965  0.14893105  0.03566852  1  -1.049618  0.086887  -0.490651  -0.337194  0.050802  3.541041  0.076
N  N215  1  0.42882534  0.12183881  0.14598581  1  -1.072895  0.001439  -0.340567  -0.179271  0.000326  3.581711  0.002
N  N216  1  0.53424414  0.02830431  0.89235768  1  -1.057905  0.088489  -0.489047  -0.329926  0.051538  3.511043  0.077
N  N217  1  0.90107975  0.87068437  0.37306343  1  -1.050351  0.085972  -0.491003  -0.331674  0.050082  3.496839  0.075
N  N218  1  0.74944535  0.80749842  0.41704664  1  -1.06659  0.001615  -0.345374  -0.180796  0.000467  3.576352  0.002
N  N219  1  0.12314321  0.01655582  0.45733699  1  -1.041229  0.084769  -0.489112  -0.327496  0.049418  3.521908  0.074
N  N220  1  0.07811148  0.65771733  0.58392436  1  -1.378953  0.059538  -0.389492  -0.357677  0.035378  3.454007  0.049
N  N221  1  0.03015680  0.65395631  0.78901898  1  -1.355723  0.001924  -0.375081  -0.394492  0.000981  3.031187  0.001
N  N222  1  0.09327918  0.96295426  0.93857535  1  -1.360068  0.055256  -0.377425  -0.367019  0.032356  3.361478  0.045
N  N223  1  0.20507141  0.13279767  0.81476040  1  -1.321842  0.001276  -0.38172  -0.379783  0.000559  3.005449  0.001
N  N224  1  0.85105755  0.49482823  0.46434419  1  -1.050416  0.086925  -0.490734  -0.337477  0.050824  3.541193  0.076
N  N225  1  0.87814536  0.57117847  0.35402353  1  -1.070412  0.00144  -0.340469  -0.178999  0.000327  3.581264  0.002
N  N226  1  0.97168769  0.46577365  0.60765813  1  -1.057937  0.088445  -0.489086  -0.330239  0.051512  3.511025  0.077
N  N227  1  0.12931336  0.09890508  0.12692969  1  -1.050275  0.085974  -0.491031  -0.331532  0.050086  3.497316  0.075
N  N228  1  0.19249137  0.25054229  0.08295765  1  -1.066597  0.001611  -0.345438  -0.180912  0.000465  3.576719  0.002
N  N229  1  0.98343280  0.87684346  0.04266347  1  -1.041237  0.084751  -0.48913  -0.327429  0.049405  3.521303  0.074
O  O230  1  0.39609000  0.63082718  0.64172221  1  -1.099123  0.000733  -0.406168  -0.480086  0.000374  2.266736  0.0
O  O231  1  0.46788685  0.19829069  0.76290564  1  -1.142373  0.000332  -0.431932  -0.500126  0.000145  2.242269  0.0
O  O232  1  0.36917295  0.60389984  0.85828979  1  -1.099087  0.000734  -0.406332  -0.480297  0.000375  2.266558  0.0
O  O233  1  0.80172626  0.53212263  0.73709885  1  -1.142017  0.000331  -0.431861  -0.500095  0.000145  2.242234  0.0
O  O234  1  0.60389677  0.36916153  0.35828028  1  -1.098666  0.000733  -0.406209  -0.480113  0.000374  2.266688  0.0
O  O235  1  0.53210995  0.80173508  0.23710663  1  -1.142467  0.000331  -0.431855  -0.500097  0.000145  2.241899  0.0
O  O236  1  0.63082391  0.39607544  0.14171727  1  -1.099774  0.000734  -0.406211  -0.480224  0.000375  2.266604  0.0
O  O237  1  0.19830957  0.46789045  0.26291870  1  -1.14269  0.000332  -0.43188  -0.500237  0.000146  2.242424  0.0
