# generated using pymatgen
data_CuH12C16(NO)4
_symmetry_space_group_name_H-M   'P 1'
_cell_length_a   8.59581198
_cell_length_b   9.75224576
_cell_length_c   9.75222981
_cell_angle_alpha   70.82765388
_cell_angle_beta   86.22905025
_cell_angle_gamma   86.22896837
_symmetry_Int_Tables_number   1
_chemical_formula_structural   CuH12C16(NO)4
_chemical_formula_sum   'Cu2 H24 C32 N8 O8'
_cell_volume   769.65263999
_cell_formula_units_Z   2
loop_
 _symmetry_equiv_pos_site_id
 _symmetry_equiv_pos_as_xyz
  1  'x, y, z'
loop_
 _atom_site_type_symbol
 _atom_site_label
 _atom_site_symmetry_multiplicity
 _atom_site_fract_x
 _atom_site_fract_y
 _atom_site_fract_z
 _atom_site_occupancy
 _atom_site_hle17_ddec_charge
 _atom_site_hle17_ddec_spin_density
 _atom_site_hle17_ddec_sum_bond_order
 _atom_site_hle17_magmom
 _atom_site_hse06_10hf_ddec_charge
 _atom_site_hse06_10hf_ddec_spin_density
 _atom_site_hse06_10hf_ddec_sum_bond_order
 _atom_site_hse06_10hf_magmom
 _atom_site_hse06_ddec_charge
 _atom_site_hse06_ddec_spin_density
 _atom_site_hse06_ddec_sum_bond_order
 _atom_site_hse06_magmom
 _atom_site_pbe_cm5_charge
 _atom_site_pbe_ddec_charge
 _atom_site_pbe_ddec_spin_density
 _atom_site_pbe_ddec_sum_bond_order
 _atom_site_pbe_magmom
Cu  Cu0  1  0.25000074  0.33930873  0.66069063  1  0.834705  -0.725979  1.869391  -0.509  0.818033  -0.813701  2.254376  -0.634  0.908815  -0.895126  2.190374  -0.725  0.737323  0.761864  -0.736711  2.298465  -0.56
Cu  Cu1  1  0.75000001  0.66069031  0.33931110  1  0.834787  0.725989  1.869393  0.509  0.818119  0.813707  2.254411  0.634  0.908896  0.895133  2.190345  0.725  0.737348  0.761934  0.736706  2.298497  0.56
H  H2  1  0.50291473  0.17472058  0.84741508  1  0.08007  -0.00122  0.941649  -0.002  0.087592  -0.000977  1.006819  -0.001  0.089541  -0.000698  1.0047  -0.001  0.112306  0.085499  -0.00119  1.009365  -0.002
H  H3  1  0.99708914  0.15258464  0.82527700  1  0.080066  -0.00122  0.941635  -0.002  0.08756  -0.000977  1.006845  -0.001  0.089514  -0.000698  1.004711  -0.001  0.112289  0.085471  -0.00119  1.009396  -0.002
H  H4  1  0.49709329  0.82527302  0.15258598  1  0.080106  0.001217  0.941548  0.002  0.087584  0.000977  1.006772  0.001  0.089536  0.000698  1.004644  0.001  0.112291  0.085491  0.00119  1.009326  0.002
H  H5  1  0.00290700  0.84741331  0.17472638  1  0.080109  0.001216  0.941591  0.002  0.08755  0.000977  1.006851  0.001  0.089502  0.000698  1.004722  0.001  0.112282  0.085456  0.00119  1.009399  0.002
H  H6  1  0.64671773  0.93409947  0.89926305  1  0.098653  -0.000506  0.96252  0.0  0.109136  -0.00044  1.021441  0.0  0.111406  -0.000321  1.022746  0.0  0.099284  0.107298  -0.000538  1.021396  -0.001
H  H7  1  0.85328598  0.10073430  0.06590036  1  0.098664  -0.000504  0.962512  0.0  0.109151  -0.00044  1.021433  0.0  0.11142  -0.000321  1.02274  0.0  0.099309  0.107307  -0.000538  1.021385  -0.001
H  H8  1  0.35328435  0.06589630  0.10073456  1  0.098659  0.000507  0.962511  0.0  0.10914  0.00044  1.02144  0.0  0.11141  0.000321  1.022746  0.0  0.099285  0.107301  0.000538  1.021396  0.001
H  H9  1  0.14671478  0.89926474  0.93410342  1  0.098685  0.000501  0.962499  0.0  0.109167  0.00044  1.021424  0.0  0.111437  0.000321  1.022731  0.0  0.099305  0.107328  0.000538  1.021382  0.001
H  H10  1  0.13350891  0.16099867  0.50694966  1  0.319003  -0.000106  0.919446  0.0  0.301328  -5e-05  0.981533  0.0  0.309487  -3.2e-05  0.974755  0.0  0.31482  0.29546  -7.6e-05  0.986362  0.0
H  H11  1  0.36649144  0.49304991  0.83900279  1  0.318981  -0.000107  0.919399  0.0  0.301301  -5e-05  0.981497  0.0  0.30946  -3.2e-05  0.974719  0.0  0.314813  0.295442  -7.6e-05  0.986329  0.0
H  H12  1  0.86649512  0.83900471  0.49304942  1  0.319011  0.000107  0.919354  0.0  0.301315  5e-05  0.981484  0.0  0.309474  3.2e-05  0.974708  0.0  0.314825  0.295451  7.6e-05  0.986318  0.0
H  H13  1  0.63350581  0.50694912  0.16099710  1  0.318999  0.000106  0.919376  0.0  0.301326  5e-05  0.981472  0.0  0.309484  3.2e-05  0.974696  0.0  0.314811  0.295457  7.6e-05  0.986307  0.0
H  H14  1  0.57702517  0.75899197  0.77530768  1  0.102744  -0.00047  0.957986  -0.001  0.111347  -8.3e-05  1.021925  0.0  0.114223  -2.7e-05  1.019787  0.0  0.101977  0.109151  -0.000115  1.023724  0.0
H  H15  1  0.92297943  0.22468893  0.24100914  1  0.102778  -0.000474  0.957977  -0.001  0.111388  -8.3e-05  1.021907  0.0  0.114263  -2.7e-05  1.01977  0.0  0.10199  0.109186  -0.000115  1.023702  0.0
H  H16  1  0.42297564  0.24100597  0.22469031  1  0.102788  0.000469  0.957966  0.001  0.111374  8.4e-05  1.021918  0.0  0.114249  2.7e-05  1.019782  0.0  0.101993  0.109176  0.000115  1.023717  0.0
H  H17  1  0.07702382  0.77530686  0.75899557  1  0.102778  0.000468  0.957947  0.001  0.111361  8.3e-05  1.021905  0.0  0.114236  2.7e-05  1.019769  0.0  0.101987  0.109161  0.000115  1.023705  0.0
H  H18  1  0.33803039  0.73825486  0.55709533  1  0.134001  -0.000438  0.972407  -0.001  0.142275  -0.000274  1.032842  0.0  0.14575  -0.000174  1.031113  0.0  0.103819  0.139621  -0.000377  1.034029  0.0
H  H19  1  0.16196638  0.44290634  0.26174388  1  0.134021  -0.000441  0.97239  -0.001  0.142236  -0.000274  1.032901  0.0  0.145736  -0.000174  1.031137  0.0  0.103812  0.139583  -0.000377  1.034074  0.0
H  H20  1  0.66196903  0.26174743  0.44290131  1  0.134005  0.000445  0.972379  0.001  0.142272  0.000273  1.032829  0.0  0.145763  0.000175  1.03108  0.0  0.103819  0.139612  0.000377  1.034013  0.0
H  H21  1  0.83803193  0.55709486  0.73825421  1  0.134014  0.000447  0.972374  0.001  0.142294  0.000273  1.032806  0.0  0.14578  0.000174  1.031063  0.0  0.103837  0.139638  0.000377  1.033986  0.0
H  H22  1  0.12594269  0.94280356  0.41631672  1  0.096157  0.000133  0.954523  0.0  0.107025  3.3e-05  1.014211  0.0  0.109662  2.9e-05  1.012522  0.0  0.118002  0.105096  3.9e-05  1.015629  0.0
H  H23  1  0.37405521  0.58368379  0.05719788  1  0.096203  0.00013  0.954514  0.0  0.107074  3.3e-05  1.014197  0.0  0.109712  2.8e-05  1.012505  0.0  0.118002  0.10515  3.9e-05  1.015615  0.0
H  H24  1  0.87405773  0.05720199  0.58367980  1  0.096198  -0.000135  0.954521  0.0  0.107067  -3.3e-05  1.014208  0.0  0.109704  -2.9e-05  1.01252  0.0  0.117989  0.105138  -3.9e-05  1.015626  0.0
H  H25  1  0.62594188  0.41631850  0.94279991  1  0.09618  -0.00013  0.954531  0.0  0.107047  -3.3e-05  1.014219  0.0  0.109684  -2.8e-05  1.01253  0.0  0.117995  0.105122  -3.9e-05  1.015638  0.0
C  C26  1  0.47268038  0.09686216  0.79611343  1  0.111406  0.00842  3.732269  0.009  0.080341  0.001616  4.000219  0.002  0.091757  0.002509  4.016778  0.004  0.030823  0.073619  0.000861  3.990856  0.002
C  C27  1  0.02732135  0.20388442  0.90313727  1  0.111441  0.008413  3.732236  0.009  0.080399  0.001614  4.000158  0.002  0.091808  0.002513  4.016734  0.004  0.030854  0.07367  0.000861  3.990806  0.002
C  C28  1  0.52732287  0.90313362  0.20388719  1  0.111401  -0.008412  3.731961  -0.009  0.080385  -0.001616  3.999868  -0.002  0.091784  -0.00251  4.016457  -0.004  0.030837  0.073664  -0.000861  3.990508  -0.002
C  C29  1  0.97267601  0.79611245  0.09686641  1  0.111341  -0.008405  3.73211  -0.009  0.080348  -0.001616  4.000027  -0.002  0.091754  -0.002511  4.016603  -0.004  0.030793  0.073628  -0.000861  3.990658  -0.002
C  C30  1  0.55246809  0.96123907  0.82404210  1  -0.162721  -0.008682  3.801756  -0.009  -0.175817  -0.003152  4.059386  -0.004  -0.185392  -0.002817  4.082067  -0.003  -0.107052  -0.170231  -0.003359  4.0468  -0.004
C  C31  1  0.94753573  0.17595580  0.03876124  1  -0.162717  -0.008689  3.801774  -0.009  -0.175828  -0.00315  4.059413  -0.004  -0.185404  -0.002821  4.082093  -0.003  -0.107088  -0.170241  -0.003359  4.046815  -0.004
C  C32  1  0.44753277  0.03875779  0.17595727  1  -0.162798  0.008676  3.801677  0.009  -0.17591  0.003151  4.05933  0.004  -0.185483  0.002818  4.082006  0.003  -0.107115  -0.170325  0.003359  4.046744  0.004
C  C33  1  0.05246630  0.82404106  0.96124216  1  -0.162807  0.008698  3.801692  0.009  -0.175908  0.003152  4.059322  0.004  -0.185484  0.00282  4.082003  0.003  -0.107106  -0.170325  0.003359  4.046739  0.004
C  C34  1  0.51353032  0.86378310  0.75555186  1  -0.035172  0.009363  3.699753  0.009  -0.058443  0.002794  3.946016  0.003  -0.05173  0.002999  3.960609  0.003  -0.071981  -0.063633  0.002532  3.937631  0.002
C  C35  1  0.98647125  0.24444913  0.13621650  1  -0.035271  0.009375  3.699795  0.009  -0.058541  0.002792  3.946067  0.003  -0.051827  0.003004  3.960659  0.003  -0.072003  -0.063724  0.002532  3.937662  0.002
C  C36  1  0.48646821  0.13621376  0.24444970  1  -0.035199  -0.009359  3.699781  -0.009  -0.058453  -0.002793  3.946067  -0.003  -0.051738  -0.002999  3.960659  -0.003  -0.071983  -0.063641  -0.002532  3.937676  -0.002
C  C37  1  0.01353078  0.75554774  0.86378690  1  -0.035183  -0.009368  3.69976  -0.009  -0.058438  -0.002792  3.946049  -0.003  -0.051724  -0.003002  3.960642  -0.003  -0.071988  -0.063626  -0.002532  3.93766  -0.002
C  C38  1  0.39356251  0.90686831  0.65773561  1  -0.02108  -0.008919  3.811979  -0.01  -0.002129  -0.00402  4.043635  -0.005  -0.007439  -0.003375  4.068262  -0.004  -0.017093  0.000794  -0.00425  4.027854  -0.005
C  C39  1  0.10643491  0.34226668  0.09312980  1  -0.020961  -0.008915  3.811973  -0.01  -0.00202  -0.004019  4.043625  -0.005  -0.007332  -0.003377  4.068252  -0.004  -0.017047  0.000893  -0.00425  4.027844  -0.005
C  C40  1  0.60643491  0.09312746  0.34226432  1  -0.020997  0.008916  3.812037  0.01  -0.00206  0.004018  4.0437  0.005  -0.007368  0.003376  4.068329  0.004  -0.017007  0.000861  0.00425  4.027908  0.005
C  C41  1  0.89356462  0.65773345  0.90687369  1  -0.021093  0.008919  3.811988  0.01  -0.002143  0.004019  4.043655  0.005  -0.007456  0.003376  4.068284  0.004  -0.017058  0.000774  0.00425  4.027872  0.005
C  C42  1  0.31793255  0.84556037  0.56641010  1  -0.207732  0.001241  3.736  0.001  -0.232864  -0.00039  3.996688  0.0  -0.237971  -2.7e-05  4.016655  0.0  -0.120032  -0.229484  -0.000603  3.984001  0.0
C  C43  1  0.18205964  0.43359311  0.15443841  1  -0.20774  0.00124  3.736053  0.001  -0.232818  -0.000392  3.996766  0.0  -0.237944  -2.3e-05  4.016715  0.0  -0.120021  -0.229429  -0.000603  3.984068  0.0
C  C44  1  0.68206344  0.15444083  0.43358812  1  -0.207665  -0.001254  3.735952  -0.001  -0.232781  0.00039  3.996641  0.0  -0.2379  2.6e-05  4.016598  0.0  -0.120001  -0.229398  0.000603  3.983948  0.0
C  C45  1  0.81793629  0.56640918  0.84556047  1  -0.207712  -0.001269  3.735939  -0.001  -0.232847  0.000391  3.99664  0.0  -0.237963  2.6e-05  4.0166  0.0  -0.120051  -0.229465  0.000603  3.983947  0.0
C  C46  1  0.20727320  0.94798571  0.49464701  1  0.073932  -0.003262  3.700136  -0.003  0.035225  -0.000472  3.969318  0.0  0.041471  -0.000678  3.986218  -0.001  0.012842  0.031168  -0.000295  3.958329  0.0
C  C47  1  0.29272360  0.50535386  0.05201492  1  0.07382  -0.003251  3.700141  -0.003  0.035109  -0.000469  3.969301  0.0  0.041352  -0.000683  3.986209  -0.001  0.01282  0.031051  -0.000295  3.958333  0.0
C  C48  1  0.79272845  0.05201875  0.50534878  1  0.073701  0.003266  3.700134  0.003  0.034994  0.000472  3.969334  0.0  0.041237  0.000679  3.986239  0.001  0.012744  0.030935  0.000295  3.958347  0.0
C  C49  1  0.70727233  0.49464843  0.94798295  1  0.073858  0.003269  3.700105  0.003  0.035155  0.000471  3.969297  0.0  0.041399  0.000679  3.9862  0.001  0.012823  0.031084  0.000295  3.958316  0.0
C  C50  1  0.32018749  0.04844550  0.63551897  1  0.332535  0.001608  3.770434  0.002  0.309959  -0.001142  4.026059  0.0  0.324477  -6.8e-05  4.044854  0.001  0.217934  0.301477  -0.001834  4.012711  -0.001
C  C51  1  0.17981137  0.36448388  0.95155351  1  0.332498  0.001589  3.770423  0.002  0.309908  -0.001142  4.026054  0.0  0.324433  -6.7e-05  4.044837  0.001  0.217889  0.301445  -0.001834  4.012694  -0.001
C  C52  1  0.67981215  0.95155246  0.36448421  1  0.332546  -0.001596  3.770453  -0.002  0.309978  0.001143  4.026074  0.0  0.324489  6.7e-05  4.044877  -0.001  0.217909  0.301504  0.001834  4.012711  0.001
C  C53  1  0.82018822  0.63551516  0.04844726  1  0.332595  -0.001589  3.770406  -0.002  0.310019  0.001142  4.026039  0.0  0.324542  6.9e-05  4.044825  -0.001  0.217925  0.301539  0.001834  4.012676  0.001
C  C54  1  0.46675134  0.48400924  0.43407966  1  0.533996  0.005701  3.895417  0.009  0.498944  0.000696  4.194387  0.003  0.531137  0.000731  4.188389  0.003  0.205195  0.476753  0.000603  4.197568  0.003
C  C55  1  0.03325127  0.56592045  0.51599112  1  0.534047  0.005702  3.895182  0.009  0.498954  0.000696  4.194202  0.003  0.531149  0.00073  4.1882  0.003  0.2052  0.476765  0.000603  4.19737  0.003
C  C56  1  0.53325486  0.51599741  0.56592129  1  0.534137  -0.005706  3.895221  -0.009  0.498942  -0.000702  4.19435  -0.003  0.531139  -0.000731  4.188347  -0.003  0.205203  0.476747  -0.000603  4.197537  -0.003
C  C57  1  0.96674477  0.43407966  0.48400335  1  0.534107  -0.005708  3.895211  -0.009  0.498955  -0.000703  4.194288  -0.003  0.53115  -0.00073  4.188289  -0.003  0.205206  0.476763  -0.000603  4.197462  -0.003
N  N58  1  0.35621562  0.14098339  0.70321864  1  -0.377871  -0.076384  3.349702  -0.094  -0.338673  -0.053006  3.656352  -0.07  -0.369964  -0.044554  3.675568  -0.062  -0.353875  -0.321255  -0.05599  3.645059  -0.071
N  N59  1  0.14378619  0.29678072  0.85901731  1  -0.37791  -0.076374  3.349622  -0.094  -0.338688  -0.053006  3.656253  -0.07  -0.369981  -0.044558  3.675464  -0.062  -0.353865  -0.321264  -0.055994  3.644944  -0.071
N  N60  1  0.64378868  0.85901456  0.29678325  1  -0.377905  0.076386  3.349577  0.094  -0.338691  0.053009  3.656211  0.07  -0.369971  0.044554  3.675408  0.062  -0.353828  -0.321268  0.055996  3.644902  0.071
N  N61  1  0.85621235  0.70321614  0.14098527  1  -0.377857  0.076369  3.349589  0.094  -0.338641  0.05301  3.656218  0.07  -0.369928  0.044554  3.675413  0.062  -0.3538  -0.321215  0.055998  3.644899  0.071
N  N62  1  0.20882643  0.07069602  0.53595885  1  -0.369048  -7.5e-05  3.403543  0.0  -0.310802  -0.000499  3.64213  -0.001  -0.330006  -0.000274  3.656017  -0.001  -0.392779  -0.297569  -0.000678  3.632296  -0.001
N  N63  1  0.29117170  0.46404251  0.92930458  1  -0.369  -6.7e-05  3.403523  0.0  -0.310738  -0.0005  3.642101  -0.001  -0.329944  -0.000273  3.655986  -0.001  -0.392757  -0.29754  -0.000677  3.632304  -0.001
N  N64  1  0.79117415  0.92930628  0.46404079  1  -0.368978  6.6e-05  3.403496  0.0  -0.310733  0.000498  3.642099  0.001  -0.329935  0.000275  3.655991  0.001  -0.392766  -0.297512  0.000677  3.632277  0.001
N  N65  1  0.70882661  0.53595869  0.07069452  1  -0.369041  7.1e-05  3.403505  0.0  -0.310812  0.000499  3.642106  0.001  -0.330018  0.000274  3.655992  0.001  -0.392767  -0.297573  0.000677  3.632272  0.001
O  O66  1  0.35530576  0.39834640  0.46026198  1  -0.531829  -0.083672  2.107678  -0.108  -0.511501  -0.052995  2.375902  -0.076  -0.552331  -0.040473  2.374216  -0.061  -0.308479  -0.483278  -0.059868  2.376281  -0.082
O  O67  1  0.14469572  0.53973581  0.60165496  1  -0.531851  -0.083669  2.107621  -0.108  -0.511508  -0.052994  2.375875  -0.076  -0.552336  -0.040472  2.374184  -0.061  -0.308487  -0.483292  -0.059869  2.376258  -0.082
O  O68  1  0.64469944  0.60165699  0.53973704  1  -0.531874  0.083664  2.107622  0.108  -0.511513  0.052993  2.375936  0.076  -0.552342  0.04047  2.374236  0.061  -0.308462  -0.483295  0.059866  2.376322  0.082
O  O69  1  0.85529921  0.46026322  0.39834404  1  -0.53183  0.083668  2.107677  0.108  -0.511494  0.052994  2.375995  0.076  -0.552324  0.04047  2.374298  0.061  -0.308432  -0.48327  0.059869  2.376366  0.082
O  O70  1  0.52792559  0.54477413  0.30937674  1  -0.59447  -0.012614  2.06332  -0.015  -0.561991  -0.006964  2.309843  -0.009  -0.588514  -0.00418  2.298591  -0.005  -0.314397  -0.541437  -0.010825  2.315792  -0.014
O  O71  1  0.97207707  0.69062355  0.45522567  1  -0.594456  -0.012611  2.063201  -0.015  -0.56196  -0.006964  2.309748  -0.009  -0.588485  -0.004179  2.298493  -0.005  -0.314376  -0.541407  -0.010825  2.315686  -0.014
O  O72  1  0.47207483  0.45523142  0.69062080  1  -0.594452  0.012615  2.06321  0.015  -0.561934  0.006967  2.309792  0.009  -0.588462  0.004179  2.298547  0.005  -0.314385  -0.541379  0.010823  2.31574  0.014
O  O73  1  0.02792580  0.30937982  0.54476939  1  -0.594506  0.012612  2.063198  0.015  -0.561996  0.006968  2.309757  0.009  -0.588525  0.004178  2.298513  0.005  -0.314429  -0.541449  0.010824  2.31571  0.014
