# generated using pymatgen
data_SrH18C16N2O11
_symmetry_space_group_name_H-M   'P 1'
_cell_length_a   7.85301621
_cell_length_b   11.00061532
_cell_length_c   14.93880907
_cell_angle_alpha   112.51352528
_cell_angle_beta   94.68927659
_cell_angle_gamma   93.40732202
_symmetry_Int_Tables_number   1
_chemical_formula_structural   SrH18C16N2O11
_chemical_formula_sum   'Sr2 H36 C32 N4 O22'
_cell_volume   1182.40646948
_cell_formula_units_Z   2
loop_
 _symmetry_equiv_pos_site_id
 _symmetry_equiv_pos_as_xyz
  1  'x, y, z'
loop_
 _atom_site_type_symbol
 _atom_site_label
 _atom_site_symmetry_multiplicity
 _atom_site_fract_x
 _atom_site_fract_y
 _atom_site_fract_z
 _atom_site_occupancy
 _atom_site_hle17_bader_spin_density
 _atom_site_hle17_ddec_charge
 _atom_site_hle17_ddec_spin_density
 _atom_site_hle17_ddec_sum_bond_order
 _atom_site_hle17_magmom
 _atom_site_hse06_10hf_bader_spin_density
 _atom_site_hse06_10hf_ddec_charge
 _atom_site_hse06_10hf_ddec_spin_density
 _atom_site_hse06_10hf_ddec_sum_bond_order
 _atom_site_hse06_10hf_magmom
 _atom_site_hse06_bader_spin_density
 _atom_site_hse06_ddec_charge
 _atom_site_hse06_ddec_spin_density
 _atom_site_hse06_ddec_sum_bond_order
 _atom_site_hse06_magmom
 _atom_site_pbe_bader_spin_density
 _atom_site_pbe_cm5_charge
 _atom_site_pbe_ddec_charge
 _atom_site_pbe_ddec_spin_density
 _atom_site_pbe_ddec_sum_bond_order
 _atom_site_pbe_magmom
Sr  Sr0  1  0.76305898  0.57769642  0.01553626  1  0  1.620336  0  1.080659  0  0  1.481353  0  1.443164  0  0  1.519308  0  1.399078  0  0  0.964193  1.453338  0  1.474433  0
Sr  Sr1  1  0.23706905  0.42242579  0.98450389  1  0  1.620369  0  1.080065  0  0  1.481564  0  1.442179  0  0  1.519512  0  1.398104  0  0  0.964049  1.453553  0  1.473446  0
H  H2  1  0.00490622  0.29151032  0.18578936  1  0  0.116592  0  0.912311  0  0  0.13144  0  0.96707  0  0  0.133894  0  0.965465  0  0  0.10935  0.129785  0  0.968223  0
H  H3  1  0.49046166  0.11877125  0.81026567  1  0  0.129514  0  0.902586  0  0  0.146716  0  0.952901  0  0  0.149264  0  0.951305  0  0  0.117428  0.144992  0  0.954026  0
H  H4  1  0.99433478  0.70817373  0.81409178  1  0  0.116131  0  0.913119  0  0  0.131097  0  0.967804  0  0  0.133545  0  0.966203  0  0  0.109182  0.129408  0  0.968981  0
H  H5  1  0.50996197  0.88130865  0.18979190  1  0  0.12945  0  0.90285  0  0  0.146676  0  0.95305  0  0  0.149226  0  0.951456  0  0  0.117422  0.144977  0  0.954171  0
H  H6  1  0.13047834  0.44497929  0.22157261  1  0  0.133192  0  0.92881  0  0  0.144158  0  0.993525  0  0  0.147066  0  0.9917  0  0  0.116262  0.142148  0  0.994835  0
H  H7  1  0.37540089  0.22110212  0.76585558  1  0  0.121667  0  0.931301  0  0  0.135662  0  0.993002  0  0  0.137995  0  0.991718  0  0  0.116214  0.134078  0  0.993901  0
H  H8  1  0.86924533  0.55453361  0.77839540  1  0  0.132889  0  0.928608  0  0  0.143966  0  0.993414  0  0  0.146885  0  0.991594  0  0  0.116185  0.141939  0  0.994705  0
H  H9  1  0.62488388  0.77881966  0.23411051  1  0  0.122076  0  0.931149  0  0  0.136026  0  0.992735  0  0  0.138407  0  0.991402  0  0  0.116511  0.134432  0  0.993674  0
H  H10  1  0.79285059  0.25885825  0.28816884  1  0  0.11423  0  0.924258  0  0  0.126891  0  0.975594  0  0  0.130218  0  0.974219  0  0  0.111898  0.124474  0  0.976839  0
H  H11  1  0.70187336  0.98590563  0.71384831  1  0  0.113507  0  0.922467  0  0  0.125767  0  0.974155  0  0  0.12927  0  0.972554  0  0  0.1118  0.123189  0  0.975638  0
H  H12  1  0.20641803  0.74108584  0.71178667  1  0  0.113978  0  0.924204  0  0  0.126902  0  0.975282  0  0  0.130301  0  0.973816  0  0  0.111711  0.124432  0  0.976603  0
H  H13  1  0.29860847  0.01419186  0.28623018  1  0  0.113226  0  0.92269  0  0  0.125594  0  0.974308  0  0  0.129026  0  0.972786  0  0  0.111875  0.123064  0  0.975752  0
H  H14  1  0.66210081  0.34618438  0.44359399  1  0  0.103166  0  0.977088  0  0  0.108771  0  1.04523  0  0  0.112034  0  1.042094  0  0  0.10781  0.106222  0  1.047897  0
H  H15  1  0.83142513  0.90393034  0.55863463  1  0  0.103547  0  0.977269  0  0  0.107464  0  1.049585  0  0  0.110759  0  1.046392  0  0  0.106906  0.104921  0  1.052292  0
H  H16  1  0.33721531  0.65388309  0.55636743  1  0  0.103352  0  0.976815  0  0  0.109009  0  1.044964  0  0  0.112335  0  1.041744  0  0  0.107884  0.106471  0  1.047619  0
H  H17  1  0.16894479  0.09610942  0.44140292  1  0  0.103247  0  0.977632  0  0  0.107254  0  1.049941  0  0  0.110546  0  1.046747  0  0  0.106823  0.104713  0  1.052646  0
H  H18  1  0.91820732  0.73204307  0.51112092  1  0  0.106821  0  0.971579  0  0  0.111941  0  1.040125  0  0  0.115115  0  1.037343  0  0  0.108002  0.109574  0  1.04237  0
H  H19  1  0.61392846  0.20269274  0.47887677  1  0  0.105624  0  0.97334  0  0  0.112971  0  1.037452  0  0  0.115969  0  1.03502  0  0  0.108935  0.110603  0  1.039722  0
H  H20  1  0.08170267  0.26780028  0.48882099  1  0  0.10696  0  0.970724  0  0  0.112145  0  1.03928  0  0  0.115349  0  1.036423  0  0  0.108136  0.10977  0  1.041532  0
H  H21  1  0.38644206  0.79733762  0.52112879  1  0  0.105981  0  0.973361  0  0  0.113179  0  1.037612  0  0  0.116174  0  1.035178  0  0  0.109089  0.110812  0  1.039887  0
H  H22  1  0.04349588  0.64759306  0.35346948  1  0  0.112564  0  0.927002  0  0  0.125121  0  0.981645  0  0  0.128066  0  0.981312  0  0  0.110162  0.122964  0  0.98212  0
H  H23  1  0.48453246  0.28753448  0.63559890  1  0  0.114963  0  0.920984  0  0  0.127603  0  0.974229  0  0  0.130888  0  0.973297  0  0  0.111533  0.125214  0  0.97517  0
H  H24  1  0.95647490  0.35214216  0.64649704  1  0  0.11269  0  0.927568  0  0  0.125156  0  0.98232  0  0  0.128125  0  0.981952  0  0  0.110209  0.123004  0  0.982794  0
H  H25  1  0.51591212  0.71251779  0.36444193  1  0  0.11433  0  0.921142  0  0  0.127306  0  0.973999  0  0  0.130593  0  0.973073  0  0  0.111307  0.124923  0  0.974939  0
H  H26  1  0.79416402  0.84399801  0.97120281  1  0  0.414168  0  0.842301  0  0  0.401572  0  0.88458  0  0  0.408712  0  0.874427  0  0  0.323898  0.396498  0  0.891845  0
H  H27  1  0.64206998  0.73633951  0.90730521  1  0  0.432868  0  0.867403  0  0  0.402402  0  0.929031  0  0  0.413427  0  0.912689  0  0  0.290171  0.394612  0  0.940581  0
H  H28  1  0.20580819  0.15607751  0.02877551  1  0  0.414391  0  0.841936  0  0  0.401755  0  0.884291  0  0  0.408898  0  0.874134  0  0  0.323882  0.396681  0  0.891562  0
H  H29  1  0.35786543  0.26374055  0.09272605  1  0  0.433113  0  0.867063  0  0  0.402701  0  0.928597  0  0  0.413724  0  0.912258  0  0  0.290277  0.394913  0  0.940147  0
H  H30  1  0.06744976  0.72603939  0.17417516  1  0  0.427662  0  0.875487  0  0  0.396043  0  0.940577  0  0  0.406984  0  0.924699  0  0  0.291928  0.388346  0  0.951725  0
H  H31  1  0.42795199  0.57378127  0.81244551  1  0  0.431977  0  0.867769  0  0  0.399755  0  0.932887  0  0  0.410454  0  0.917456  0  0  0.29206  0.392233  0  0.943702  0
H  H32  1  0.93265037  0.27404714  0.82586275  1  0  0.427449  0  0.875866  0  0  0.395674  0  0.941213  0  0  0.40662  0  0.925324  0  0  0.291767  0.387971  0  0.952369  0
H  H33  1  0.57194414  0.42631321  0.18758756  1  0  0.432241  0  0.86741  0  0  0.400052  0  0.932496  0  0  0.410744  0  0.917067  0  0  0.292088  0.392524  0  0.943321  0
H  H34  1  0.92899829  0.80701341  0.23670418  1  0  0.412507  0  0.872107  0  0  0.380862  0  0.940659  0  0  0.39044  0  0.926166  0  0  0.296582  0.374116  0  0.950881  0
H  H35  1  0.55848006  0.58789929  0.73947472  1  0  0.404924  0  0.893091  0  0  0.369442  0  0.964713  0  0  0.37924  0  0.949951  0  0  0.28732  0.362631  0  0.974982  0
H  H36  1  0.07109948  0.19306749  0.76334947  1  0  0.412179  0  0.872004  0  0  0.380655  0  0.940856  0  0  0.390235  0  0.926351  0  0  0.296394  0.373909  0  0.951079  0
H  H37  1  0.44134676  0.41228114  0.26056198  1  0  0.404708  0  0.893421  0  0  0.369221  0  0.965062  0  0  0.379011  0  0.950314  0  0  0.287032  0.3624  0  0.975346  0
C  C38  1  0.89472369  0.43224464  0.13638028  1  0  0.7273  0  3.857818  0  0  0.6842  0  4.151406  0  0  0.716908  0  4.144333  0  0  0.220237  0.66202  0  4.155253  0
C  C39  1  0.60556419  0.31715158  0.85680467  1  0  0.730389  0  3.860682  0  0  0.686839  0  4.155334  0  0  0.719601  0  4.148219  0  0  0.223952  0.664615  0  4.159153  0
C  C40  1  0.10515300  0.56775358  0.86360993  1  0  0.726542  0  3.85888  0  0  0.683505  0  4.15244  0  0  0.716208  0  4.145363  0  0  0.219747  0.661299  0  4.156294  0
C  C41  1  0.39461070  0.68297505  0.14318434  1  0  0.730914  0  3.860642  0  0  0.687771  0  4.154561  0  0  0.72053  0  4.147447  0  0  0.224161  0.665575  0  4.158386  0
C  C42  1  0.99899254  0.39919839  0.21433517  1  0  -0.329899  0  3.689346  0  0  -0.373024  0  3.937932  0  0  -0.378682  0  3.943858  0  0  -0.155301  -0.369073  0  3.933667  0
C  C43  1  0.50476920  0.19343033  0.77846160  1  0  -0.327953  0  3.699184  0  0  -0.373384  0  3.947767  0  0  -0.378897  0  3.953826  0  0  -0.152834  -0.369468  0  3.943196  0
C  C44  1  0.00062022  0.60055420  0.78562491  1  0  -0.328695  0  3.689093  0  0  -0.37223  0  3.937397  0  0  -0.377893  0  3.943341  0  0  -0.154908  -0.368182  0  3.933021  0
C  C45  1  0.49558288  0.80661583  0.22155765  1  0  -0.32873  0  3.698383  0  0  -0.373822  0  3.946905  0  0  -0.379398  0  3.952956  0  0  -0.153058  -0.369954  0  3.942445  0
C  C46  1  0.92617346  0.44768124  0.30976737  1  0  0.17  0  3.712868  0  0  0.17645  0  3.962902  0  0  0.180742  0  3.985454  0  0  0.009804  0.173549  0  3.94765  0
C  C47  1  0.58457922  0.14259363  0.68546009  1  0  0.16558  0  3.72484  0  0  0.173133  0  3.974569  0  0  0.177258  0  3.997432  0  0  0.008112  0.170366  0  3.958889  0
C  C48  1  0.07340314  0.55210718  0.69018042  1  0  0.169184  0  3.713406  0  0  0.176306  0  3.962706  0  0  0.1806  0  3.985229  0  0  0.00973  0.17339  0  3.947446  0
C  C49  1  0.41582264  0.85747778  0.31457219  1  0  0.165865  0  3.724255  0  0  0.172333  0  3.975319  0  0  0.176495  0  3.998123  0  0  0.007703  0.169537  0  3.95974  0
C  C50  1  0.81894986  0.36307325  0.33602625  1  0  -0.113237  0  3.693737  0  0  -0.133548  0  3.948801  0  0  -0.139219  0  3.969661  0  0  -0.081637  -0.129826  0  3.934541  0
C  C51  1  0.68376407  0.03503434  0.66322333  1  0  -0.112113  0  3.690326  0  0  -0.131548  0  3.943189  0  0  -0.137164  0  3.963957  0  0  -0.081195  -0.127822  0  3.929122  0
C  C52  1  0.18043418  0.63683107  0.66390181  1  0  -0.113126  0  3.693388  0  0  -0.133967  0  3.948408  0  0  -0.139717  0  3.9693  0  0  -0.081786  -0.130188  0  3.93414  0
C  C53  1  0.31665724  0.96503744  0.33682048  1  0  -0.111554  0  3.690794  0  0  -0.130863  0  3.943924  0  0  -0.136422  0  3.964678  0  0  -0.081182  -0.12717  0  3.929863  0
C  C54  1  0.74584566  0.41051217  0.42287406  1  0  -0.07624  0  3.749187  0  0  -0.107478  0  4.016665  0  0  -0.10525  0  4.035651  0  0  -0.078516  -0.108459  0  4.003607  0
C  C55  1  0.75736888  0.98852767  0.57644629  1  0  -0.073312  0  3.746407  0  0  -0.105213  0  4.013172  0  0  -0.102996  0  4.03216  0  0  -0.078904  -0.106084  0  4.000079  0
C  C56  1  0.25360705  0.58950120  0.57707228  1  0  -0.076282  0  3.748739  0  0  -0.107575  0  4.016514  0  0  -0.105402  0  4.035485  0  0  -0.078456  -0.108559  0  4.003475  0
C  C57  1  0.24301841  0.01150833  0.42359213  1  0  -0.072553  0  3.747732  0  0  -0.104434  0  4.014241  0  0  -0.102193  0  4.033216  0  0  -0.078592  -0.105311  0  4.001159  0
C  C58  1  0.78134007  0.54374262  0.48462645  1  0  0.048012  0  3.735969  0  0  0.039871  0  3.994095  0  0  0.033971  0  4.019551  0  0  0.070972  0.043652  0  3.976731  0
C  C59  1  0.73231104  0.05115481  0.51155547  1  0  0.045598  0  3.739026  0  0  0.038617  0  3.995727  0  0  0.032839  0  4.021271  0  0  0.070198  0.042183  0  3.978268  0
C  C60  1  0.21832565  0.45625250  0.51534872  1  0  0.048154  0  3.735992  0  0  0.039861  0  3.994261  0  0  0.033952  0  4.019747  0  0  0.071091  0.043638  0  3.976886  0
C  C61  1  0.26804218  0.94885884  0.48845841  1  0  0.044523  0  3.740677  0  0  0.037506  0  3.997271  0  0  0.031692  0  4.022866  0  0  0.069899  0.041071  0  3.979815  0
C  C62  1  0.88869257  0.62991137  0.46059182  1  0  -0.081319  0  3.737011  0  0  -0.10714  0  3.995614  0  0  -0.105595  0  4.015491  0  0  -0.076699  -0.107727  0  3.981916  0
C  C63  1  0.63543808  0.15918676  0.53234821  1  0  -0.084862  0  3.745911  0  0  -0.110484  0  4.004884  0  0  -0.109249  0  4.025411  0  0  -0.076933  -0.110819  0  3.990971  0
C  C64  1  0.11113133  0.36997508  0.53938452  1  0  -0.081649  0  3.735754  0  0  -0.107495  0  3.994425  0  0  -0.105934  0  4.014297  0  0  -0.076917  -0.108087  0  3.980743  0
C  C65  1  0.36494689  0.84085498  0.46768290  1  0  -0.084905  0  3.746661  0  0  -0.110463  0  4.005512  0  0  -0.109206  0  4.026027  0  0  -0.07726  -0.110795  0  3.991605  0
C  C66  1  0.95957161  0.58137976  0.37308623  1  0  -0.098118  0  3.671776  0  0  -0.120507  0  3.927875  0  0  -0.125685  0  3.94831  0  0  -0.080873  -0.117175  0  3.914092  0
C  C67  1  0.56257437  0.20451882  0.61926791  1  0  -0.102854  0  3.681645  0  0  -0.125967  0  3.93988  0  0  -0.131019  0  3.959915  0  0  -0.082101  -0.122639  0  3.926324  0
C  C68  1  0.04021681  0.41840805  0.62688838  1  0  -0.0976  0  3.672554  0  0  -0.120091  0  3.928281  0  0  -0.125288  0  3.948735  0  0  -0.080781  -0.11678  0  3.914523  0
C  C69  1  0.43783852  0.79554192  0.38076762  1  0  -0.102467  0  3.680906  0  0  -0.125383  0  3.939101  0  0  -0.130452  0  3.959132  0  0  -0.081758  -0.122042  0  3.925561  0
N  N70  1  0.70773379  0.59326605  0.57646726  1  0  0.501582  0  3.898821  0  0  0.527477  0  4.199234  0  0  0.549265  0  4.207827  0  0  0.051887  0.512918  0  4.193246  0
N  N71  1  0.80329462  0.00126081  0.41873572  1  0  0.499857  0  3.905748  0  0  0.526242  0  4.207162  0  0  0.547786  0  4.215876  0  0  0.050918  0.51185  0  4.201176  0
N  N72  1  0.29196798  0.40676496  0.42351884  1  0  0.501617  0  3.898345  0  0  0.527799  0  4.198554  0  0  0.549579  0  4.207161  0  0  0.051996  0.513246  0  4.192553  0
N  N73  1  0.19700736  0.99871017  0.58128110  1  0  0.499668  0  3.905599  0  0  0.526016  0  4.207041  0  0  0.547593  0  4.215722  0  0  0.050982  0.511617  0  4.201065  0
O  O74  1  0.95924685  0.41124727  0.05707919  1  0  -0.751875  0  1.98127  0  0  -0.691907  0  2.226743  0  0  -0.720092  0  2.217177  0  0  -0.40409  -0.671574  0  2.232471  0
O  O75  1  0.53139434  0.37586225  0.93194665  1  0  -0.74262  0  1.996724  0  0  -0.679787  0  2.241027  0  0  -0.708199  0  2.232008  0  0  -0.412079  -0.659289  0  2.246223  0
O  O76  1  0.04080348  0.58889705  0.94297220  1  0  -0.751527  0  1.981572  0  0  -0.691645  0  2.227139  0  0  -0.719844  0  2.217595  0  0  -0.404262  -0.671309  0  2.232881  0
O  O77  1  0.46870348  0.62425036  0.06800967  1  0  -0.742968  0  1.996608  0  0  -0.680203  0  2.240682  0  0  -0.708621  0  2.231658  0  0  -0.412236  -0.659697  0  2.245874  0
O  O78  1  0.75353535  0.48228796  0.15408143  1  0  -0.691162  0  1.97263  0  0  -0.629535  0  2.194688  0  0  -0.655743  0  2.185833  0  0  -0.343463  -0.611071  0  2.200176  0
O  O79  1  0.75342842  0.35742267  0.84500092  1  0  -0.690056  0  1.970071  0  0  -0.630637  0  2.195343  0  0  -0.656874  0  2.186821  0  0  -0.331968  -0.612121  0  2.200597  0
O  O80  1  0.24632849  0.51770922  0.84585597  1  0  -0.690796  0  1.972933  0  0  -0.629174  0  2.194888  0  0  -0.655374  0  2.186041  0  0  -0.342927  -0.610709  0  2.200381  0
O  O81  1  0.24672793  0.64276274  0.15498594  1  0  -0.689902  0  1.970406  0  0  -0.630972  0  2.195683  0  0  -0.657177  0  2.187097  0  0  -0.331868  -0.612471  0  2.200972  0
O  O82  1  0.62869874  0.51159857  0.60194471  1  0  -0.396477  0  1.778815  0  0  -0.364346  0  1.989976  0  0  -0.378549  0  1.987275  0  0  -0.130303  -0.355263  0  1.992475  0
O  O83  1  0.86332640  0.89164391  0.39291144  1  0  -0.394972  0  1.769529  0  0  -0.366701  0  1.983473  0  0  -0.380284  0  1.980933  0  0  -0.131408  -0.357866  0  1.985506  0
O  O84  1  0.37100651  0.48846757  0.39808131  1  0  -0.396139  0  1.778981  0  0  -0.364303  0  1.990305  0  0  -0.378443  0  1.987576  0  0  -0.13021  -0.355198  0  1.992765  0
O  O85  1  0.13695763  0.10832210  0.60711081  1  0  -0.395021  0  1.769251  0  0  -0.366854  0  1.983497  0  0  -0.380471  0  1.980918  0  0  -0.13151  -0.358008  0  1.985529  0
O  O86  1  0.72592791  0.71421972  0.62645269  1  0  -0.370431  0  1.718397  0  0  -0.346258  0  1.914153  0  0  -0.357402  0  1.910463  0  0  -0.134311  -0.339112  0  1.91724  0
O  O87  1  0.80053597  0.06899320  0.36840926  1  0  -0.372255  0  1.715665  0  0  -0.34917  0  1.912853  0  0  -0.360245  0  1.909066  0  0  -0.13538  -0.342031  0  1.915847  0
O  O88  1  0.27385905  0.28581354  0.37350717  1  0  -0.370867  0  1.717562  0  0  -0.346749  0  1.913256  0  0  -0.357946  0  1.909584  0  0  -0.134671  -0.3396  0  1.916356  0
O  O89  1  0.19973321  0.93094761  0.63158502  1  0  -0.371853  0  1.71594  0  0  -0.34867  0  1.913045  0  0  -0.359753  0  1.909255  0  0  -0.135302  -0.341531  0  1.916043  0
O  O90  1  0.70271153  0.78337932  0.97480520  1  0  -0.868822  0  1.750977  0  0  -0.822164  0  1.896182  0  0  -0.839504  0  1.867693  0  0  -0.621267  -0.809899  0  1.916182  0
O  O91  1  0.29728713  0.21670381  0.02520185  1  0  -0.869296  0  1.750426  0  0  -0.822659  0  1.895597  0  0  -0.84001  0  1.867114  0  0  -0.621352  -0.810397  0  1.915599  0
O  O92  1  0.95111412  0.75655268  0.16979599  1  0  -0.878899  0  1.756879  0  0  -0.825482  0  1.915611  0  0  -0.843818  0  1.885188  0  0  -0.621076  -0.812436  0  1.936861  0
O  O93  1  0.54539883  0.60897915  0.80819603  1  0  -0.850725  0  1.810605  0  0  -0.794371  0  1.964047  0  0  -0.812915  0  1.932859  0  0  -0.577926  -0.781223  0  1.985691  0
O  O94  1  0.04894454  0.24347874  0.83025826  1  0  -0.878316  0  1.756766  0  0  -0.825024  0  1.915709  0  0  -0.84335  0  1.885312  0  0  -0.6207  -0.811984  0  1.936952  0
O  O95  1  0.45448017  0.39112789  0.19183320  1  0  -0.850923  0  1.810516  0  0  -0.794566  0  1.96384  0  0  -0.813101  0  1.932682  0  0  -0.577663  -0.781406  0  1.985508  0
