# generated using pymatgen
data_H2RhC8N(O2F3)2
_symmetry_space_group_name_H-M   'P 1'
_cell_length_a   8.29040890
_cell_length_b   12.85801533
_cell_length_c   12.85800930
_cell_angle_alpha   81.85516738
_cell_angle_beta   71.48908075
_cell_angle_gamma   71.48965788
_symmetry_Int_Tables_number   1
_chemical_formula_structural   H2RhC8N(O2F3)2
_chemical_formula_sum   'H8 Rh4 C32 N4 O16 F24'
_cell_volume   1231.21399312
_cell_formula_units_Z   4
loop_
 _symmetry_equiv_pos_site_id
 _symmetry_equiv_pos_as_xyz
  1  'x, y, z'
loop_
 _atom_site_type_symbol
 _atom_site_label
 _atom_site_symmetry_multiplicity
 _atom_site_fract_x
 _atom_site_fract_y
 _atom_site_fract_z
 _atom_site_occupancy
 _atom_site_hle17_bader_spin_density
 _atom_site_hle17_ddec_charge
 _atom_site_hle17_ddec_spin_density
 _atom_site_hle17_ddec_sum_bond_order
 _atom_site_hle17_magmom
 _atom_site_hse06_10hf_bader_spin_density
 _atom_site_hse06_10hf_ddec_charge
 _atom_site_hse06_10hf_ddec_spin_density
 _atom_site_hse06_10hf_ddec_sum_bond_order
 _atom_site_hse06_10hf_magmom
 _atom_site_hse06_bader_spin_density
 _atom_site_hse06_ddec_charge
 _atom_site_hse06_ddec_spin_density
 _atom_site_hse06_ddec_sum_bond_order
 _atom_site_hse06_magmom
 _atom_site_pbe_bader_spin_density
 _atom_site_pbe_cm5_charge
 _atom_site_pbe_ddec_charge
 _atom_site_pbe_ddec_spin_density
 _atom_site_pbe_ddec_sum_bond_order
 _atom_site_pbe_magmom
H  H0  1  0.75000433  0.15607594  0.84393160  1  0  0.121929  0  0.964639  0  0  0.123535  0  1.036401  0  0  0.128706  0  1.031602  0  0  0.106108  0.119504  0  1.04022  0
H  H1  1  0.25000071  0.84393293  0.15607791  1  0  0.121686  0  0.965158  0  0  0.123518  0  1.036398  0  0  0.128689  0  1.031599  0  0  0.106125  0.119485  0  1.04022  0
H  H2  1  0.70834546  0.83148753  0.96380863  1  0  0.118249  0  0.936755  0  0  0.125409  0  1.000466  0  0  0.129967  0  0.996889  0  0  0.110909  0.121883  0  1.003346  0
H  H3  1  0.79165297  0.03618782  0.16852141  1  0  0.118281  0  0.936723  0  0  0.125487  0  1.000399  0  0  0.130046  0  0.996819  0  0  0.110918  0.121952  0  1.003275  0
H  H4  1  0.29165434  0.16851890  0.03618752  1  0  0.118242  0  0.936714  0  0  0.125433  0  1.000411  0  0  0.129993  0  0.996832  0  0  0.110905  0.121907  0  1.003291  0
H  H5  1  0.20834169  0.96380792  0.83148818  1  0  0.118263  0  0.936751  0  0  0.125422  0  1.000437  0  0  0.12998  0  0.996861  0  0  0.110914  0.12189  0  1.003315  0
H  H6  1  0.75000059  0.85995965  0.14003926  1  0  0.121281  0  0.954422  0  0  0.125258  0  1.021333  0  0  0.130439  0  1.018154  0  0  0.107487  0.121323  0  1.023947  0
H  H7  1  0.25000002  0.14003693  0.85996044  1  0  0.121734  0  0.953554  0  0  0.125256  0  1.02124  0  0  0.130438  0  1.018058  0  0  0.107502  0.121322  0  1.023855  0
Rh  Rh8  1  0.44997280  0.01041064  0.41809380  1  0  0.697582  0  3.085538  0  0  0.628475  0  3.687581  0  0  0.668183  0  3.637452  0  0  0.668539  0.605021  0  3.720702  0
Rh  Rh9  1  0.05002412  0.58190266  0.98959559  1  0  0.69734  0  3.085905  0  0  0.62819  0  3.68772  0  0  0.667892  0  3.637588  0  0  0.668451  0.604701  0  3.720909  0
Rh  Rh10  1  0.55003123  0.98959495  0.58191171  1  0  0.697786  0  3.085403  0  0  0.628297  0  3.687882  0  0  0.667997  0  3.637753  0  0  0.668534  0.604785  0  3.721077  0
Rh  Rh11  1  0.94996228  0.41808899  0.01041317  1  0  0.697749  0  3.085853  0  0  0.628608  0  3.687736  0  0  0.668336  0  3.637548  0  0  0.668622  0.605053  0  3.721038  0
C  C12  1  0.21758740  0.15333857  0.59024088  1  0  0.466754  0  3.876936  0  0  0.416114  0  4.179247  0  0  0.450524  0  4.173877  0  0  0.211729  0.392556  0  4.182819  0
C  C13  1  0.28240911  0.40975743  0.84666751  1  0  0.466972  0  3.87595  0  0  0.416115  0  4.179236  0  0  0.450518  0  4.173873  0  0  0.211694  0.392573  0  4.1828  0
C  C14  1  0.78240506  0.84666457  0.40976502  1  0  0.466298  0  3.877779  0  0  0.416144  0  4.179169  0  0  0.450546  0  4.173801  0  0  0.211695  0.392586  0  4.182744  0
C  C15  1  0.71758072  0.59023504  0.15334042  1  0  0.466236  0  3.878286  0  0  0.416095  0  4.17954  0  0  0.450505  0  4.174173  0  0  0.211662  0.392552  0  4.183102  0
C  C16  1  0.32441108  0.85886946  0.58563135  1  0  0.474168  0  3.870136  0  0  0.42439  0  4.173049  0  0  0.458871  0  4.167228  0  0  0.213058  0.400814  0  4.176992  0
C  C17  1  0.17559279  0.41436649  0.14113543  1  0  0.474196  0  3.870178  0  0  0.424387  0  4.172995  0  0  0.458866  0  4.167177  0  0  0.213098  0.400828  0  4.17693  0
C  C18  1  0.67559600  0.14113777  0.41437564  1  0  0.47412  0  3.870388  0  0  0.424283  0  4.173238  0  0  0.45875  0  4.167438  0  0  0.212902  0.400715  0  4.177182  0
C  C19  1  0.82441083  0.58561285  0.85886684  1  0  0.474196  0  3.870387  0  0  0.424342  0  4.173287  0  0  0.458799  0  4.1675  0  0  0.213052  0.40079  0  4.177222  0
C  C20  1  0.04253126  0.24144959  0.64343748  1  0  0.691043  0  3.680387  0  0  0.622161  0  4.017559  0  0  0.649006  0  3.990537  0  0  0.304564  0.602798  0  4.037132  0
C  C21  1  0.45745992  0.35656736  0.75855491  1  0  0.692414  0  3.678059  0  0  0.621963  0  4.01785  0  0  0.648819  0  3.990803  0  0  0.304561  0.602601  0  4.037424  0
C  C22  1  0.95745737  0.75855356  0.35656454  1  0  0.690043  0  3.682197  0  0  0.621932  0  4.017897  0  0  0.648788  0  3.990847  0  0  0.304491  0.60257  0  4.037473  0
C  C23  1  0.54252728  0.64344153  0.24144582  1  0  0.69007  0  3.682116  0  0  0.622164  0  4.017469  0  0  0.649012  0  3.990429  0  0  0.304595  0.602796  0  4.037045  0
C  C24  1  0.21286080  0.77881086  0.64160518  1  0  0.693081  0  3.68087  0  0  0.623967  0  4.017436  0  0  0.650802  0  3.990418  0  0  0.303891  0.604442  0  4.037343  0
C  C25  1  0.28714849  0.35838582  0.22118654  1  0  0.692841  0  3.681451  0  0  0.624012  0  4.017447  0  0  0.650863  0  3.990397  0  0  0.303947  0.604461  0  4.037411  0
C  C26  1  0.78714611  0.22119395  0.35838352  1  0  0.692882  0  3.681387  0  0  0.624052  0  4.017367  0  0  0.6509  0  3.990331  0  0  0.304062  0.60449  0  4.037349  0
C  C27  1  0.71287528  0.64160748  0.77880808  1  0  0.693328  0  3.680776  0  0  0.624502  0  4.01685  0  0  0.651368  0  3.989788  0  0  0.304026  0.604933  0  4.036827  0
C  C28  1  0.68299013  0.98133650  0.79788975  1  0  0.307132  0  3.674948  0  0  0.282078  0  3.947236  0  0  0.299261  0  3.95753  0  0  0.212105  0.270251  0  3.9417  0
C  C29  1  0.81701243  0.20211432  0.01866417  1  0  0.306975  0  3.675664  0  0  0.282136  0  3.947248  0  0  0.299318  0  3.957543  0  0  0.212221  0.270324  0  3.941723  0
C  C30  1  0.31699738  0.01866091  0.20211330  1  0  0.307008  0  3.675323  0  0  0.282161  0  3.94696  0  0  0.299345  0  3.957256  0  0  0.212247  0.270331  0  3.941431  0
C  C31  1  0.18300344  0.79789045  0.98133980  1  0  0.306788  0  3.675171  0  0  0.281936  0  3.946839  0  0  0.29912  0  3.957137  0  0  0.212132  0.270122  0  3.941308  0
C  C32  1  0.75000123  0.09151748  0.90848106  1  0  -0.103036  0  3.650238  0  0  -0.13618  0  3.892264  0  0  -0.133947  0  3.907427  0  0  -0.061171  -0.137566  0  3.882829  0
C  C33  1  0.24999951  0.90848156  0.09152060  1  0  -0.103096  0  3.650539  0  0  -0.136051  0  3.892134  0  0  -0.133816  0  3.907294  0  0  -0.061167  -0.137438  0  3.882701  0
C  C34  1  0.72241017  0.99284655  0.89460185  1  0  0.02164  0  3.88878  0  0  0.045298  0  4.124944  0  0  0.040135  0  4.144876  0  0  0.006455  0.04818  0  4.112283  0
C  C35  1  0.77758955  0.10539797  0.00715406  1  0  0.021668  0  3.888551  0  0  0.045378  0  4.124613  0  0  0.040213  0  4.144549  0  0  0.006474  0.048249  0  4.111965  0
C  C36  1  0.27758559  0.00715495  0.10539971  1  0  0.021552  0  3.888897  0  0  0.045279  0  4.124998  0  0  0.040113  0  4.144933  0  0  0.006468  0.048162  0  4.112337  0
C  C37  1  0.22241336  0.89460188  0.99284938  1  0  0.02158  0  3.88904  0  0  0.045288  0  4.125155  0  0  0.040125  0  4.145084  0  0  0.00648  0.04816  0  4.112508  0
C  C38  1  0.77467755  0.02262767  0.09150391  1  0  -0.04658  0  3.644592  0  0  -0.076762  0  3.896501  0  0  -0.073216  0  3.912715  0  0  -0.060304  -0.079152  0  3.886118  0
C  C39  1  0.72532109  0.90849767  0.97737224  1  0  -0.046453  0  3.644592  0  0  -0.076587  0  3.896459  0  0  -0.073043  0  3.912673  0  0  -0.060257  -0.078988  0  3.886091  0
C  C40  1  0.22532052  0.97736890  0.90849943  1  0  -0.046442  0  3.64464  0  0  -0.076591  0  3.896457  0  0  -0.073044  0  3.912668  0  0  -0.060266  -0.078988  0  3.886084  0
C  C41  1  0.27467760  0.09150301  0.02262806  1  0  -0.046391  0  3.644557  0  0  -0.076617  0  3.896486  0  0  -0.073067  0  3.912697  0  0  -0.060232  -0.07902  0  3.886121  0
C  C42  1  0.75000078  0.92452964  0.07546778  1  0  -0.060234  0  3.725189  0  0  -0.074331  0  3.986776  0  0  -0.080187  0  4.007314  0  0  -0.077789  -0.070732  0  3.9735  0
C  C43  1  0.24999857  0.07546693  0.92453296  1  0  -0.060086  0  3.724563  0  0  -0.074359  0  3.986729  0  0  -0.080214  0  4.007265  0  0  -0.077836  -0.07076  0  3.973458  0
N  N44  1  0.64093815  0.97589964  0.72102454  1  0  -0.33177  0  2.958126  0  0  -0.301965  0  3.248667  0  0  -0.309092  0  3.246687  0  0  -0.321521  -0.299313  0  3.251464  0
N  N45  1  0.85905979  0.27897776  0.02409183  1  0  -0.332139  0  2.959201  0  0  -0.302096  0  3.249016  0  0  -0.309228  0  3.247029  0  0  -0.321668  -0.299438  0  3.251834  0
N  N46  1  0.35904920  0.02408461  0.27898973  1  0  -0.332153  0  2.958308  0  0  -0.302091  0  3.24823  0  0  -0.309216  0  3.246248  0  0  -0.321706  -0.299449  0  3.251027  0
N  N47  1  0.14095075  0.72101390  0.97590341  1  0  -0.331976  0  2.958064  0  0  -0.301907  0  3.247921  0  0  -0.309032  0  3.245944  0  0  -0.321611  -0.299262  0  3.250718  0
O  O48  1  0.23261712  0.13183822  0.49393997  1  0  -0.42478  0  2.209184  0  0  -0.392445  0  2.473672  0  0  -0.421982  0  2.468583  0  0  -0.273172  -0.372635  0  2.47669  0
O  O49  1  0.26738299  0.50605917  0.86816420  1  0  -0.424976  0  2.209517  0  0  -0.392378  0  2.473602  0  0  -0.421914  0  2.468517  0  0  -0.273133  -0.37255  0  2.47662  0
O  O50  1  0.76736575  0.86816904  0.50605877  1  0  -0.425069  0  2.210097  0  0  -0.392414  0  2.474093  0  0  -0.421944  0  2.469001  0  0  -0.27316  -0.372601  0  2.477121  0
O  O51  1  0.73262842  0.49394151  0.13183426  1  0  -0.425054  0  2.210229  0  0  -0.392429  0  2.474204  0  0  -0.421964  0  2.469107  0  0  -0.273133  -0.372597  0  2.477235  0
O  O52  1  0.67762309  0.88814264  0.35129186  1  0  -0.450468  0  2.218238  0  0  -0.413596  0  2.487278  0  0  -0.444532  0  2.483691  0  0  -0.276876  -0.392459  0  2.488992  0
O  O53  1  0.82236856  0.64870760  0.11186582  1  0  -0.45034  0  2.218559  0  0  -0.413514  0  2.487562  0  0  -0.444452  0  2.483978  0  0  -0.276737  -0.392355  0  2.489265  0
O  O54  1  0.32237936  0.11186626  0.64870107  1  0  -0.449609  0  2.21766  0  0  -0.413551  0  2.48778  0  0  -0.444484  0  2.484188  0  0  -0.276828  -0.392411  0  2.489499  0
O  O55  1  0.17761817  0.35129963  0.88814690  1  0  -0.449582  0  2.217515  0  0  -0.413624  0  2.48774  0  0  -0.44456  0  2.484149  0  0  -0.276841  -0.392462  0  2.48946  0
O  O56  1  0.31731372  0.89672368  0.49026016  1  0  -0.429036  0  2.193689  0  0  -0.395108  0  2.453408  0  0  -0.424012  0  2.447357  0  0  -0.275144  -0.375702  0  2.457115  0
O  O57  1  0.18269174  0.50974085  0.10328468  1  0  -0.428977  0  2.193591  0  0  -0.395081  0  2.453288  0  0  -0.423986  0  2.447242  0  0  -0.275113  -0.375659  0  2.456988  0
O  O58  1  0.68267272  0.10328685  0.50974361  1  0  -0.428619  0  2.193584  0  0  -0.394983  0  2.453906  0  0  -0.42388  0  2.447864  0  0  -0.275006  -0.375573  0  2.457611  0
O  O59  1  0.81732763  0.49024832  0.89672076  1  0  -0.428939  0  2.194306  0  0  -0.395026  0  2.454065  0  0  -0.423925  0  2.448025  0  0  -0.27505  -0.3756  0  2.457778  0
O  O60  1  0.59183678  0.12160141  0.35551263  1  0  -0.459687  0  2.210998  0  0  -0.427853  0  2.482659  0  0  -0.458624  0  2.477775  0  0  -0.28357  -0.406912  0  2.4853  0
O  O61  1  0.90817041  0.64448113  0.87839709  1  0  -0.459753  0  2.210779  0  0  -0.427945  0  2.482475  0  0  -0.458714  0  2.477596  0  0  -0.283651  -0.406985  0  2.485112  0
O  O62  1  0.40817166  0.87840830  0.64448440  1  0  -0.459673  0  2.211215  0  0  -0.4278  0  2.482831  0  0  -0.458572  0  2.477942  0  0  -0.283602  -0.406856  0  2.485482  0
O  O63  1  0.09182366  0.35552121  0.12159615  1  0  -0.459648  0  2.211264  0  0  -0.427811  0  2.482887  0  0  -0.458588  0  2.477998  0  0  -0.28361  -0.406848  0  2.485536  0
F  F64  1  0.03093664  0.26105618  0.74677286  1  0  -0.224511  0  1.18166  0  0  -0.192802  0  1.352429  0  0  -0.203544  0  1.337492  0  0  -0.091777  -0.1848  0  1.362705  0
F  F65  1  0.46905313  0.25323302  0.73894690  1  0  -0.234512  0  1.192022  0  0  -0.192702  0  1.352532  0  0  -0.203446  0  1.33759  0  0  -0.091754  -0.184705  0  1.362806  0
F  F66  1  0.96906000  0.73894615  0.25322374  1  0  -0.225175  0  1.18219  0  0  -0.192787  0  1.352348  0  0  -0.203531  0  1.337405  0  0  -0.091811  -0.18479  0  1.362625  0
F  F67  1  0.53093076  0.74677751  0.26105816  1  0  -0.225156  0  1.182155  0  0  -0.192824  0  1.352243  0  0  -0.203565  0  1.337302  0  0  -0.091821  -0.184825  0  1.362518  0
F  F68  1  0.90207345  0.20523457  0.64918701  1  0  -0.235839  0  1.162246  0  0  -0.205332  0  1.329196  0  0  -0.215359  0  1.312438  0  0  -0.098327  -0.197881  0  1.340789  0
F  F69  1  0.59792223  0.35081560  0.79476538  1  0  -0.235431  0  1.161806  0  0  -0.205288  0  1.329191  0  0  -0.215318  0  1.312427  0  0  -0.098338  -0.197834  0  1.340784  0
F  F70  1  0.09791330  0.79476446  0.35082064  1  0  -0.236531  0  1.163152  0  0  -0.205242  0  1.329382  0  0  -0.215272  0  1.312617  0  0  -0.098284  -0.197794  0  1.340974  0
F  F71  1  0.40208010  0.64919084  0.20522636  1  0  -0.236505  0  1.163099  0  0  -0.205273  0  1.329265  0  0  -0.215303  0  1.312504  0  0  -0.098257  -0.197814  0  1.340856  0
F  F72  1  0.02807354  0.33746953  0.58328495  1  0  -0.221868  0  1.129486  0  0  -0.18871  0  1.274592  0  0  -0.197151  0  1.258232  0  0  -0.095756  -0.182667  0  1.286233  0
F  F73  1  0.47191111  0.41671814  0.66253578  1  0  -0.217342  0  1.125574  0  0  -0.188672  0  1.274671  0  0  -0.197114  0  1.258305  0  0  -0.095737  -0.182625  0  1.286306  0
F  F74  1  0.97191150  0.66253855  0.41671400  1  0  -0.218443  0  1.126729  0  0  -0.188605  0  1.27479  0  0  -0.197048  0  1.258423  0  0  -0.095658  -0.182558  0  1.286429  0
F  F75  1  0.52805355  0.58328995  0.33746192  1  0  -0.218519  0  1.126667  0  0  -0.188732  0  1.274625  0  0  -0.197173  0  1.25826  0  0  -0.095791  -0.182686  0  1.286263  0
F  F76  1  0.12792603  0.75931058  0.57648465  1  0  -0.214351  0  1.197382  0  0  -0.186264  0  1.365505  0  0  -0.195222  0  1.348122  0  0  -0.091804  -0.179676  0  1.377666  0
F  F77  1  0.37208649  0.42349978  0.24069435  1  0  -0.214282  0  1.197367  0  0  -0.186273  0  1.365387  0  0  -0.195236  0  1.347998  0  0  -0.091841  -0.179672  0  1.377557  0
F  F78  1  0.87207756  0.24069587  0.42350372  1  0  -0.214123  0  1.197173  0  0  -0.186276  0  1.365411  0  0  -0.195237  0  1.348024  0  0  -0.091866  -0.179676  0  1.377587  0
F  F79  1  0.62793525  0.57649515  0.75930279  1  0  -0.214438  0  1.197201  0  0  -0.186467  0  1.365335  0  0  -0.195432  0  1.347939  0  0  -0.091915  -0.17986  0  1.377509  0
F  F80  1  0.08821648  0.82419893  0.73492417  1  0  -0.248698  0  1.145195  0  0  -0.21377  0  1.310159  0  0  -0.22534  0  1.295598  0  0  -0.103416  -0.205014  0  1.320243  0
F  F81  1  0.41179282  0.26507251  0.17578315  1  0  -0.248665  0  1.145478  0  0  -0.213813  0  1.310324  0  0  -0.225385  0  1.295755  0  0  -0.103406  -0.205054  0  1.320424  0
F  F82  1  0.91180326  0.17578944  0.26507431  1  0  -0.248666  0  1.145469  0  0  -0.213813  0  1.310316  0  0  -0.225385  0  1.295749  0  0  -0.103417  -0.205051  0  1.320417  0
F  F83  1  0.58821604  0.73491999  0.82420376  1  0  -0.248755  0  1.145105  0  0  -0.213895  0  1.309954  0  0  -0.22547  0  1.29538  0  0  -0.10345  -0.205129  0  1.320053  0
F  F84  1  0.31713457  0.68187931  0.67106120  1  0  -0.221766  0  1.157682  0  0  -0.192566  0  1.319461  0  0  -0.201322  0  1.302278  0  0  -0.09697  -0.186134  0  1.331575  0
F  F85  1  0.18288549  0.32891166  0.31811325  1  0  -0.221432  0  1.157618  0  0  -0.192554  0  1.319506  0  0  -0.201314  0  1.302317  0  0  -0.097009  -0.186118  0  1.331633  0
F  F86  1  0.68288631  0.31812551  0.32891607  1  0  -0.221699  0  1.157809  0  0  -0.192578  0  1.319484  0  0  -0.201335  0  1.302296  0  0  -0.097066  -0.186135  0  1.331614  0
F  F87  1  0.81714343  0.67106523  0.68187406  1  0  -0.221836  0  1.157713  0  0  -0.192736  0  1.319451  0  0  -0.201497  0  1.302255  0  0  -0.097005  -0.186297  0  1.331581  0
