# generated using pymatgen
data_Cd3P2H20(C9O5)2
_symmetry_space_group_name_H-M   'P 1'
_cell_length_a   5.82124634
_cell_length_b   6.94055675
_cell_length_c   27.90479244
_cell_angle_alpha   89.99973922
_cell_angle_beta   92.31322128
_cell_angle_gamma   89.99952276
_symmetry_Int_Tables_number   1
_chemical_formula_structural   Cd3P2H20(C9O5)2
_chemical_formula_sum   'Cd6 P4 H40 C36 O20'
_cell_volume   1126.50996127
_cell_formula_units_Z   2
loop_
 _symmetry_equiv_pos_site_id
 _symmetry_equiv_pos_as_xyz
  1  'x, y, z'
loop_
 _atom_site_type_symbol
 _atom_site_label
 _atom_site_symmetry_multiplicity
 _atom_site_fract_x
 _atom_site_fract_y
 _atom_site_fract_z
 _atom_site_occupancy
 _atom_site_hle17_bader_spin_density
 _atom_site_hle17_ddec_charge
 _atom_site_hle17_ddec_spin_density
 _atom_site_hle17_ddec_sum_bond_order
 _atom_site_hle17_magmom
 _atom_site_hse06_10hf_bader_spin_density
 _atom_site_hse06_10hf_ddec_charge
 _atom_site_hse06_10hf_ddec_spin_density
 _atom_site_hse06_10hf_ddec_sum_bond_order
 _atom_site_hse06_10hf_magmom
 _atom_site_hse06_bader_spin_density
 _atom_site_hse06_ddec_charge
 _atom_site_hse06_ddec_spin_density
 _atom_site_hse06_ddec_sum_bond_order
 _atom_site_hse06_magmom
 _atom_site_pbe_bader_spin_density
 _atom_site_pbe_cm5_charge
 _atom_site_pbe_ddec_charge
 _atom_site_pbe_ddec_spin_density
 _atom_site_pbe_ddec_sum_bond_order
 _atom_site_pbe_magmom
Cd  Cd0  1  0.50626109  0.21161700  0.95907310  1  0  1.332196  0  1.626913  0  0  1.173574  0  2.074249  0  0  1.226628  0  2.013926  0  0  0.770004  1.13488  0  2.116405  0
Cd  Cd1  1  0.99374633  0.71163809  0.54093191  1  0  1.332265  0  1.626776  0  0  1.173633  0  2.074108  0  0  1.226689  0  2.013781  0  0  0.770022  1.134939  0  2.116268  0
Cd  Cd2  1  0.49373833  0.78837284  0.04092691  1  0  1.332145  0  1.626913  0  0  1.173504  0  2.074245  0  0  1.226556  0  2.013922  0  0  0.769966  1.134808  0  2.116399  0
Cd  Cd3  1  0.00627744  0.28837913  0.45907543  1  0  1.332191  0  1.626884  0  0  1.173568  0  2.074234  0  0  1.226621  0  2.013904  0  0  0.769991  1.134868  0  2.116398  0
Cd  Cd4  1  0.00000342  1.00000000  0.99999966  1  0  1.291492  0  1.764681  0  0  1.131667  0  2.221273  0  0  1.183659  0  2.162824  0  0  0.752349  1.094016  0  2.261569  0
Cd  Cd5  1  0.50000666  0.50001149  0.50000202  1  0  1.291461  0  1.764698  0  0  1.131658  0  2.221273  0  0  1.183633  0  2.162859  0  0  0.752343  1.094035  0  2.261516  0
P  P6  1  0.98191071  0.20806849  0.88635826  1  0  1.238297  0  4.678519  0  0  1.111742  0  5.147027  0  0  1.151875  0  5.126959  0  0  0.28138  1.083836  0  5.160001  0
P  P7  1  0.51811721  0.70807766  0.61364295  1  0  1.238483  0  4.678262  0  0  1.111971  0  5.146759  0  0  1.152097  0  5.126677  0  0  0.281504  1.084059  0  5.159751  0
P  P8  1  0.01809210  0.79192423  0.11364070  1  0  1.238358  0  4.678451  0  0  1.111847  0  5.146865  0  0  1.151967  0  5.126808  0  0  0.281472  1.08394  0  5.15984  0
P  P9  1  0.48191842  0.29193956  0.38636017  1  0  1.238272  0  4.678349  0  0  1.111712  0  5.146901  0  0  1.151839  0  5.126819  0  0  0.281404  1.083801  0  5.159881  0
H  H10  1  0.72179512  0.10341259  0.79875072  1  0  0.088941  0  0.970678  0  0  0.098845  0  1.036171  0  0  0.101227  0  1.03552  0  0  0.10109  0.096925  0  1.037096  0
H  H11  1  0.77817572  0.60340309  0.70125780  1  0  0.088891  0  0.970603  0  0  0.098734  0  1.036182  0  0  0.101119  0  1.035525  0  0  0.101033  0.096815  0  1.037102  0
H  H12  1  0.27817834  0.89658590  0.20124518  1  0  0.088927  0  0.970679  0  0  0.098843  0  1.036158  0  0  0.101229  0  1.035503  0  0  0.101067  0.096924  0  1.037079  0
H  H13  1  0.22179660  0.39658963  0.29875242  1  0  0.08886  0  0.970688  0  0  0.098844  0  1.036134  0  0  0.101186  0  1.035528  0  0  0.10108  0.096935  0  1.03703  0
H  H14  1  0.81926985  0.90827460  0.72769282  1  0  0.08352  0  0.960431  0  0  0.095967  0  1.019216  0  0  0.098849  0  1.017919  0  0  0.099198  0.093913  0  1.020238  0
H  H15  1  0.68065642  0.40824578  0.77231026  1  0  0.083464  0  0.960536  0  0  0.096012  0  1.019223  0  0  0.098894  0  1.01793  0  0  0.099289  0.093997  0  1.020202  0
H  H16  1  0.18070528  0.09173542  0.27230166  1  0  0.083467  0  0.960461  0  0  0.095909  0  1.019266  0  0  0.09879  0  1.01797  0  0  0.099214  0.093892  0  1.020247  0
H  H17  1  0.31925369  0.59171669  0.22769166  1  0  0.083503  0  0.960379  0  0  0.095931  0  1.019188  0  0  0.09881  0  1.017895  0  0  0.099186  0.093879  0  1.020209  0
H  H18  1  0.19690564  0.73876732  0.72654183  1  0  0.081821  0  0.997924  0  0  0.091903  0  1.061263  0  0  0.093076  0  1.063282  0  0  0.095138  0.091005  0  1.059975  0
H  H19  1  0.30303293  0.23873331  0.77345273  1  0  0.081801  0  0.9979  0  0  0.091902  0  1.061251  0  0  0.093062  0  1.063286  0  0  0.095099  0.091054  0  1.059913  0
H  H20  1  0.80307645  0.26125998  0.27345484  1  0  0.081744  0  0.997927  0  0  0.091848  0  1.061271  0  0  0.093013  0  1.063293  0  0  0.095088  0.090993  0  1.059943  0
H  H21  1  0.69688178  0.76122339  0.22653525  1  0  0.081839  0  0.997872  0  0  0.09192  0  1.061207  0  0  0.093094  0  1.063226  0  0  0.095076  0.091024  0  1.05992  0
H  H22  1  0.47600322  0.76920011  0.79574875  1  0  0.084414  0  0.962228  0  0  0.096333  0  1.020345  0  0  0.098512  0  1.020779  0  0  0.098158  0.094637  0  1.020342  0
H  H23  1  0.02398799  0.26917316  0.70423787  1  0  0.084433  0  0.962143  0  0  0.096377  0  1.020233  0  0  0.098556  0  1.020664  0  0  0.098191  0.094681  0  1.02023  0
H  H24  1  0.52400276  0.23081567  0.20424378  1  0  0.084437  0  0.962185  0  0  0.096364  0  1.020294  0  0  0.098545  0  1.020726  0  0  0.098173  0.094667  0  1.020294  0
H  H25  1  0.97597800  0.73080660  0.29574328  1  0  0.08446  0  0.962111  0  0  0.096358  0  1.020261  0  0  0.098526  0  1.020692  0  0  0.098143  0.09466  0  1.020268  0
H  H26  1  0.38670387  0.97693840  0.86500290  1  0  0.101832  0  0.953088  0  0  0.112285  0  1.014504  0  0  0.115727  0  1.012139  0  0  0.103754  0.109745  0  1.016353  0
H  H27  1  0.11332148  0.47693035  0.63498757  1  0  0.101723  0  0.953056  0  0  0.112255  0  1.014407  0  0  0.115703  0  1.012035  0  0  0.103678  0.109711  0  1.016253  0
H  H28  1  0.61329195  0.02306440  0.13499315  1  0  0.101769  0  0.953144  0  0  0.112269  0  1.014518  0  0  0.115707  0  1.012146  0  0  0.103739  0.109727  0  1.016365  0
H  H29  1  0.88669306  0.52307822  0.36500394  1  0  0.101832  0  0.953075  0  0  0.112334  0  1.014438  0  0  0.115772  0  1.012072  0  0  0.103725  0.109792  0  1.016286  0
H  H30  1  0.25489918  0.44731422  0.86214285  1  0  0.129738  0  0.937536  0  0  0.143758  0  0.994968  0  0  0.146458  0  0.994287  0  0  0.103968  0.14175  0  0.99564  0
H  H31  1  0.24512189  0.94732297  0.63786197  1  0  0.129738  0  0.9374  0  0  0.143758  0  0.99485  0  0  0.146455  0  0.994165  0  0  0.103987  0.14175  0  0.995521  0
H  H32  1  0.74510545  0.55266698  0.13785863  1  0  0.129825  0  0.937264  0  0  0.14379  0  0.994733  0  0  0.146484  0  0.994048  0  0  0.10399  0.141782  0  0.995404  0
H  H33  1  0.75491040  0.05269857  0.36214363  1  0  0.129687  0  0.937446  0  0  0.143723  0  0.994883  0  0  0.146403  0  0.994218  0  0  0.103951  0.141716  0  0.995552  0
H  H34  1  0.97335018  0.49203161  0.83810001  1  0  0.117554  0  0.935613  0  0  0.135347  0  0.988792  0  0  0.137167  0  0.989272  0  0  0.101719  0.134064  0  0.988481  0
H  H35  1  0.52667847  0.99203296  0.66190577  1  0  0.117545  0  0.935497  0  0  0.135352  0  0.988707  0  0  0.137168  0  0.989179  0  0  0.101745  0.134074  0  0.988386  0
H  H36  1  0.02667512  0.50796832  0.16190268  1  0  0.117546  0  0.935542  0  0  0.135293  0  0.988761  0  0  0.137113  0  0.989233  0  0  0.101692  0.134012  0  0.988444  0
H  H37  1  0.47336239  0.00797417  0.33809918  1  0  0.11755  0  0.935679  0  0  0.135356  0  0.988846  0  0  0.137172  0  0.98932  0  0  0.101728  0.134073  0  0.988532  0
H  H38  1  0.01506141  0.74015448  0.89646288  1  0  0.105638  0  0.941127  0  0  0.121837  0  1.001168  0  0  0.123305  0  1.001589  0  0  0.101482  0.120844  0  1.000845  0
H  H39  1  0.48495323  0.24016724  0.60354330  1  0  0.10556  0  0.941181  0  0  0.121787  0  1.001151  0  0  0.123271  0  1.001548  0  0  0.101438  0.120779  0  1.000863  0
H  H40  1  0.98495871  0.25983392  0.10353942  1  0  0.105595  0  0.941074  0  0  0.121762  0  1.001106  0  0  0.123229  0  1.001522  0  0  0.101446  0.120772  0  1.000783  0
H  H41  1  0.51507568  0.75983556  0.39646372  1  0  0.105677  0  0.941  0  0  0.121884  0  1.001016  0  0  0.123368  0  1.001418  0  0  0.101462  0.120877  0  1.000724  0
H  H42  1  0.87165022  0.56314821  0.92923133  1  0  0.113238  0  0.937543  0  0  0.128216  0  0.998182  0  0  0.131141  0  0.996165  0  0  0.104805  0.126102  0  0.99971  0
H  H43  1  0.62835701  0.06316960  0.57077427  1  0  0.113158  0  0.937735  0  0  0.128115  0  0.998356  0  0  0.131038  0  0.996344  0  0  0.104819  0.126014  0  0.999885  0
H  H44  1  0.12836632  0.43684451  0.07076737  1  0  0.113297  0  0.93738  0  0  0.128183  0  0.998103  0  0  0.131107  0  0.996087  0  0  0.104819  0.126073  0  0.99963  0
H  H45  1  0.37166664  0.93684905  0.42923020  1  0  0.113169  0  0.937636  0  0  0.12816  0  0.998243  0  0  0.131085  0  0.996228  0  0  0.104799  0.126055  0  0.999776  0
H  H46  1  0.34669128  0.19381724  0.05252353  1  0  0.40746  0  0.885754  0  0  0.3834  0  0.940623  0  0  0.391912  0  0.928537  0  0  0.281791  0.377255  0  0.949317  0
H  H47  1  0.15332552  0.69382454  0.44748041  1  0  0.407405  0  0.885783  0  0  0.383366  0  0.94064  0  0  0.391876  0  0.92856  0  0  0.281753  0.377224  0  0.949331  0
H  H48  1  0.65331504  0.80617837  0.94747725  1  0  0.40741  0  0.88578  0  0  0.383355  0  0.940672  0  0  0.391865  0  0.92859  0  0  0.281767  0.377211  0  0.949365  0
H  H49  1  0.84670335  0.30618403  0.55252554  1  0  0.407363  0  0.885841  0  0  0.383301  0  0.940749  0  0  0.391813  0  0.928664  0  0  0.281747  0.377157  0  0.949442  0
C  C50  1  0.04827519  0.05523271  0.83613109  1  0  -0.233269  0  3.773905  0  0  -0.190604  0  4.011789  0  0  -0.199748  0  4.034841  0  0  -0.032297  -0.184575  0  3.996275  0
C  C51  1  0.45170328  0.55523540  0.66386905  1  0  -0.233384  0  3.774516  0  0  -0.190753  0  4.012444  0  0  -0.199917  0  4.035533  0  0  -0.032297  -0.184722  0  3.996916  0
C  C52  1  0.95170174  0.94475281  0.16386555  1  0  -0.233165  0  3.774378  0  0  -0.19061  0  4.012431  0  0  -0.199768  0  4.035508  0  0  -0.032283  -0.18458  0  3.996905  0
C  C53  1  0.54828242  0.44476741  0.33613195  1  0  -0.2332  0  3.773703  0  0  -0.190559  0  4.011726  0  0  -0.19971  0  4.034786  0  0  -0.032297  -0.184528  0  3.996209  0
C  C54  1  0.88897737  0.03357756  0.79747277  1  0  -0.054943  0  3.768592  0  0  -0.077106  0  4.011194  0  0  -0.077007  0  4.033104  0  0  -0.082991  -0.077006  0  3.996554  0
C  C55  1  0.61098013  0.53356057  0.70252825  1  0  -0.054598  0  3.76868  0  0  -0.076684  0  4.01126  0  0  -0.076577  0  4.033174  0  0  -0.08279  -0.076584  0  3.996627  0
C  C56  1  0.11099420  0.96642669  0.20251882  1  0  -0.055019  0  3.76875  0  0  -0.077176  0  4.011406  0  0  -0.077075  0  4.033321  0  0  -0.083003  -0.077075  0  3.996774  0
C  C57  1  0.38896439  0.46642927  0.29747462  1  0  -0.054772  0  3.768395  0  0  -0.07702  0  4.011015  0  0  -0.07689  0  4.032944  0  0  -0.082949  -0.076916  0  3.996382  0
C  C58  1  0.94290990  0.92157696  0.75794528  1  0  -0.083099  0  3.776208  0  0  -0.093159  0  4.023477  0  0  -0.096663  0  4.044674  0  0  -0.092813  -0.090717  0  4.009055  0
C  C59  1  0.55703325  0.42156808  0.74205359  1  0  -0.083331  0  3.776593  0  0  -0.093486  0  4.023935  0  0  -0.096993  0  4.045128  0  0  -0.093038  -0.091077  0  4.009519  0
C  C60  1  0.05706353  0.07842008  0.24204990  1  0  -0.082921  0  3.776099  0  0  -0.09298  0  4.023404  0  0  -0.096484  0  4.044596  0  0  -0.092772  -0.090573  0  4.008987  0
C  C61  1  0.44289050  0.57840880  0.25794556  1  0  -0.083144  0  3.776433  0  0  -0.09316  0  4.023715  0  0  -0.096663  0  4.044907  0  0  -0.092863  -0.090721  0  4.009292  0
C  C62  1  0.15439661  0.82665794  0.75726885  1  0  -0.060632  0  3.754244  0  0  -0.074325  0  3.997585  0  0  -0.074687  0  4.019847  0  0  -0.08742  -0.073897  0  3.98229  0
C  C63  1  0.34556521  0.32663118  0.74272788  1  0  -0.060514  0  3.754351  0  0  -0.07425  0  3.997726  0  0  -0.074602  0  4.019993  0  0  -0.087358  -0.073864  0  3.982418  0
C  C64  1  0.84559409  0.17335352  0.24272824  1  0  -0.060635  0  3.754506  0  0  -0.074347  0  3.997844  0  0  -0.0747  0  4.020118  0  0  -0.087412  -0.073956  0  3.982536  0
C  C65  1  0.65436851  0.67333416  0.25726273  1  0  -0.060626  0  3.754284  0  0  -0.074329  0  3.997591  0  0  -0.074692  0  4.019848  0  0  -0.087302  -0.073901  0  3.982296  0
C  C66  1  0.31189384  0.84438917  0.79617024  1  0  -0.073409  0  3.758914  0  0  -0.083796  0  4.005296  0  0  -0.087271  0  4.027311  0  0  -0.090202  -0.081431  0  3.990467  0
C  C67  1  0.18809164  0.34437693  0.70382089  1  0  -0.073482  0  3.758975  0  0  -0.083866  0  4.005333  0  0  -0.08734  0  4.027342  0  0  -0.090241  -0.081498  0  3.99051  0
C  C68  1  0.68810541  0.15561220  0.20382583  1  0  -0.073444  0  3.75898  0  0  -0.083827  0  4.005351  0  0  -0.087305  0  4.027366  0  0  -0.090185  -0.081462  0  3.990528  0
C  C69  1  0.81186768  0.65562588  0.29616524  1  0  -0.073283  0  3.758766  0  0  -0.083629  0  4.005137  0  0  -0.087086  0  4.027137  0  0  -0.090063  -0.081269  0  3.990311  0
C  C70  1  0.26097924  0.95973866  0.83526693  1  0  -0.045909  0  3.734456  0  0  -0.066213  0  3.974561  0  0  -0.065843  0  3.994358  0  0  -0.080812  -0.066263  0  3.961225  0
C  C71  1  0.23904294  0.45971786  0.66472569  1  0  -0.045869  0  3.73492  0  0  -0.066246  0  3.975024  0  0  -0.065877  0  3.994834  0  0  -0.080844  -0.066279  0  3.961654  0
C  C72  1  0.73903020  0.04027999  0.16472598  1  0  -0.045935  0  3.734597  0  0  -0.066249  0  3.974746  0  0  -0.065869  0  3.994542  0  0  -0.080865  -0.066286  0  3.961383  0
C  C73  1  0.76096987  0.54027486  0.33526545  1  0  -0.046205  0  3.734667  0  0  -0.066561  0  3.974825  0  0  -0.066187  0  3.994622  0  0  -0.080938  -0.066601  0  3.96147  0
C  C74  1  0.07247331  0.45032177  0.87086014  1  0  -0.385152  0  3.686453  0  0  -0.409046  0  3.939638  0  0  -0.416964  0  3.949676  0  0  -0.172559  -0.403408  0  3.932623  0
C  C75  1  0.42754954  0.95031782  0.62914684  1  0  -0.385136  0  3.68604  0  0  -0.409116  0  3.939314  0  0  -0.417  0  3.949311  0  0  -0.172564  -0.403461  0  3.932309  0
C  C76  1  0.92753815  0.54966663  0.12914031  1  0  -0.385217  0  3.6865  0  0  -0.408997  0  3.939477  0  0  -0.416885  0  3.949477  0  0  -0.172523  -0.403367  0  3.93249  0
C  C77  1  0.57247426  0.04968066  0.37086122  1  0  -0.385015  0  3.686511  0  0  -0.408966  0  3.93971  0  0  -0.416843  0  3.949717  0  0  -0.172525  -0.403317  0  3.932713  0
C  C78  1  0.03275958  0.59371507  0.91140763  1  0  -0.227247  0  3.658773  0  0  -0.263135  0  3.901746  0  0  -0.268423  0  3.91032  0  0  -0.16127  -0.259418  0  3.895698  0
C  C79  1  0.46726008  0.09372957  0.58860060  1  0  -0.226993  0  3.658542  0  0  -0.262811  0  3.901369  0  0  -0.268112  0  3.909924  0  0  -0.161253  -0.259138  0  3.895403  0
C  C80  1  0.96724853  0.40628053  0.08859495  1  0  -0.227287  0  3.658752  0  0  -0.263004  0  3.901508  0  0  -0.268297  0  3.91008  0  0  -0.161271  -0.259301  0  3.895474  0
C  C81  1  0.53277918  0.90629485  0.41140720  1  0  -0.227439  0  3.65894  0  0  -0.263211  0  3.901818  0  0  -0.268521  0  3.910376  0  0  -0.161319  -0.259531  0  3.895843  0
C  C82  1  0.22682986  0.60592357  0.94955011  1  0  0.737932  0  3.790334  0  0  0.68775  0  4.089261  0  0  0.722679  0  4.081463  0  0  0.219219  0.663829  0  4.093851  0
C  C83  1  0.27319121  0.10592257  0.55045346  1  0  0.737901  0  3.790309  0  0  0.687699  0  4.089204  0  0  0.722623  0  4.081415  0  0  0.219347  0.663795  0  4.093787  0
C  C84  1  0.77317982  0.39406915  0.05044890  1  0  0.737878  0  3.790495  0  0  0.687665  0  4.089384  0  0  0.722589  0  4.08159  0  0  0.219277  0.66375  0  4.093968  0
C  C85  1  0.72684796  0.89407880  0.44955219  1  0  0.738269  0  3.790085  0  0  0.687894  0  4.089257  0  0  0.72282  0  4.081457  0  0  0.219389  0.663989  0  4.093844  0
O  O86  1  0.18558481  0.70169536  0.98762254  1  0  -0.702449  0  2.075545  0  0  -0.625846  0  2.349601  0  0  -0.658325  0  2.335499  0  0  -0.333069  -0.602754  0  2.358442  0
O  O87  1  0.31441470  0.20171323  0.51238217  1  0  -0.702369  0  2.07558  0  0  -0.625826  0  2.349726  0  0  -0.65832  0  2.335669  0  0  -0.333079  -0.602736  0  2.358558  0
O  O88  1  0.81440947  0.29829160  0.01237816  1  0  -0.702279  0  2.075639  0  0  -0.625706  0  2.349717  0  0  -0.658213  0  2.335693  0  0  -0.332995  -0.602618  0  2.358557  0
O  O89  1  0.68561937  0.79830831  0.48762488  1  0  -0.702527  0  2.075546  0  0  -0.625839  0  2.349624  0  0  -0.658341  0  2.335588  0  0  -0.333107  -0.602752  0  2.358464  0
O  O90  1  0.42029947  0.53007600  0.94229520  1  0  -0.676014  0  2.008246  0  0  -0.611232  0  2.262309  0  0  -0.637941  0  2.247731  0  0  -0.332883  -0.592506  0  2.27195  0
O  O91  1  0.07970366  0.03009355  0.55771303  1  0  -0.676193  0  2.008276  0  0  -0.61133  0  2.262239  0  0  -0.638037  0  2.247667  0  0  -0.333009  -0.5926  0  2.271868  0
O  O92  1  0.57970877  0.46990952  0.05771061  1  0  -0.676146  0  2.008271  0  0  -0.611334  0  2.262286  0  0  -0.63804  0  2.247715  0  0  -0.333035  -0.592607  0  2.271923  0
O  O93  1  0.92031855  0.96993519  0.44229824  1  0  -0.676215  0  2.008103  0  0  -0.611375  0  2.262299  0  0  -0.638084  0  2.247718  0  0  -0.33298  -0.592646  0  2.271937  0
O  O94  1  0.72313989  0.20630437  0.89232426  1  0  -0.826821  0  1.947484  0  0  -0.748716  0  2.219675  0  0  -0.776296  0  2.201092  0  0  -0.38559  -0.728962  0  2.231969  0
O  O95  1  0.77688991  0.70630316  0.60768055  1  0  -0.826891  0  1.947405  0  0  -0.748784  0  2.219586  0  0  -0.776387  0  2.201046  0  0  -0.385691  -0.72904  0  2.231898  0
O  O96  1  0.27686642  0.79370276  0.10767652  1  0  -0.826825  0  1.947405  0  0  -0.74873  0  2.219598  0  0  -0.77631  0  2.201017  0  0  -0.385642  -0.728974  0  2.23189  0
O  O97  1  0.22314582  0.29369533  0.39232508  1  0  -0.826813  0  1.947427  0  0  -0.748689  0  2.219613  0  0  -0.776255  0  2.200999  0  0  -0.385569  -0.728939  0  2.231914  0
O  O98  1  0.13411016  0.13787366  0.92943396  1  0  -0.872491  0  2.069892  0  0  -0.776967  0  2.361578  0  0  -0.806547  0  2.340173  0  0  -0.38609  -0.755769  0  2.375726  0
O  O99  1  0.36590880  0.63789963  0.57056811  1  0  -0.872476  0  2.069741  0  0  -0.777016  0  2.361522  0  0  -0.806589  0  2.340113  0  0  -0.386081  -0.755822  0  2.375667  0
O  O100  1  0.86588063  0.86210465  0.07056528  1  0  -0.8724  0  2.069711  0  0  -0.776888  0  2.361405  0  0  -0.806469  0  2.340004  0  0  -0.386062  -0.75569  0  2.37555  0
O  O101  1  0.63412171  0.36213632  0.42943605  1  0  -0.872384  0  2.069749  0  0  -0.776913  0  2.361568  0  0  -0.806495  0  2.340166  0  0  -0.386069  -0.755713  0  2.375711  0
O  O102  1  0.34268218  0.09599239  0.02752394  1  0  -1.026908  0  1.86685  0  0  -0.926667  0  2.124482  0  0  -0.964671  0  2.093864  0  0  -0.599863  -0.899116  0  2.145138  0
O  O103  1  0.15733904  0.59600226  0.47247982  1  0  -1.026842  0  1.866778  0  0  -0.926619  0  2.124458  0  0  -0.964618  0  2.093839  0  0  -0.599862  -0.899075  0  2.145116  0
O  O104  1  0.65731720  0.90400754  0.97247535  1  0  -1.026843  0  1.866806  0  0  -0.926599  0  2.124457  0  0  -0.964603  0  2.093841  0  0  -0.599851  -0.89905  0  2.145113  0
O  O105  1  0.84270367  0.40401352  0.52752837  1  0  -1.026806  0  1.866758  0  0  -0.926564  0  2.124413  0  0  -0.964562  0  2.093794  0  0  -0.599844  -0.899017  0  2.145068  0
