# generated using pymatgen
data_CdH14C22SN3O4
_symmetry_space_group_name_H-M   'P 1'
_cell_length_a   7.72873245
_cell_length_b   9.85551617
_cell_length_c   12.62106897
_cell_angle_alpha   92.08325559
_cell_angle_beta   92.83822099
_cell_angle_gamma   99.29016886
_symmetry_Int_Tables_number   1
_chemical_formula_structural   CdH14C22SN3O4
_chemical_formula_sum   'Cd2 H28 C44 S2 N6 O8'
_cell_volume   946.62204011
_cell_formula_units_Z   2
loop_
 _symmetry_equiv_pos_site_id
 _symmetry_equiv_pos_as_xyz
  1  'x, y, z'
loop_
 _atom_site_type_symbol
 _atom_site_label
 _atom_site_symmetry_multiplicity
 _atom_site_fract_x
 _atom_site_fract_y
 _atom_site_fract_z
 _atom_site_occupancy
 _atom_site_hle17_bader_spin_density
 _atom_site_hle17_ddec_charge
 _atom_site_hle17_ddec_spin_density
 _atom_site_hle17_ddec_sum_bond_order
 _atom_site_hle17_magmom
 _atom_site_hse06_10hf_bader_spin_density
 _atom_site_hse06_10hf_ddec_charge
 _atom_site_hse06_10hf_ddec_spin_density
 _atom_site_hse06_10hf_ddec_sum_bond_order
 _atom_site_hse06_10hf_magmom
 _atom_site_hse06_bader_spin_density
 _atom_site_hse06_ddec_charge
 _atom_site_hse06_ddec_spin_density
 _atom_site_hse06_ddec_sum_bond_order
 _atom_site_hse06_magmom
 _atom_site_pbe_bader_spin_density
 _atom_site_pbe_cm5_charge
 _atom_site_pbe_ddec_charge
 _atom_site_pbe_ddec_spin_density
 _atom_site_pbe_ddec_sum_bond_order
 _atom_site_pbe_magmom
Cd  Cd0  1  0.30768947  0.14779551  0.49019215  1  0  1.209618  0  1.628085  0  0  1.021775  0  2.082623  0  0  1.079381  0  2.02705  0  0  0.789602  0.980321  0  2.121089  0
Cd  Cd1  1  0.69231177  0.85220619  0.50980808  1  0  1.209616  0  1.62809  0  0  1.021774  0  2.082641  0  0  1.079379  0  2.027065  0  0  0.789598  0.980319  0  2.121107  0
H  H2  1  0.75692725  0.31554930  0.54553167  1  0  0.129189  0  0.933318  0  0  0.134305  0  0.998186  0  0  0.13673  0  0.995808  0  0  0.128538  0.132602  0  0.99987  0
H  H3  1  0.24307119  0.68445137  0.45446766  1  0  0.129163  0  0.933294  0  0  0.134275  0  0.998182  0  0  0.1367  0  0.995795  0  0  0.128535  0.132571  0  0.999865  0
H  H4  1  0.64150962  0.59520124  0.28375315  1  0  0.153375  0  0.953434  0  0  0.162038  0  1.012651  0  0  0.165321  0  1.010356  0  0  0.12103  0.15967  0  1.014253  0
H  H5  1  0.35849205  0.40479633  0.71624462  1  0  0.153389  0  0.953422  0  0  0.162055  0  1.012642  0  0  0.165336  0  1.010352  0  0  0.121047  0.159688  0  1.014246  0
H  H6  1  0.86162536  0.11148613  0.35489659  1  0  0.129264  0  0.951166  0  0  0.137746  0  1.012474  0  0  0.1411  0  1.010352  0  0  0.107848  0.1352  0  1.014107  0
H  H7  1  0.13837329  0.88851558  0.64510356  1  0  0.129195  0  0.951226  0  0  0.137691  0  1.012524  0  0  0.141044  0  1.010406  0  0  0.107832  0.135163  0  1.014138  0
H  H8  1  0.61792227  0.15805181  0.23334438  1  0  0.094917  0  0.970754  0  0  0.104579  0  1.032947  0  0  0.107128  0  1.032531  0  0  0.095309  0.102614  0  1.033593  0
H  H9  1  0.38207595  0.84194784  0.76665571  1  0  0.094934  0  0.970774  0  0  0.1046  0  1.032959  0  0  0.107147  0  1.032545  0  0  0.095314  0.102636  0  1.033604  0
H  H10  1  0.66192661  0.34385925  0.10569907  1  0  0.076918  0  0.999229  0  0  0.086318  0  1.064515  0  0  0.08731  0  1.067007  0  0  0.089507  0.085543  0  1.06295  0
H  H11  1  0.33807161  0.65614039  0.89430024  1  0  0.07695  0  0.999202  0  0  0.086348  0  1.064489  0  0  0.087339  0  1.066987  0  0  0.089519  0.085573  0  1.062925  0
H  H12  1  0.95005261  0.49773193  0.10020784  1  0  0.099322  0  0.965249  0  0  0.109235  0  1.030095  0  0  0.11192  0  1.029559  0  0  0.098475  0.107492  0  1.030146  0
H  H13  1  0.04994582  0.50226873  0.89979070  1  0  0.099282  0  0.965296  0  0  0.109249  0  1.030077  0  0  0.111934  0  1.029543  0  0  0.098477  0.107506  0  1.030128  0
H  H14  1  0.40101597  0.64501383  0.24120604  1  0  0.100197  0  0.968927  0  0  0.109406  0  1.038996  0  0  0.111571  0  1.03752  0  0  0.112561  0.107629  0  1.040524  0
H  H15  1  0.59898375  0.35498682  0.75879174  1  0  0.100181  0  0.968951  0  0  0.109427  0  1.038979  0  0  0.111597  0  1.037504  0  0  0.112561  0.107652  0  1.040508  0
H  H16  1  0.20786050  0.62512791  0.15984172  1  0  0.089753  0  0.928009  0  0  0.106069  0  0.990476  0  0  0.105879  0  0.992275  0  0  0.115802  0.106306  0  0.988984  0
H  H17  1  0.79213944  0.37487378  0.84015688  1  0  0.089712  0  0.928113  0  0  0.106043  0  0.990558  0  0  0.105855  0  0.992357  0  0  0.115774  0.106281  0  0.989066  0
H  H18  1  0.24135655  0.33880618  0.05352840  1  0  0.091435  0  0.970884  0  0  0.101268  0  1.034167  0  0  0.103864  0  1.033378  0  0  0.100411  0.09939  0  1.034774  0
H  H19  1  0.75864275  0.66119244  0.94647091  1  0  0.091406  0  0.970914  0  0  0.101239  0  1.034199  0  0  0.103834  0  1.03341  0  0  0.100404  0.09936  0  1.034806  0
H  H20  1  0.60418089  0.71811769  0.10522464  1  0  0.092787  0  0.956987  0  0  0.106045  0  1.015139  0  0  0.108244  0  1.014515  0  0  0.103527  0.10446  0  1.015665  0
H  H21  1  0.39581818  0.28187987  0.89477306  1  0  0.092801  0  0.956918  0  0  0.106062  0  1.015071  0  0  0.10827  0  1.014447  0  0  0.103531  0.104477  0  1.015602  0
H  H22  1  0.14554824  0.15950884  0.80326570  1  0  0.096672  0  0.957741  0  0  0.105584  0  1.02137  0  0  0.1095  0  1.018278  0  0  0.099194  0.102674  0  1.023636  0
H  H23  1  0.85445216  0.84048879  0.19673759  1  0  0.0967  0  0.957756  0  0  0.105571  0  1.02142  0  0  0.109512  0  1.018299  0  0  0.099175  0.102661  0  1.023684  0
H  H24  1  0.04747216  0.14231884  0.99010669  1  0  0.086336  0  0.960506  0  0  0.099189  0  1.017437  0  0  0.101904  0  1.016915  0  0  0.097016  0.097126  0  1.018156  0
H  H25  1  0.95252284  0.85767774  0.00989483  1  0  0.086375  0  0.960421  0  0  0.099236  0  1.017343  0  0  0.10195  0  1.016823  0  0  0.097003  0.097173  0  1.018063  0
H  H26  1  0.72919911  0.08832850  0.02018937  1  0  0.085833  0  0.965034  0  0  0.097683  0  1.02454  0  0  0.100207  0  1.023712  0  0  0.09738  0.095887  0  1.025136  0
H  H27  1  0.27080018  0.91167010  0.97980836  1  0  0.08581  0  0.965043  0  0  0.097654  0  1.024554  0  0  0.100179  0  1.023724  0  0  0.097359  0.095857  0  1.02515  0
H  H28  1  0.51054009  0.05425199  0.86610787  1  0  0.08664  0  0.95335  0  0  0.099681  0  1.01258  0  0  0.102793  0  1.011041  0  0  0.099198  0.097409  0  1.013871  0
H  H29  1  0.48945383  0.94574561  0.13389285  1  0  0.086648  0  0.95338  0  0  0.099664  0  1.012627  0  0  0.102776  0  1.011093  0  0  0.099198  0.097412  0  1.013895  0
C  C30  1  0.69898521  0.36936279  0.48294360  1  0  0.055342  0  3.624557  0  0  0.016471  0  3.915255  0  0  0.027113  0  3.927354  0  0  0.056993  0.00787  0  3.909362  0
C  C31  1  0.30101904  0.63063476  0.51705267  1  0  0.055376  0  3.624509  0  0  0.016501  0  3.915218  0  0  0.027149  0  3.927299  0  0  0.056962  0.007901  0  3.909324  0
C  C32  1  0.63353862  0.51619957  0.34138139  1  0  -0.198953  0  3.60135  0  0  -0.22402  0  3.878263  0  0  -0.223316  0  3.893337  0  0  -0.08015  -0.224043  0  3.867571  0
C  C33  1  0.36646262  0.48380213  0.65861804  1  0  -0.198931  0  3.601526  0  0  -0.224008  0  3.878454  0  0  -0.223301  0  3.893514  0  0  -0.080149  -0.224032  0  3.867764  0
C  C34  1  0.49476483  0.41725074  0.36565070  1  0  0.114159  0  3.829741  0  0  0.11343  0  4.082542  0  0  0.113245  0  4.105118  0  0  0.088029  0.113618  0  4.067142  0
C  C35  1  0.50523533  0.58275199  0.63434873  1  0  0.114144  0  3.82977  0  0  0.113395  0  4.082576  0  0  0.113217  0  4.105134  0  0  0.08801  0.113584  0  4.067177  0
C  C36  1  0.31637786  0.38348988  0.31949167  1  0  0.286061  0  3.746045  0  0  0.248121  0  4.018774  0  0  0.266393  0  4.030673  0  0  0.226711  0.236014  0  4.010325  0
C  C37  1  0.68362187  0.61651078  0.68050690  1  0  0.285989  0  3.746168  0  0  0.248067  0  4.018856  0  0  0.266339  0  4.03075  0  0  0.226709  0.23596  0  4.010407  0
C  C38  1  0.04709082  0.27498068  0.29265504  1  0  0.152159  0  3.850578  0  0  0.147425  0  4.103765  0  0  0.15025  0  4.128015  0  0  0.082637  0.145663  0  4.087096  0
C  C39  1  0.95290913  0.72502103  0.70734515  1  0  0.152195  0  3.850563  0  0  0.147418  0  4.103817  0  0  0.150243  0  4.128064  0  0  0.082641  0.145655  0  4.087152  0
C  C40  1  0.88365692  0.19052246  0.29674115  1  0  -0.122706  0  3.697463  0  0  -0.141975  0  3.948417  0  0  -0.143982  0  3.968928  0  0  -0.089652  -0.140346  0  3.933984  0
C  C41  1  0.11634044  0.80947926  0.70325976  1  0  -0.122639  0  3.697473  0  0  -0.141916  0  3.948457  0  0  -0.14392  0  3.968966  0  0  -0.089636  -0.140302  0  3.934013  0
C  C42  1  0.74808281  0.21823936  0.22827994  1  0  -0.084308  0  3.772682  0  0  -0.100624  0  4.027481  0  0  -0.104343  0  4.050885  0  0  -0.103822  -0.09816  0  4.011733  0
C  C43  1  0.25191585  0.78176235  0.77172022  1  0  -0.084355  0  3.772691  0  0  -0.100665  0  4.027483  0  0  -0.104383  0  4.050882  0  0  -0.103826  -0.098202  0  4.011738  0
C  C44  1  0.77239953  0.32583304  0.15713331  1  0  -0.074848  0  3.814817  0  0  -0.089064  0  4.06834  0  0  -0.09097  0  4.093173  0  0  -0.102912  -0.087802  0  4.051749  0
C  C45  1  0.22759912  0.67416867  0.84286684  1  0  -0.074876  0  3.814872  0  0  -0.089095  0  4.068409  0  0  -0.090998  0  4.093231  0  0  -0.102926  -0.087832  0  4.051816  0
C  C46  1  0.93304897  0.41225555  0.15318406  1  0  -0.172525  0  3.798984  0  0  -0.192706  0  4.057659  0  0  -0.196829  0  4.078605  0  0  -0.109169  -0.189821  0  4.043039  0
C  C47  1  0.06695227  0.58774615  0.84681537  1  0  -0.172524  0  3.798957  0  0  -0.192757  0  4.057638  0  0  -0.19688  0  4.078585  0  0  -0.109193  -0.189871  0  4.043016  0
C  C48  1  0.06813604  0.38522485  0.22279313  1  0  0.089373  0  3.823399  0  0  0.077977  0  4.070434  0  0  0.082112  0  4.092642  0  0  0.08434  0.075377  0  4.055146  0
C  C49  1  0.93186261  0.61477685  0.77720623  1  0  0.089449  0  3.823287  0  0  0.078064  0  4.070317  0  0  0.082199  0  4.092522  0  0  0.084373  0.075463  0  4.055029  0
C  C50  1  0.31627213  0.57169474  0.18556152  1  0  -0.044489  0  3.649127  0  0  -0.109364  0  3.89405  0  0  -0.105585  0  3.905006  0  0  -0.049365  -0.112077  0  3.887215  0
C  C51  1  0.68372631  0.42830593  0.81443782  1  0  -0.044562  0  3.649273  0  0  -0.109481  0  3.894157  0  0  -0.105715  0  3.90513  0  0  -0.049356  -0.112192  0  3.887323  0
C  C52  1  0.41195518  0.53284076  0.09036083  1  0  0.070926  0  3.741359  0  0  0.089141  0  3.98285  0  0  0.088896  0  4.006332  0  0  -0.010888  0.089502  0  3.967036  0
C  C53  1  0.58804563  0.46715888  0.90963855  1  0  0.07095  0  3.741355  0  0  0.089163  0  3.982852  0  0  0.088917  0  4.006341  0  0  -0.010893  0.089523  0  3.96704  0
C  C54  1  0.35475478  0.41003760  0.03031180  1  0  -0.110888  0  3.743317  0  0  -0.130402  0  3.989399  0  0  -0.131985  0  4.009074  0  0  -0.091073  -0.12921  0  3.975947  0
C  C55  1  0.64524624  0.58996307  0.96968760  1  0  -0.110807  0  3.743339  0  0  -0.130324  0  3.98941  0  0  -0.131904  0  4.009079  0  0  -0.091056  -0.129131  0  3.975958  0
C  C56  1  0.55823647  0.62221144  0.05905604  1  0  -0.116444  0  3.754671  0  0  -0.13352  0  3.999719  0  0  -0.136196  0  4.021067  0  0  -0.088716  -0.131659  0  3.985091  0
C  C57  1  0.44176304  0.37778819  0.94094251  1  0  -0.116397  0  3.754546  0  0  -0.133475  0  3.999564  0  0  -0.136164  0  4.020925  0  0  -0.088702  -0.131615  0  3.984938  0
C  C58  1  0.95499578  0.12443721  0.62145851  1  0  0.654351  0  3.916338  0  0  0.601191  0  4.216627  0  0  0.636545  0  4.208333  0  0  0.201863  0.577198  0  4.221295  0
C  C59  1  0.04500418  0.87556452  0.37854406  1  0  0.654358  0  3.91643  0  0  0.601196  0  4.216716  0  0  0.636546  0  4.20842  0  0  0.20177  0.577204  0  4.221382  0
C  C60  1  0.88547533  0.11609341  0.73127455  1  0  -0.093199  0  3.721402  0  0  -0.078977  0  3.956556  0  0  -0.086211  0  3.977987  0  0  -0.022112  -0.074404  0  3.941924  0
C  C61  1  0.11452722  0.88390213  0.26872638  1  0  -0.093197  0  3.721442  0  0  -0.078933  0  3.956547  0  0  -0.086168  0  3.97799  0  0  -0.022088  -0.074361  0  3.941915  0
C  C62  1  0.00681946  0.13674433  0.81927347  1  0  -0.071225  0  3.755157  0  0  -0.094747  0  4.006508  0  0  -0.094006  0  4.025712  0  0  -0.089301  -0.0944  0  3.992327  0
C  C63  1  0.99317964  0.86325329  0.18072898  1  0  -0.071262  0  3.755197  0  0  -0.094761  0  4.006539  0  0  -0.094036  0  4.025734  0  0  -0.089276  -0.094414  0  3.992357  0
C  C64  1  0.95195677  0.12730307  0.92249997  1  0  -0.088337  0  3.799034  0  0  -0.102559  0  4.052658  0  0  -0.105432  0  4.073271  0  0  -0.099573  -0.10093  0  4.038628  0
C  C65  1  0.04804557  0.87269763  0.07750185  1  0  -0.088404  0  3.798917  0  0  -0.102638  0  4.05255  0  0  -0.105512  0  4.073174  0  0  -0.099577  -0.101011  0  4.038519  0
C  C66  1  0.77273355  0.09551449  0.93942950  1  0  -0.061557  0  3.785037  0  0  -0.075554  0  4.034512  0  0  -0.074833  0  4.0539  0  0  -0.093271  -0.075785  0  4.021303  0
C  C67  1  0.22726922  0.90448207  0.06057066  1  0  -0.061509  0  3.785015  0  0  -0.075489  0  4.03446  0  0  -0.074768  0  4.053849  0  0  -0.093233  -0.075721  0  4.021258  0
C  C68  1  0.65070322  0.07621317  0.85299770  1  0  -0.107308  0  3.760654  0  0  -0.12785  0  4.009267  0  0  -0.131064  0  4.029158  0  0  -0.096069  -0.125926  0  3.996338  0
C  C69  1  0.34929738  0.92378545  0.14700244  1  0  -0.107315  0  3.760664  0  0  -0.127824  0  4.009288  0  0  -0.131037  0  4.029183  0  0  -0.096083  -0.125918  0  3.996356  0
C  C70  1  0.70483231  0.08703092  0.74862630  1  0  -0.045058  0  3.710051  0  0  -0.030376  0  3.945022  0  0  -0.031543  0  3.962995  0  0  -0.00747  -0.030008  0  3.933894  0
C  C71  1  0.29516678  0.91296666  0.25137298  1  0  -0.045037  0  3.709912  0  0  -0.030409  0  3.944937  0  0  -0.031581  0  3.962912  0  0  -0.007499  -0.030043  0  3.933815  0
C  C72  1  0.56153811  0.07445556  0.66133362  1  0  0.659098  0  3.929655  0  0  0.602269  0  4.232204  0  0  0.637496  0  4.223131  0  0  0.20433  0.578231  0  4.237367  0
C  C73  1  0.43846509  0.92554307  0.33866739  1  0  0.659072  0  3.929467  0  0  0.602247  0  4.232037  0  0  0.637476  0  4.222963  0  0  0.204311  0.578211  0  4.237195  0
S  S74  1  0.81387023  0.50542235  0.42188024  1  0  0.211649  0  2.703074  0  0  0.217176  0  3.061073  0  0  0.215591  0  3.066342  0  0  0.133984  0.218053  0  3.057414  0
S  S75  1  0.18613318  0.49457730  0.57812000  1  0  0.211616  0  2.703129  0  0  0.217146  0  3.061124  0  0  0.21556  0  3.066391  0  0  0.133978  0.218024  0  3.057466  0
N  N76  1  0.20376144  0.27666653  0.35116693  1  0  -0.477626  0  3.145562  0  0  -0.423627  0  3.431779  0  0  -0.445209  0  3.445737  0  0  -0.342296  -0.408927  0  3.422265  0
N  N77  1  0.79623721  0.72333517  0.64883243  1  0  -0.477623  0  3.145561  0  0  -0.423633  0  3.431797  0  0  -0.445213  0  3.445755  0  0  -0.34232  -0.408931  0  3.422283  0
N  N78  1  0.53510768  0.33638342  0.44739004  1  0  -0.325735  0  3.240087  0  0  -0.264875  0  3.506711  0  0  -0.282602  0  3.526124  0  0  -0.324506  -0.252478  0  3.493391  0
N  N79  1  0.46489247  0.66361930  0.55260860  1  0  -0.325688  0  3.240068  0  0  -0.264782  0  3.506599  0  0  -0.282541  0  3.526086  0  0  -0.324443  -0.252388  0  3.493283  0
N  N80  1  0.23901273  0.45308114  0.24249164  1  0  -0.14568  0  3.484119  0  0  -0.059801  0  3.70504  0  0  -0.076575  0  3.727341  0  0  -0.238396  -0.048491  0  3.689686  0
N  N81  1  0.76098570  0.54691952  0.75750690  1  0  -0.145674  0  3.484115  0  0  -0.059764  0  3.704987  0  0  -0.076538  0  3.72729  0  0  -0.238391  -0.048451  0  3.68963  0
O  O82  1  0.11218540  0.18733865  0.61621198  1  0  -0.658544  0  2.038871  0  0  -0.593702  0  2.30411  0  0  -0.622449  0  2.291681  0  0  -0.333092  -0.573505  0  2.311686  0
O  O83  1  0.88781325  0.81265687  0.38378725  1  0  -0.658568  0  2.038852  0  0  -0.593714  0  2.304056  0  0  -0.622467  0  2.291654  0  0  -0.333052  -0.573514  0  2.311631  0
O  O84  1  0.85640657  0.07126063  0.54235005  1  0  -0.645616  0  2.042698  0  0  -0.581627  0  2.303068  0  0  -0.608918  0  2.290231  0  0  -0.325003  -0.562445  0  2.311138  0
O  O85  1  0.14358649  0.92874522  0.45765241  1  0  -0.645592  0  2.04284  0  0  -0.581589  0  2.303175  0  0  -0.608913  0  2.290411  0  0  -0.324944  -0.56241  0  2.311251  0
O  O86  1  0.50429518  0.95861603  0.61556902  1  0  -0.639495  0  2.041425  0  0  -0.576407  0  2.297022  0  0  -0.605614  0  2.286805  0  0  -0.321807  -0.555214  0  2.303241  0
O  O87  1  0.49570611  0.04137958  0.38443741  1  0  -0.63951  0  2.041492  0  0  -0.576371  0  2.297022  0  0  -0.605582  0  2.286803  0  0  -0.321764  -0.555179  0  2.303235  0
O  O88  1  0.49782630  0.18371208  0.64448937  1  0  -0.630832  0  1.99924  0  0  -0.5624  0  2.246602  0  0  -0.592856  0  2.237869  0  0  -0.315665  -0.540277  0  2.251473  0
O  O89  1  0.50217517  0.81628448  0.35551075  1  0  -0.630841  0  1.999137  0  0  -0.562399  0  2.246481  0  0  -0.592849  0  2.237748  0  0  -0.315653  -0.540276  0  2.251349  0
