# generated using pymatgen
data_AlH3C2O5
_symmetry_space_group_name_H-M   'P 1'
_cell_length_a   6.71865206
_cell_length_b   6.71860909
_cell_length_c   10.05426922
_cell_angle_alpha   100.69440356
_cell_angle_beta   100.69453898
_cell_angle_gamma   97.10553810
_symmetry_Int_Tables_number   1
_chemical_formula_structural   AlH3C2O5
_chemical_formula_sum   'Al4 H12 C8 O20'
_cell_volume   432.30359311
_cell_formula_units_Z   4
loop_
 _symmetry_equiv_pos_site_id
 _symmetry_equiv_pos_as_xyz
  1  'x, y, z'
loop_
 _atom_site_type_symbol
 _atom_site_label
 _atom_site_symmetry_multiplicity
 _atom_site_fract_x
 _atom_site_fract_y
 _atom_site_fract_z
 _atom_site_occupancy
 _atom_site_hle17_bader_spin_density
 _atom_site_hle17_ddec_charge
 _atom_site_hle17_ddec_spin_density
 _atom_site_hle17_ddec_sum_bond_order
 _atom_site_hle17_magmom
 _atom_site_hse06_10hf_bader_spin_density
 _atom_site_hse06_10hf_ddec_charge
 _atom_site_hse06_10hf_ddec_spin_density
 _atom_site_hse06_10hf_ddec_sum_bond_order
 _atom_site_hse06_10hf_magmom
 _atom_site_hse06_bader_spin_density
 _atom_site_hse06_ddec_charge
 _atom_site_hse06_ddec_spin_density
 _atom_site_hse06_ddec_sum_bond_order
 _atom_site_hse06_magmom
 _atom_site_pbe_bader_spin_density
 _atom_site_pbe_cm5_charge
 _atom_site_pbe_ddec_charge
 _atom_site_pbe_ddec_spin_density
 _atom_site_pbe_ddec_sum_bond_order
 _atom_site_pbe_magmom
Al  Al0  1  0.78010650  0.21756661  0.74940375  1  0  1.791776  0  2.211294  0  0  1.650464  0  2.542494  0  0  1.686408  0  2.495216  0  0  0.399423  1.62438  0  2.576232  0
Al  Al1  1  0.78243346  0.21989300  0.25059527  1  0  1.791772  0  2.211192  0  0  1.650421  0  2.542551  0  0  1.686362  0  2.495281  0  0  0.399434  1.624325  0  2.576293  0
Al  Al2  1  0.78049536  0.71771296  0.74947685  1  0  1.78569  0  2.226367  0  0  1.646735  0  2.558431  0  0  1.682221  0  2.51131  0  0  0.396116  1.621214  0  2.591683  0
Al  Al3  1  0.28228724  0.21950446  0.25052363  1  0  1.78568  0  2.22662  0  0  1.646822  0  2.558421  0  0  1.682302  0  2.511301  0  0  0.396059  1.621291  0  2.591685  0
H  H4  1  0.26242821  0.00164114  0.65785703  1  0  0.027474  0  0.917533  0  0  0.034562  0  0.985815  0  0  0.035051  0  0.981721  0  0  0.126487  0.033947  0  0.988922  0
H  H5  1  0.99835526  0.73757218  0.34214328  1  0  0.027429  0  0.917589  0  0  0.034526  0  0.985858  0  0  0.035014  0  0.981765  0  0  0.126477  0.033912  0  0.988965  0
H  H6  1  0.47488753  0.83238704  0.41130298  1  0  0.036605  0  0.92797  0  0  0.040705  0  1.002331  0  0  0.04158  0  0.997459  0  0  0.129912  0.039819  0  1.005974  0
H  H7  1  0.16760679  0.52511063  0.58869602  1  0  0.036607  0  0.927986  0  0  0.040698  0  1.002373  0  0  0.041572  0  0.997496  0  0  0.129901  0.039809  0  1.006024  0
H  H8  1  0.08667558  0.60259902  0.08726094  1  0  0.037154  0  0.925479  0  0  0.040355  0  1.000678  0  0  0.0412  0  0.99584  0  0  0.130252  0.039504  0  1.004314  0
H  H9  1  0.39740429  0.91332554  0.91273941  1  0  0.037214  0  0.925481  0  0  0.040411  0  1.000696  0  0  0.041255  0  0.995858  0  0  0.130303  0.039559  0  1.004335  0
H  H10  1  0.82599999  0.42913052  0.57994570  1  0  0.449931  0  0.845814  0  0  0.416797  0  0.912468  0  0  0.427364  0  0.896825  0  0  0.329898  0.409119  0  0.923834  0
H  H11  1  0.57086594  0.17399745  0.42005342  1  0  0.449929  0  0.845813  0  0  0.416794  0  0.912465  0  0  0.427361  0  0.896822  0  0  0.3299  0.409115  0  0.923832  0
H  H12  1  0.73727353  0.00710367  0.91948973  1  0  0.448883  0  0.846675  0  0  0.415805  0  0.913289  0  0  0.426354  0  0.897639  0  0  0.328893  0.40815  0  0.924653  0
H  H13  1  0.99289662  0.26272947  0.08051093  1  0  0.448866  0  0.8467  0  0  0.415791  0  0.91331  0  0  0.426339  0  0.897661  0  0  0.328883  0.408143  0  0.924665  0
H  H14  1  0.29622546  0.43306379  0.83795562  1  0  0.029275  0  0.916731  0  0  0.035385  0  0.985989  0  0  0.035932  0  0.981813  0  0  0.125719  0.034741  0  0.989103  0
H  H15  1  0.56693684  0.70377136  0.16204232  1  0  0.029262  0  0.916796  0  0  0.035368  0  0.986043  0  0  0.035915  0  0.981867  0  0  0.125712  0.034726  0  0.989158  0
C  C16  1  0.10888726  0.98657128  0.68274395  1  0  0.646644  0  3.785805  0  0  0.568875  0  4.096825  0  0  0.602771  0  4.085613  0  0  0.202185  0.545906  0  4.103894  0
C  C17  1  0.01341868  0.89111047  0.31725592  1  0  0.646762  0  3.785585  0  0  0.569015  0  4.09661  0  0  0.602917  0  4.085395  0  0  0.202267  0.546043  0  4.103681  0
C  C18  1  0.57313555  0.87488358  0.51627067  1  0  0.649751  0  3.756877  0  0  0.566139  0  4.069513  0  0  0.60023  0  4.058306  0  0  0.210162  0.543094  0  4.076669  0
C  C19  1  0.12510419  0.42686977  0.48373053  1  0  0.649732  0  3.756469  0  0  0.566112  0  4.069129  0  0  0.600203  0  4.057924  0  0  0.210216  0.543064  0  4.076286  0
C  C20  1  0.98799842  0.56005518  0.98241315  1  0  0.653571  0  3.753492  0  0  0.570193  0  4.066339  0  0  0.604367  0  4.054976  0  0  0.211527  0.547085  0  4.073553  0
C  C21  1  0.43995636  0.01200167  0.01758421  1  0  0.653567  0  3.75317  0  0  0.570137  0  4.066064  0  0  0.604311  0  4.054702  0  0  0.211453  0.547003  0  4.073282  0
C  C22  1  0.45095327  0.44865513  0.81485952  1  0  0.64687  0  3.783004  0  0  0.57002  0  4.093435  0  0  0.603915  0  4.082223  0  0  0.202599  0.547068  0  4.100497  0
C  C23  1  0.55135399  0.54905115  0.18514055  1  0  0.646872  0  3.783138  0  0  0.570051  0  4.093543  0  0  0.603948  0  4.082332  0  0  0.202587  0.547098  0  4.100604  0
O  O24  1  0.80737140  0.45010635  0.67622580  1  0  -1.094404  0  1.968065  0  0  -1.027638  0  2.198693  0  0  -1.046  0  2.165046  0  0  -0.461212  -1.014304  0  2.222325  0
O  O25  1  0.54988859  0.19262796  0.32377532  1  0  -1.094415  0  1.968096  0  0  -1.027642  0  2.198729  0  0  -1.046008  0  2.165085  0  0  -0.461209  -1.01431  0  2.222369  0
O  O26  1  0.03802316  0.81306430  0.70242588  1  0  -0.626069  0  2.133793  0  0  -0.565439  0  2.385687  0  0  -0.589511  0  2.374016  0  0  -0.237113  -0.548694  0  2.393211  0
O  O27  1  0.18694082  0.96197936  0.29757257  1  0  -0.626099  0  2.133369  0  0  -0.565548  0  2.385315  0  0  -0.589624  0  2.373646  0  0  -0.237151  -0.548799  0  2.392839  0
O  O28  1  0.75329159  0.98528804  0.82268092  1  0  -1.092277  0  1.970265  0  0  -1.025402  0  2.200422  0  0  -1.043573  0  2.166638  0  0  -0.458287  -1.012171  0  2.224085  0
O  O29  1  0.01471140  0.24670795  0.17731909  1  0  -1.092321  0  1.970373  0  0  -1.025432  0  2.200493  0  0  -1.043605  0  2.166722  0  0  -0.458289  -1.0122  0  2.224152  0
O  O30  1  0.61090762  0.06710872  0.57157743  1  0  -0.643822  0  2.158437  0  0  -0.572531  0  2.402415  0  0  -0.597761  0  2.390651  0  0  -0.233934  -0.554841  0  2.410036  0
O  O31  1  0.93289116  0.38909309  0.42842069  1  0  -0.643714  0  2.158669  0  0  -0.572422  0  2.402669  0  0  -0.597643  0  2.390895  0  0  -0.233875  -0.554733  0  2.410291  0
O  O32  1  0.63451171  0.73197598  0.56941708  1  0  -0.601327  0  2.147  0  0  -0.537714  0  2.395903  0  0  -0.561318  0  2.384642  0  0  -0.225596  -0.521556  0  2.403318  0
O  O33  1  0.26803554  0.36548862  0.43057670  1  0  -0.601421  0  2.146505  0  0  -0.537819  0  2.395413  0  0  -0.561402  0  2.384134  0  0  -0.225689  -0.521655  0  2.402824  0
O  O34  1  0.02430211  0.14586965  0.68819628  1  0  -0.634591  0  2.14021  0  0  -0.573452  0  2.394045  0  0  -0.597875  0  2.382925  0  0  -0.239828  -0.556361  0  2.401094  0
O  O35  1  0.85413267  0.97569710  0.31180318  1  0  -0.634591  0  2.14041  0  0  -0.573474  0  2.394281  0  0  -0.597903  0  2.383164  0  0  -0.239846  -0.556403  0  2.401374  0
O  O36  1  0.94928163  0.36775189  0.92734396  1  0  -0.644423  0  2.155086  0  0  -0.572733  0  2.398599  0  0  -0.598112  0  2.386868  0  0  -0.233835  -0.555012  0  2.406296  0
O  O37  1  0.63225007  0.05071598  0.07265706  1  0  -0.644335  0  2.155125  0  0  -0.572617  0  2.398657  0  0  -0.597985  0  2.386905  0  0  -0.233721  -0.554832  0  2.406312  0
O  O38  1  0.92710788  0.70316773  0.92925681  1  0  -0.604934  0  2.142713  0  0  -0.54084  0  2.390928  0  0  -0.564372  0  2.379379  0  0  -0.227664  -0.524691  0  2.398517  0
O  O39  1  0.29682991  0.07290386  0.07074700  1  0  -0.605134  0  2.142411  0  0  -0.541002  0  2.390612  0  0  -0.564537  0  2.379065  0  0  -0.227751  -0.524846  0  2.398205  0
O  O40  1  0.52276054  0.62252560  0.79615715  1  0  -0.626335  0  2.13256  0  0  -0.565729  0  2.383549  0  0  -0.589827  0  2.371893  0  0  -0.235945  -0.548957  0  2.391059  0
O  O41  1  0.37747241  0.47724007  0.20384794  1  0  -0.626312  0  2.132461  0  0  -0.565755  0  2.383465  0  0  -0.589855  0  2.371808  0  0  -0.235922  -0.54898  0  2.390975  0
O  O42  1  0.53566078  0.28944656  0.81004167  1  0  -0.635414  0  2.137343  0  0  -0.574505  0  2.390344  0  0  -0.599001  0  2.37933  0  0  -0.23975  -0.557395  0  2.397379  0
O  O43  1  0.71055149  0.46434011  0.18995790  1  0  -0.635376  0  2.137461  0  0  -0.574485  0  2.390473  0  0  -0.598979  0  2.379461  0  0  -0.239752  -0.557377  0  2.397512  0
