# generated using pymatgen
data_ZnNiH32(C2N)12
_symmetry_space_group_name_H-M   'P 1'
_cell_length_a   8.67948971
_cell_length_b   9.16090465
_cell_length_c   11.12838984
_cell_angle_alpha   110.94442190
_cell_angle_beta   110.13493823
_cell_angle_gamma   104.66835991
_symmetry_Int_Tables_number   1
_chemical_formula_structural   ZnNiH32(C2N)12
_chemical_formula_sum   'Zn1 Ni1 H32 C24 N12'
_cell_volume   700.80482875
_cell_formula_units_Z   1
loop_
 _symmetry_equiv_pos_site_id
 _symmetry_equiv_pos_as_xyz
  1  'x, y, z'
loop_
 _atom_site_type_symbol
 _atom_site_label
 _atom_site_symmetry_multiplicity
 _atom_site_fract_x
 _atom_site_fract_y
 _atom_site_fract_z
 _atom_site_occupancy
 _atom_site_hle17_bader_spin_density
 _atom_site_hle17_ddec_charge
 _atom_site_hle17_ddec_spin_density
 _atom_site_hle17_ddec_sum_bond_order
 _atom_site_hle17_magmom
 _atom_site_hse06_10hf_bader_spin_density
 _atom_site_hse06_10hf_ddec_charge
 _atom_site_hse06_10hf_ddec_spin_density
 _atom_site_hse06_10hf_ddec_sum_bond_order
 _atom_site_hse06_10hf_magmom
 _atom_site_hse06_bader_spin_density
 _atom_site_hse06_ddec_charge
 _atom_site_hse06_ddec_spin_density
 _atom_site_hse06_ddec_sum_bond_order
 _atom_site_hse06_magmom
 _atom_site_pbe_bader_spin_density
 _atom_site_pbe_cm5_charge
 _atom_site_pbe_ddec_charge
 _atom_site_pbe_ddec_spin_density
 _atom_site_pbe_ddec_sum_bond_order
 _atom_site_pbe_magmom
Zn  Zn0  1  0.99999876  0.49999707  0.99999726  1  0  0.902961  0  2.049562  0  0  0.712961  0  2.500065  0  0  0.753397  0  2.460225  0  0  0.704624  0.685193  0  2.526992  0
Ni  Ni1  1  0.49998861  0.99997565  0.50000301  1  0  0.134066  0  3.405787  0  0  0.157591  0  3.853641  0  0  0.167852  0  3.804991  0  0  0.396171  0.159236  0  3.881342  0
H  H2  1  0.00241488  0.24969465  0.68204900  1  0  0.099703  0  0.978368  0  0  0.108885  0  1.040228  0  0  0.11021  0  1.041143  0  0  0.113258  0.107934  0  1.039601  0
H  H3  1  0.99759292  0.75030821  0.31795313  1  0  0.099662  0  0.978382  0  0  0.108864  0  1.040229  0  0  0.110189  0  1.041145  0  0  0.113246  0.107913  0  1.039602  0
H  H4  1  0.25223439  0.10614968  0.70036630  1  0  0.120532  0  0.978762  0  0  0.131305  0  1.037432  0  0  0.133273  0  1.037522  0  0  0.120367  0.129932  0  1.037388  0
H  H5  1  0.74777325  0.89385649  0.29962947  1  0  0.120569  0  0.978745  0  0  0.131341  0  1.037402  0  0  0.133308  0  1.037494  0  0  0.120352  0.129969  0  1.037357  0
H  H6  1  0.35917212  0.43815551  0.12722250  1  0  0.091872  0  0.949355  0  0  0.101354  0  1.015447  0  0  0.103473  0  1.012993  0  0  0.13451  0.099906  0  1.016929  0
H  H7  1  0.64083941  0.56185101  0.87277615  1  0  0.091888  0  0.949285  0  0  0.101329  0  1.015427  0  0  0.103442  0  1.012986  0  0  0.134517  0.099887  0  1.016892  0
H  H8  1  0.43654019  0.07296018  0.93999812  1  0  0.066811  0  0.924901  0  0  0.085932  0  0.984059  0  0  0.085615  0  0.985136  0  0  0.108588  0.086081  0  0.983365  0
H  H9  1  0.56348676  0.92705808  0.05999950  1  0  0.066739  0  0.924975  0  0  0.085884  0  0.984083  0  0  0.085567  0  0.985163  0  0  0.108593  0.086033  0  0.983393  0
H  H10  1  0.59562405  0.25093064  0.95285646  1  0  0.081206  0  0.947439  0  0  0.094528  0  1.012868  0  0  0.094525  0  1.013993  0  0  0.107846  0.094421  0  1.012236  0
H  H11  1  0.40439378  0.74909509  0.04714803  1  0  0.081171  0  0.947252  0  0  0.094507  0  1.012647  0  0  0.094506  0  1.013766  0  0  0.107859  0.0944  0  1.012015  0
H  H12  1  0.69694335  0.25737826  0.19451135  1  0  0.117871  0  0.967619  0  0  0.133965  0  1.037513  0  0  0.135394  0  1.037792  0  0  0.09243  0.132926  0  1.037349  0
H  H13  1  0.30307128  0.74263606  0.80549107  1  0  0.117897  0  0.967637  0  0  0.133962  0  1.037552  0  0  0.135392  0  1.037831  0  0  0.092423  0.132917  0  1.037396  0
H  H14  1  0.49695862  0.26409889  0.19716057  1  0  0.099406  0  0.942324  0  0  0.12295  0  0.998306  0  0  0.123828  0  0.998934  0  0  0.088581  0.122235  0  0.997948  0
H  H15  1  0.50304075  0.73590179  0.80283254  1  0  0.099435  0  0.942434  0  0  0.122993  0  0.998383  0  0  0.123872  0  0.999011  0  0  0.088579  0.122278  0  0.998026  0
H  H16  1  0.65724117  0.44122702  0.20678137  1  0  0.095374  0  0.973395  0  0  0.11462  0  1.041065  0  0  0.114931  0  1.043153  0  0  0.085932  0.114325  0  1.039644  0
H  H17  1  0.34276584  0.55878329  0.79322165  1  0  0.09533  0  0.973428  0  0  0.114629  0  1.041011  0  0  0.114941  0  1.043097  0  0  0.085921  0.114335  0  1.039588  0
H  H18  1  0.86729626  0.09863694  0.94960247  1  0  0.10105  0  0.959572  0  0  0.111017  0  1.018699  0  0  0.113101  0  1.018517  0  0  0.11432  0.109479  0  1.018933  0
H  H19  1  0.13271796  0.90135738  0.05039721  1  0  0.101121  0  0.959588  0  0  0.111131  0  1.018632  0  0  0.113216  0  1.018448  0  0  0.114351  0.109575  0  1.018887  0
H  H20  1  0.96464991  0.02777483  0.18226307  1  0  0.109241  0  0.985501  0  0  0.117255  0  1.050414  0  0  0.119305  0  1.050805  0  0  0.117732  0.115671  0  1.050403  0
H  H21  1  0.03535744  0.97222681  0.81773951  1  0  0.109228  0  0.985523  0  0  0.117264  0  1.050404  0  0  0.119315  0  1.050792  0  0  0.11773  0.115671  0  1.050404  0
H  H22  1  0.15579019  0.56799465  0.35051291  1  0  0.093402  0  0.983582  0  0  0.10088  0  1.052524  0  0  0.102186  0  1.05173  0  0  0.12904  0.099888  0  1.053146  0
H  H23  1  0.84420219  0.43200344  0.64948312  1  0  0.093431  0  0.983678  0  0  0.100897  0  1.052618  0  0  0.1022  0  1.051829  0  0  0.129068  0.099904  0  1.053238  0
H  H24  1  0.05468326  0.25682913  0.46937997  1  0  0.078455  0  0.946274  0  0  0.091815  0  1.011517  0  0  0.092956  0  1.010707  0  0  0.105741  0.090976  0  1.012046  0
H  H25  1  0.94530815  0.74318178  0.53062375  1  0  0.078425  0  0.946347  0  0  0.091807  0  1.011574  0  0  0.092963  0  1.010772  0  0  0.10575  0.090961  0  1.012097  0
H  H26  1  0.20049042  0.47137335  0.53031338  1  0  0.080064  0  0.922101  0  0  0.098361  0  0.980443  0  0  0.098972  0  0.980544  0  0  0.114393  0.097836  0  0.980453  0
H  H27  1  0.79950146  0.52862974  0.46968387  1  0  0.080004  0  0.922156  0  0  0.09834  0  0.98048  0  0  0.098965  0  0.980587  0  0  0.114364  0.097807  0  0.980486  0
H  H28  1  0.38228873  0.31768246  0.61069477  1  0  0.098616  0  0.970364  0  0  0.117598  0  1.039477  0  0  0.118308  0  1.040738  0  0  0.08811  0.117218  0  1.038356  0
H  H29  1  0.61770595  0.68232739  0.38930950  1  0  0.098636  0  0.970407  0  0  0.117607  0  1.03953  0  0  0.118307  0  1.040802  0  0  0.088104  0.117228  0  1.038408  0
H  H30  1  0.43351076  0.37139361  0.48614575  1  0  0.099008  0  0.960221  0  0  0.120502  0  1.020547  0  0  0.121655  0  1.021203  0  0  0.087091  0.119639  0  1.020153  0
H  H31  1  0.56647559  0.62860789  0.51384966  1  0  0.098995  0  0.960283  0  0  0.120495  0  1.020597  0  0  0.121649  0  1.021249  0  0  0.087074  0.119629  0  1.020207  0
H  H32  1  0.28798353  0.15589450  0.42626258  1  0  0.098013  0  0.968233  0  0  0.112631  0  1.042512  0  0  0.115258  0  1.039447  0  0  0.08446  0.110446  0  1.044966  0
H  H33  1  0.71200802  0.84411030  0.57374224  1  0  0.098018  0  0.968317  0  0  0.112665  0  1.042559  0  0  0.115299  0  1.039486  0  0  0.084491  0.110478  0  1.04502  0
C  C34  1  0.34825709  0.82894195  0.30865463  1  0  0.067839  0  3.48259  0  0  0.037467  0  3.814656  0  0  0.046021  0  3.816357  0  0  0.019061  0.029175  0  3.813381  0
C  C35  1  0.65171669  0.17102326  0.69134318  1  0  0.06771  0  3.482574  0  0  0.037337  0  3.814635  0  0  0.045896  0  3.816332  0  0  0.0191  0.029041  0  3.813363  0
C  C36  1  0.35084511  0.88836127  0.55433118  1  0  0.006632  0  3.552452  0  0  -0.017645  0  3.90069  0  0  -0.013365  0  3.903538  0  0  -0.009055  -0.023372  0  3.899086  0
C  C37  1  0.64910892  0.11158993  0.44567407  1  0  0.00659  0  3.551714  0  0  -0.017706  0  3.900037  0  0  -0.013416  0  3.90288  0  0  -0.009161  -0.023441  0  3.898439  0
C  C38  1  0.11494057  0.26990038  0.77788191  1  0  -0.008166  0  3.762724  0  0  -0.036558  0  4.023648  0  0  -0.035189  0  4.044338  0  0  -0.006361  -0.037466  0  4.009653  0
C  C39  1  0.88506491  0.73009976  0.22211800  1  0  -0.007896  0  3.762474  0  0  -0.036304  0  4.023337  0  0  -0.034931  0  4.044021  0  0  -0.00624  -0.037214  0  4.009345  0
C  C40  1  0.23771561  0.19882585  0.78416107  1  0  -0.087927  0  3.691319  0  0  -0.126721  0  3.946358  0  0  -0.125684  0  3.965608  0  0  -0.006901  -0.127454  0  3.933366  0
C  C41  1  0.76229325  0.80117685  0.21583768  1  0  -0.088215  0  3.691215  0  0  -0.126934  0  3.946299  0  0  -0.125898  0  3.965549  0  0  -0.006989  -0.127668  0  3.933309  0
C  C42  1  0.29593135  0.36955725  0.00863799  1  0  0.16057  0  3.658591  0  0  0.099466  0  3.925581  0  0  0.113182  0  3.937959  0  0  0.13741  0.090567  0  3.916684  0
C  C43  1  0.70407887  0.63044913  0.99135940  1  0  0.160583  0  3.658388  0  0  0.099564  0  3.925407  0  0  0.11328  0  3.937782  0  0  0.137401  0.090664  0  3.916516  0
C  C44  1  0.49805357  0.21481591  0.99056063  1  0  0.046885  0  3.628399  0  0  -0.010989  0  3.888524  0  0  -0.005954  0  3.900057  0  0  -0.056135  -0.014307  0  3.880695  0
C  C45  1  0.50196756  0.78520253  0.00944365  1  0  0.047056  0  3.62802  0  0  -0.0107  0  3.888056  0  0  -0.005668  0  3.899594  0  0  -0.056156  -0.014022  0  3.880228  0
C  C46  1  0.59136935  0.29978717  0.15653321  1  0  -0.316142  0  3.714328  0  0  -0.394321  0  3.96342  0  0  -0.396909  0  3.973332  0  0  -0.246981  -0.392309  0  3.956682  0
C  C47  1  0.40864058  0.70022446  0.84346911  1  0  -0.316232  0  3.714323  0  0  -0.394446  0  3.963397  0  0  -0.397034  0  3.973307  0  0  -0.246953  -0.392432  0  3.956668  0
C  C48  1  0.94185558  0.18595363  0.06701104  1  0  -0.011124  0  3.77086  0  0  -0.043942  0  4.038479  0  0  -0.042155  0  4.058046  0  0  -0.008174  -0.045063  0  4.02506  0
C  C49  1  0.05815221  0.81404294  0.93298941  1  0  -0.011306  0  3.770883  0  0  -0.044151  0  4.038484  0  0  -0.042365  0  4.058053  0  0  -0.008241  -0.045255  0  4.02507  0
C  C50  1  0.98902918  0.14861429  0.18020988  1  0  -0.076656  0  3.685951  0  0  -0.114543  0  3.942396  0  0  -0.113183  0  3.96149  0  0  -0.004506  -0.115298  0  3.929524  0
C  C51  1  0.01097137  0.85138567  0.81979053  1  0  -0.076584  0  3.685921  0  0  -0.114496  0  3.942349  0  0  -0.113136  0  3.96144  0  0  -0.004498  -0.115244  0  3.929482  0
C  C52  1  0.08947333  0.43167706  0.26972420  1  0  0.151855  0  3.651912  0  0  0.094689  0  3.909781  0  0  0.107483  0  3.923909  0  0  0.13842  0.086482  0  3.899938  0
C  C53  1  0.91051683  0.56831842  0.73027147  1  0  0.151834  0  3.652051  0  0  0.094671  0  3.909916  0  0  0.107467  0  3.92404  0  0  0.13836  0.086465  0  3.900074  0
C  C54  1  0.16241997  0.33496808  0.45833398  1  0  0.037175  0  3.636137  0  0  -0.018967  0  3.891818  0  0  -0.014353  0  3.903316  0  0  -0.056054  -0.021826  0  3.883639  0
C  C55  1  0.83757389  0.66503662  0.54166780  1  0  0.037246  0  3.636168  0  0  -0.018977  0  3.891937  0  0  -0.014427  0  3.903516  0  0  -0.056047  -0.021796  0  3.883703  0
C  C56  1  0.32568476  0.29286205  0.49693988  1  0  -0.310849  0  3.715641  0  0  -0.389177  0  3.965737  0  0  -0.391899  0  3.974765  0  0  -0.244653  -0.387073  0  3.959609  0
C  C57  1  0.67430865  0.70714143  0.50306236  1  0  -0.310869  0  3.715751  0  0  -0.389199  0  3.965855  0  0  -0.391901  0  3.974907  0  0  -0.244667  -0.387105  0  3.959715  0
N  N58  1  0.24954881  0.71675865  0.18744336  1  0  -0.422672  0  3.010472  0  0  -0.358831  0  3.304692  0  0  -0.375003  0  3.315576  0  0  -0.355399  -0.347381  0  3.297668  0
N  N59  1  0.75045034  0.28322851  0.81255147  1  0  -0.422584  0  3.010224  0  0  -0.358732  0  3.304442  0  0  -0.374905  0  3.315326  0  0  -0.355445  -0.347282  0  3.297417  0
N  N60  1  0.25168763  0.81438960  0.58476850  1  0  -0.424534  0  2.767181  0  0  -0.388952  0  3.026436  0  0  -0.400676  0  3.03961  0  0  -0.358756  -0.380165  0  3.017856  0
N  N61  1  0.74829146  0.18558253  0.41523701  1  0  -0.42459  0  2.766211  0  0  -0.389016  0  3.025482  0  0  -0.400735  0  3.038639  0  0  -0.358755  -0.38023  0  3.016911  0
N  N62  1  0.15277640  0.37620544  0.91870457  1  0  -0.367098  0  3.273023  0  0  -0.29763  0  3.556642  0  0  -0.315767  0  3.572843  0  0  -0.348931  -0.285232  0  3.545189  0
N  N63  1  0.84722972  0.62379337  0.08129335  1  0  -0.367177  0  3.272858  0  0  -0.297662  0  3.556393  0  0  -0.315799  0  3.572592  0  0  -0.348864  -0.285265  0  3.544944  0
N  N64  1  0.35147806  0.26311139  0.93163946  1  0  -0.067676  0  3.551682  0  0  0.027459  0  3.771638  0  0  0.012702  0  3.797591  0  0  -0.243841  0.03715  0  3.754081  0
N  N65  1  0.64853609  0.73689889  0.06835817  1  0  -0.067625  0  3.551515  0  0  0.027256  0  3.7717  0  0  0.0125  0  3.797654  0  0  -0.24393  0.036949  0  3.754146  0
N  N66  1  0.00548177  0.36296084  0.12423128  1  0  -0.369826  0  3.284889  0  0  -0.298821  0  3.566971  0  0  -0.317042  0  3.5835  0  0  -0.348616  -0.286491  0  3.555286  0
N  N67  1  0.99451361  0.63703239  0.87576422  1  0  -0.369752  0  3.284745  0  0  -0.29877  0  3.56691  0  0  -0.316988  0  3.583435  0  0  -0.348585  -0.286442  0  3.555225  0
N  N68  1  0.08220043  0.30608182  0.30798856  1  0  -0.057349  0  3.563018  0  0  0.039179  0  3.777154  0  0  0.024202  0  3.803633  0  0  -0.243272  0.048984  0  3.759016  0
N  N69  1  0.91779387  0.69391782  0.69201108  1  0  -0.057327  0  3.563103  0  0  0.039235  0  3.777234  0  0  0.024278  0  3.803728  0  0  -0.243205  0.049029  0  3.759085  0
