# generated using pymatgen
data_CoH4C9(NO2)2
_symmetry_space_group_name_H-M   'P 1'
_cell_length_a   5.90601633
_cell_length_b   10.04841762
_cell_length_c   13.36590339
_cell_angle_alpha   96.02774740
_cell_angle_beta   89.99935532
_cell_angle_gamma   90.00050886
_symmetry_Int_Tables_number   1
_chemical_formula_structural   CoH4C9(NO2)2
_chemical_formula_sum   'Co4 H16 C36 N8 O16'
_cell_volume   788.82892912
_cell_formula_units_Z   4
loop_
 _symmetry_equiv_pos_site_id
 _symmetry_equiv_pos_as_xyz
  1  'x, y, z'
loop_
 _atom_site_type_symbol
 _atom_site_label
 _atom_site_symmetry_multiplicity
 _atom_site_fract_x
 _atom_site_fract_y
 _atom_site_fract_z
 _atom_site_occupancy
 _atom_site_hle17_ddec_charge
 _atom_site_hle17_ddec_spin_density
 _atom_site_hle17_ddec_sum_bond_order
 _atom_site_hle17_magmom
 _atom_site_hse06_10hf_ddec_charge
 _atom_site_hse06_10hf_ddec_spin_density
 _atom_site_hse06_10hf_ddec_sum_bond_order
 _atom_site_hse06_10hf_magmom
 _atom_site_hse06_ddec_charge
 _atom_site_hse06_ddec_spin_density
 _atom_site_hse06_ddec_sum_bond_order
 _atom_site_hse06_magmom
 _atom_site_pbe_cm5_charge
 _atom_site_pbe_ddec_charge
 _atom_site_pbe_ddec_spin_density
 _atom_site_pbe_ddec_sum_bond_order
 _atom_site_pbe_magmom
Co  Co0  1  0.22720076  0.75421979  0.17154108  1  1.075331  2.811591  1.820549  2.566  1.047042  2.834403  2.230811  2.637  1.126987  2.878209  2.161093  2.718  0.669971  0.970721  2.788159  2.297689  2.553
Co  Co1  1  0.72719738  0.74578333  0.32846049  1  1.075217  2.811438  1.820718  2.566  1.04708  2.834397  2.230959  2.637  1.127017  2.878206  2.161232  2.718  0.669978  0.970756  2.788155  2.297836  2.553
Co  Co2  1  0.77279854  0.24578017  0.82846014  1  1.075463  2.811689  1.820519  2.566  1.04702  2.834403  2.230832  2.637  1.126964  2.878208  2.161114  2.718  0.669973  0.970686  2.788156  2.297706  2.553
Co  Co3  1  0.27280869  0.25422161  0.67153887  1  1.075032  2.811322  1.820852  2.566  1.047007  2.834386  2.231072  2.637  1.126935  2.878192  2.161352  2.718  0.669972  0.97068  2.788142  2.297947  2.553
H  H4  1  0.13117995  0.36141480  0.07334219  1  0.323572  0.000185  0.917293  0.0  0.302105  0.000266  0.979341  0.0  0.310749  0.000176  0.972892  0.0  0.316881  0.296175  0.000369  0.983498  0.0
H  H5  1  0.63117421  0.13858082  0.42666527  1  0.32359  0.000185  0.917332  0.0  0.302179  0.000266  0.979289  0.0  0.310821  0.000176  0.972844  0.0  0.316882  0.296248  0.000369  0.983447  0.0
H  H6  1  0.86882274  0.63859217  0.92666031  1  0.323504  0.000185  0.917467  0.0  0.302128  0.000266  0.979386  0.0  0.310775  0.000176  0.97293  0.0  0.316878  0.296194  0.000369  0.983543  0.0
H  H7  1  0.36883017  0.86141317  0.57334074  1  0.323586  0.000185  0.917246  0.0  0.302054  0.000266  0.979391  0.0  0.310696  0.000176  0.97295  0.0  0.316885  0.296123  0.000369  0.983548  0.0
H  H8  1  0.34915272  0.41416361  0.91992193  1  0.106279  -0.000332  0.981788  0.0  0.11119  -0.000129  1.047039  0.0  0.114105  -0.000187  1.043255  0.0  0.138357  0.108575  -7.7e-05  1.050917  0.0
H  H9  1  0.84916488  0.08582654  0.58007955  1  0.106273  -0.000332  0.981773  0.0  0.111181  -0.000129  1.04704  0.0  0.114095  -0.000187  1.043257  0.0  0.138369  0.108569  -7.7e-05  1.050917  0.0
H  H10  1  0.65086351  0.58584536  0.08007997  1  0.106253  -0.000331  0.98183  0.0  0.111192  -0.000129  1.047046  0.0  0.114104  -0.000187  1.043261  0.0  0.138387  0.108585  -7.7e-05  1.05091  0.0
H  H11  1  0.15086489  0.91416040  0.41991844  1  0.106204  -0.000331  0.981882  0.0  0.111174  -0.000129  1.047083  0.0  0.11407  -0.000187  1.043298  0.0  0.13839  0.108568  -7.7e-05  1.050948  0.0
H  H12  1  0.18941389  0.17394237  0.22422039  1  0.119989  0.000154  0.951034  0.0  0.128455  0.000135  1.014269  0.0  0.130805  8.1e-05  1.014825  0.0  0.108172  0.126701  0.000202  1.014142  0.0
H  H13  1  0.68938255  0.32605852  0.27578793  1  0.119988  0.000153  0.950949  0.0  0.128458  0.000135  1.014146  0.0  0.130794  8.1e-05  1.014721  0.0  0.108208  0.126704  0.000202  1.01402  0.0
H  H14  1  0.81060912  0.82606761  0.77578459  1  0.120035  0.000153  0.951002  0.0  0.128502  0.000135  1.01424  0.0  0.130821  8.1e-05  1.014832  0.0  0.108235  0.12675  0.000202  1.014108  0.0
H  H15  1  0.31059474  0.67393746  0.72421599  1  0.120045  0.000155  0.951062  0.0  0.128515  0.000135  1.014281  0.0  0.130847  8.1e-05  1.014858  0.0  0.108222  0.126765  0.000202  1.014149  0.0
H  H16  1  0.91165031  0.08223889  0.02866149  1  0.129013  0.000113  0.979162  0.0  0.136737  1.9e-05  1.041528  0.0  0.140952  -7.5e-05  1.037865  0.0  0.111538  0.13375  0.000134  1.04413  0.0
H  H17  1  0.41164032  0.41776993  0.47133357  1  0.129118  0.00011  0.979043  0.0  0.136826  1.9e-05  1.041438  0.0  0.141047  -7.5e-05  1.037762  0.0  0.111574  0.133828  0.000134  1.04407  0.0
H  H18  1  0.08835745  0.91776805  0.97133652  1  0.129067  0.000113  0.979132  0.0  0.136773  1.9e-05  1.04152  0.0  0.140995  -7.5e-05  1.037852  0.0  0.111551  0.133775  0.000134  1.04415  0.0
H  H19  1  0.58835559  0.58223399  0.52866122  1  0.129053  0.00011  0.979191  0.0  0.136766  1.9e-05  1.041562  0.0  0.140983  -7.4e-05  1.037897  0.0  0.111567  0.133769  0.000134  1.044197  0.0
C  C20  1  0.40378737  0.34116465  0.96903039  1  0.299355  0.000336  3.596476  0.001  0.23144  0.002898  3.886317  0.004  0.251774  0.001758  3.894162  0.003  0.174684  0.217171  0.00448  3.881083  0.006
C  C21  1  0.90378323  0.15883373  0.53096769  1  0.299371  0.000329  3.596507  0.001  0.231446  0.002896  3.886386  0.004  0.25178  0.001758  3.894227  0.003  0.174661  0.217175  0.004477  3.88115  0.006
C  C22  1  0.59622716  0.65884933  0.03097264  1  0.299187  0.000328  3.596415  0.001  0.231215  0.002898  3.886351  0.004  0.251552  0.001759  3.894197  0.003  0.174508  0.216943  0.00448  3.88111  0.006
C  C23  1  0.09623131  0.84115720  0.46902911  1  0.299159  0.000317  3.596549  0.001  0.231188  0.002898  3.886489  0.004  0.25155  0.001758  3.894307  0.003  0.174541  0.216915  0.00448  3.881251  0.006
C  C24  1  0.59516526  0.19032156  0.03890895  1  0.157308  0.000657  3.786468  0.001  0.158986  0.00273  4.037127  0.004  0.163177  0.002085  4.059976  0.003  0.09434  0.155622  0.003256  4.021141  0.004
C  C25  1  0.09515727  0.30968288  0.46109638  1  0.157261  0.000633  3.786605  0.001  0.15893  0.002729  4.037248  0.004  0.163114  0.002085  4.060102  0.003  0.094348  0.155567  0.003255  4.021257  0.004
C  C26  1  0.40483404  0.80968841  0.96109303  1  0.15736  0.000665  3.786295  0.001  0.159073  0.00273  4.036856  0.004  0.163269  0.002086  4.059706  0.003  0.094416  0.155708  0.003256  4.020868  0.004
C  C27  1  0.90482849  0.69032108  0.53890590  1  0.157303  0.00063  3.786371  0.001  0.158951  0.00273  4.037061  0.004  0.163136  0.002084  4.059918  0.003  0.094363  0.155589  0.003256  4.021076  0.004
C  C28  1  0.39547008  0.21809896  0.09657239  1  0.165041  0.00282  3.763726  0.004  0.154941  0.002368  4.008541  0.003  0.160161  0.001628  4.029422  0.002  0.103634  0.15162  0.003025  3.994598  0.004
C  C29  1  0.89547387  0.28190386  0.40343577  1  0.165241  0.002828  3.763962  0.004  0.155177  0.002367  4.00872  0.003  0.160401  0.001628  4.029588  0.002  0.103747  0.151857  0.003024  3.994776  0.004
C  C30  1  0.60452752  0.78191002  0.90343251  1  0.164986  0.002816  3.763895  0.004  0.154948  0.002367  4.008597  0.003  0.160161  0.001627  4.029484  0.002  0.103654  0.151628  0.003024  3.99465  0.004
C  C31  1  0.10452204  0.71809311  0.59656822  1  0.165113  0.002832  3.763555  0.004  0.155099  0.002368  4.00828  0.003  0.160318  0.001628  4.029158  0.002  0.103703  0.151778  0.003025  3.994338  0.004
C  C32  1  0.34493872  0.15354028  0.18149589  1  -0.144894  0.001086  3.697786  0.001  -0.173848  0.001  3.954895  0.001  -0.176307  0.000424  3.974172  0.001  -0.083881  -0.172364  0.001688  3.941786  0.002
C  C33  1  0.84492188  0.34644732  0.31851362  1  -0.144915  0.001076  3.697767  0.001  -0.173883  0.001  3.954882  0.001  -0.176325  0.000423  3.974163  0.001  -0.083965  -0.172402  0.001688  3.941771  0.002
C  C34  1  0.65506566  0.84645868  0.81850526  1  -0.14486  0.00109  3.697738  0.001  -0.173833  0.001001  3.954818  0.001  -0.176264  0.000425  3.97411  0.001  -0.083875  -0.172347  0.001689  3.941706  0.002
C  C35  1  0.15506388  0.65354169  0.68149650  1  -0.144978  0.001064  3.697791  0.001  -0.174005  0.001  3.954881  0.001  -0.176439  0.000424  3.974164  0.001  -0.083948  -0.172528  0.001688  3.941772  0.002
C  C36  1  0.50008793  0.05871353  0.20811111  1  -0.075832  0.002092  3.760988  0.003  -0.068408  0.00132  4.008209  0.002  -0.073187  0.00074  4.02959  0.001  -0.016825  -0.064499  0.002114  3.993495  0.003
C  C37  1  0.00006241  0.44128651  0.29189886  1  -0.075743  0.002108  3.760897  0.003  -0.068254  0.00132  4.00808  0.002  -0.073028  0.00074  4.029456  0.001  -0.016724  -0.064338  0.002114  3.993358  0.003
C  C38  1  0.49991306  0.94128842  0.79188877  1  -0.075955  0.002091  3.760968  0.003  -0.068536  0.00132  4.008243  0.002  -0.07331  0.000739  4.029612  0.001  -0.016906  -0.064628  0.002114  3.993532  0.003
C  C39  1  0.99993350  0.55870148  0.70810745  1  -0.075794  0.002114  3.761214  0.003  -0.068251  0.00132  4.008273  0.002  -0.073043  0.000741  4.029659  0.001  -0.01675  -0.064333  0.002113  3.993555  0.003
C  C40  1  0.70501843  0.03450359  0.15367106  1  -0.090883  0.004024  3.764176  0.006  -0.081595  0.002272  4.008001  0.003  -0.091353  0.001424  4.032219  0.002  -0.023983  -0.074971  0.003208  3.9926  0.004
C  C41  1  0.20499363  0.46550737  0.34633643  1  -0.091117  0.004004  3.764375  0.006  -0.081853  0.002272  4.008274  0.003  -0.091637  0.001423  4.032529  0.002  -0.023998  -0.07523  0.003208  3.992873  0.004
C  C42  1  0.29498594  0.96550737  0.84633024  1  -0.090933  0.004028  3.764313  0.006  -0.081664  0.002272  4.008198  0.003  -0.091435  0.001424  4.032438  0.002  -0.023969  -0.075037  0.003208  3.992795  0.004
C  C43  1  0.79500059  0.53449360  0.65366561  1  -0.091022  0.004006  3.763967  0.006  -0.08182  0.002273  4.007861  0.003  -0.091589  0.001424  4.032101  0.002  -0.024043  -0.075195  0.003209  3.99246  0.004
C  C44  1  0.75340961  0.09986668  0.06909698  1  -0.115175  0.000847  3.674644  0.001  -0.149303  0.000623  3.929124  0.001  -0.147833  0.0001  3.945116  0.0  -0.078511  -0.15064  0.001468  3.918973  0.002
C  C45  1  0.25339866  0.40013745  0.43090377  1  -0.115208  0.000873  3.674683  0.001  -0.149345  0.000623  3.929223  0.001  -0.14787  0.000102  3.945224  0.0  -0.078621  -0.150682  0.001469  3.919066  0.002
C  C46  1  0.24659646  0.90014527  0.93090215  1  -0.115152  0.00084  3.674668  0.001  -0.149299  0.000622  3.929177  0.001  -0.147816  9.9e-05  3.945139  0.0  -0.078563  -0.150645  0.001467  3.919035  0.002
C  C47  1  0.74659556  0.59985949  0.56909424  1  -0.11514  0.000875  3.674592  0.001  -0.149259  0.000623  3.929127  0.001  -0.147785  0.000101  3.945128  0.0  -0.078552  -0.150603  0.001469  3.918973  0.002
C  C48  1  0.44868020  0.98098655  0.29498113  1  0.680744  -0.000831  3.82439  0.0  0.629029  0.004341  4.133339  0.005  0.666821  0.002471  4.121127  0.004  0.227776  0.601845  0.006914  4.139734  0.008
C  C49  1  0.94866287  0.51901258  0.20502050  1  0.680594  -0.000843  3.824568  0.0  0.628814  0.00434  4.13359  0.005  0.66661  0.002471  4.121383  0.004  0.227698  0.60163  0.006913  4.139979  0.008
C  C50  1  0.55131909  0.01901140  0.70501770  1  0.680716  -0.000831  3.824652  0.0  0.628997  0.00434  4.133572  0.005  0.666791  0.002469  4.12136  0.004  0.227797  0.601814  0.006912  4.139963  0.008
C  C51  1  0.05132796  0.48097027  0.79496522  1  0.680764  -0.000844  3.823956  0.0  0.62909  0.004339  4.13283  0.005  0.666895  0.00247  4.120622  0.004  0.227912  0.601898  0.006913  4.139219  0.008
C  C52  1  0.87824994  0.94462627  0.19154526  1  0.65362  -0.005023  3.879284  -0.003  0.610221  0.005758  4.173389  0.006  0.649467  0.004543  4.163582  0.005  0.2098  0.581304  0.006537  4.17926  0.007
C  C53  1  0.37823507  0.55537752  0.30845259  1  0.653687  -0.005017  3.879069  -0.003  0.610236  0.005758  4.173324  0.006  0.649487  0.004544  4.163516  0.005  0.20972  0.58132  0.006537  4.179192  0.007
C  C54  1  0.12175105  0.05536966  0.80845042  1  0.653721  -0.005025  3.879347  -0.003  0.610305  0.005757  4.173494  0.006  0.649553  0.004541  4.163683  0.005  0.209898  0.58139  0.006535  4.17936  0.007
C  C55  1  0.62175068  0.44462342  0.69154497  1  0.653726  -0.005024  3.878878  -0.003  0.610342  0.005759  4.172991  0.006  0.649593  0.004545  4.163179  0.005  0.209884  0.581427  0.006538  4.178855  0.007
N  N56  1  0.59372717  0.26866409  0.95840912  1  -0.443505  0.041247  3.187366  0.067  -0.412774  0.0292  3.511071  0.04  -0.443734  0.021913  3.521743  0.03  -0.354159  -0.386139  0.036367  3.501841  0.049
N  N57  1  0.09372324  0.23133588  0.54158843  1  -0.443448  0.04125  3.187397  0.067  -0.412746  0.029201  3.511131  0.04  -0.4437  0.021911  3.521804  0.03  -0.354127  -0.386104  0.036367  3.50189  0.049
N  N58  1  0.40627721  0.73133989  0.04159390  1  -0.443487  0.041249  3.18721  0.067  -0.412778  0.0292  3.510928  0.04  -0.443743  0.021912  3.521604  0.03  -0.354135  -0.386134  0.036367  3.501677  0.049
N  N59  1  0.90627944  0.76866203  0.45840441  1  -0.443445  0.041253  3.187208  0.067  -0.412773  0.029199  3.511039  0.04  -0.443729  0.021912  3.521702  0.03  -0.354155  -0.386125  0.036364  3.501779  0.049
N  N60  1  0.28080188  0.31362279  0.04950195  1  -0.315234  0.004687  3.35213  0.008  -0.250307  0.003769  3.584296  0.006  -0.26934  0.002495  3.595814  0.004  -0.361913  -0.237273  0.005244  3.576389  0.008
N  N61  1  0.78080475  0.18637545  0.45049672  1  -0.315339  0.004686  3.352236  0.008  -0.250446  0.003768  3.584358  0.006  -0.269481  0.002494  3.595872  0.004  -0.361941  -0.23741  0.005242  3.576451  0.008
N  N62  1  0.71921096  0.68638515  0.95049538  1  -0.315047  0.004688  3.352012  0.008  -0.25017  0.003769  3.584089  0.006  -0.269205  0.002495  3.595614  0.004  -0.361874  -0.237131  0.005244  3.576178  0.008
N  N63  1  0.21920471  0.81361549  0.54950233  1  -0.315095  0.004689  3.352098  0.008  -0.250132  0.003769  3.584314  0.006  -0.269164  0.002495  3.595831  0.004  -0.361885  -0.237096  0.005244  3.576405  0.008
O  O64  1  0.43936350  0.84862509  0.27682441  1  -0.714436  0.063496  2.187038  0.106  -0.6892  0.051012  2.51672  0.073  -0.735449  0.038634  2.499586  0.053  -0.332084  -0.646081  0.064586  2.524869  0.094
O  O65  1  0.93933926  0.65138198  0.22317487  1  -0.714405  0.063518  2.1871  0.106  -0.689146  0.051025  2.516704  0.073  -0.735397  0.038643  2.49957  0.054  -0.332114  -0.646038  0.064604  2.524891  0.095
O  O66  1  0.56064427  0.15137484  0.72317307  1  -0.714461  0.063512  2.187048  0.106  -0.689195  0.051021  2.516659  0.073  -0.735446  0.038641  2.499528  0.054  -0.33214  -0.646075  0.0646  2.524826  0.095
O  O67  1  0.06064310  0.34861093  0.77681834  1  -0.714338  0.063495  2.187236  0.106  -0.689088  0.051011  2.516793  0.073  -0.735333  0.038633  2.499657  0.053  -0.332132  -0.645994  0.064584  2.525  0.094
O  O68  1  0.41149973  0.03981300  0.37993206  1  -0.543191  0.012158  1.961792  0.022  -0.497071  0.009634  2.18066  0.018  -0.520369  0.006576  2.171549  0.013  -0.2784  -0.479829  0.013492  2.186072  0.024
O  O69  1  0.91146411  0.46019187  0.12007093  1  -0.543167  0.012163  1.961967  0.022  -0.496951  0.009635  2.180808  0.018  -0.520259  0.006576  2.171705  0.013  -0.27832  -0.479697  0.013493  2.18618  0.024
O  O70  1  0.58849956  0.96019996  0.62006864  1  -0.543152  0.012156  1.962073  0.022  -0.496958  0.009633  2.180932  0.018  -0.520261  0.006575  2.171821  0.013  -0.278358  -0.479716  0.013491  2.186345  0.024
O  O71  1  0.08851317  0.53980410  0.87993149  1  -0.543316  0.01217  1.96091  0.022  -0.49725  0.009641  2.179773  0.018  -0.520558  0.006581  2.170664  0.013  -0.278498  -0.480001  0.013501  2.185184  0.024
O  O72  1  0.87867534  0.92529564  0.28427030  1  -0.651906  0.012607  2.075375  0.027  -0.612435  0.011224  2.343478  0.02  -0.64451  0.007958  2.331061  0.015  -0.317222  -0.58678  0.014031  2.35148  0.023
O  O73  1  0.37864781  0.57470613  0.21572515  1  -0.651788  0.012604  2.075201  0.027  -0.612357  0.011221  2.343353  0.02  -0.64443  0.007955  2.330928  0.015  -0.317203  -0.5867  0.014028  2.351355  0.023
O  O74  1  0.12134089  0.07469929  0.71572680  1  -0.651873  0.012605  2.075416  0.027  -0.612381  0.011221  2.343534  0.02  -0.644455  0.007956  2.331113  0.015  -0.317234  -0.586722  0.014028  2.351537  0.023
O  O75  1  0.62134302  0.42529679  0.78427105  1  -0.651914  0.012605  2.075333  0.027  -0.612425  0.011224  2.343414  0.02  -0.644501  0.007958  2.331  0.015  -0.317288  -0.586762  0.014031  2.351412  0.023
O  O76  1  0.02368784  0.89252099  0.12793396  1  -0.615135  0.048171  2.133164  0.087  -0.575244  0.03716  2.410533  0.059  -0.612951  0.02905  2.398477  0.046  -0.308174  -0.544947  0.044804  2.418922  0.071
O  O77  1  0.52367113  0.60747919  0.37206618  1  -0.615202  0.048164  2.133162  0.087  -0.575221  0.037158  2.410449  0.059  -0.612924  0.029049  2.398386  0.046  -0.308127  -0.544927  0.044801  2.418841  0.071
O  O78  1  0.97630637  0.10746692  0.87206037  1  -0.615174  0.048168  2.133145  0.087  -0.575311  0.037158  2.410571  0.059  -0.613014  0.029049  2.398511  0.046  -0.308267  -0.545008  0.044802  2.418956  0.071
O  O79  1  0.47631124  0.39251277  0.62793593  1  -0.615209  0.048179  2.133219  0.087  -0.575297  0.037166  2.410526  0.059  -0.613  0.029055  2.39846  0.046  -0.30821  -0.544993  0.044811  2.418914  0.071
