# generated using pymatgen
data_ZnPH11C3N2Cl2O3
_symmetry_space_group_name_H-M   'P 1'
_cell_length_a   8.22569621
_cell_length_b   8.34128064
_cell_length_c   15.06725782
_cell_angle_alpha   102.84177633
_cell_angle_beta   89.99987844
_cell_angle_gamma   90.00008383
_symmetry_Int_Tables_number   1
_chemical_formula_structural   ZnPH11C3N2Cl2O3
_chemical_formula_sum   'Zn4 P4 H44 C12 N8 Cl8 O12'
_cell_volume   1007.94931014
_cell_formula_units_Z   4
loop_
 _symmetry_equiv_pos_site_id
 _symmetry_equiv_pos_as_xyz
  1  'x, y, z'
loop_
 _atom_site_type_symbol
 _atom_site_label
 _atom_site_symmetry_multiplicity
 _atom_site_fract_x
 _atom_site_fract_y
 _atom_site_fract_z
 _atom_site_occupancy
 _atom_site_hle17_bader_spin_density
 _atom_site_hle17_ddec_charge
 _atom_site_hle17_ddec_spin_density
 _atom_site_hle17_ddec_sum_bond_order
 _atom_site_hle17_magmom
 _atom_site_hse06_10hf_bader_spin_density
 _atom_site_hse06_10hf_ddec_charge
 _atom_site_hse06_10hf_ddec_spin_density
 _atom_site_hse06_10hf_ddec_sum_bond_order
 _atom_site_hse06_10hf_magmom
 _atom_site_hse06_bader_spin_density
 _atom_site_hse06_ddec_charge
 _atom_site_hse06_ddec_spin_density
 _atom_site_hse06_ddec_sum_bond_order
 _atom_site_hse06_magmom
 _atom_site_pbe_bader_spin_density
 _atom_site_pbe_cm5_charge
 _atom_site_pbe_ddec_charge
 _atom_site_pbe_ddec_spin_density
 _atom_site_pbe_ddec_sum_bond_order
 _atom_site_pbe_magmom
Zn  Zn0  1  0.84319426  0.29773044  0.74769669  1  0  1.054671  0  2.016769  0  0  0.895121  0  2.524264  0  0  0.936465  0  2.465272  0  0  0.558034  0.866146  0  2.564864  0
Zn  Zn1  1  0.34319432  0.70227077  0.75230323  1  0  1.054707  0  2.016723  0  0  0.895157  0  2.524217  0  0  0.936497  0  2.465226  0  0  0.558038  0.866179  0  2.564818  0
Zn  Zn2  1  0.15680621  0.70226963  0.25230377  1  0  1.054663  0  2.016772  0  0  0.895115  0  2.524266  0  0  0.936458  0  2.465272  0  0  0.558021  0.866133  0  2.564862  0
Zn  Zn3  1  0.65680615  0.29773054  0.24769672  1  0  1.054697  0  2.016738  0  0  0.895161  0  2.524223  0  0  0.936502  0  2.465229  0  0  0.558037  0.866181  0  2.564821  0
P  P4  1  0.53788422  0.40033344  0.63821573  1  0  1.47488  0  4.89098  0  0  1.3156  0  5.393868  0  0  1.365266  0  5.355652  0  0  0.335301  1.280973  0  5.419711  0
P  P5  1  0.03788249  0.59966746  0.86178385  1  0  1.474881  0  4.891006  0  0  1.315588  0  5.393888  0  0  1.365265  0  5.355686  0  0  0.335291  1.28096  0  5.41973  0
P  P6  1  0.46211746  0.59966664  0.36178407  1  0  1.47492  0  4.89091  0  0  1.315654  0  5.393777  0  0  1.365316  0  5.355568  0  0  0.335315  1.281026  0  5.41962  0
P  P7  1  0.96211677  0.40033385  0.13821611  1  0  1.474907  0  4.890978  0  0  1.315641  0  5.393859  0  0  1.365303  0  5.355648  0  0  0.335299  1.281012  0  5.419701  0
H  H8  1  0.56246343  0.19396526  0.49455505  1  0  0.129677  0  0.961659  0  0  0.140705  0  1.023476  0  0  0.143076  0  1.022749  0  0  0.106318  0.138951  0  1.024114  0
H  H9  1  0.06246460  0.80603360  0.00544406  1  0  0.12967  0  0.961638  0  0  0.140681  0  1.023464  0  0  0.14306  0  1.022738  0  0  0.106308  0.138926  0  1.024102  0
H  H10  1  0.43753705  0.80603359  0.50544460  1  0  0.129689  0  0.961661  0  0  0.140718  0  1.023473  0  0  0.143088  0  1.022746  0  0  0.106323  0.138963  0  1.02411  0
H  H11  1  0.93753587  0.19396648  0.99455508  1  0  0.129679  0  0.961664  0  0  0.140705  0  1.023486  0  0  0.143075  0  1.022756  0  0  0.106316  0.13895  0  1.024124  0
H  H12  1  0.43840928  0.12614873  0.57729302  1  0  0.123521  0  0.95221  0  0  0.133244  0  1.018248  0  0  0.135273  0  1.018191  0  0  0.108122  0.131712  0  1.018456  0
H  H13  1  0.93841061  0.87385258  0.92270615  1  0  0.123518  0  0.952232  0  0  0.133225  0  1.018274  0  0  0.135262  0  1.01822  0  0  0.108113  0.131692  0  1.018484  0
H  H14  1  0.56158998  0.87385135  0.42270678  1  0  0.123532  0  0.952209  0  0  0.133254  0  1.018243  0  0  0.135283  0  1.018185  0  0  0.108127  0.131722  0  1.018451  0
H  H15  1  0.06158987  0.12614873  0.07729314  1  0  0.123536  0  0.952204  0  0  0.133259  0  1.018241  0  0  0.135287  0  1.018181  0  0  0.108129  0.131726  0  1.018449  0
H  H16  1  0.23530204  0.32133705  0.55356404  1  0  0.297227  0  0.865269  0  0  0.282606  0  0.922292  0  0  0.289595  0  0.917194  0  0  0.301941  0.277579  0  0.926092  0
H  H17  1  0.73530177  0.67866527  0.94643682  1  0  0.297194  0  0.86529  0  0  0.282588  0  0.922307  0  0  0.289578  0  0.917203  0  0  0.301928  0.277562  0  0.926108  0
H  H18  1  0.76469843  0.67866426  0.44643592  1  0  0.297169  0  0.865313  0  0  0.28257  0  0.922321  0  0  0.289558  0  0.917222  0  0  0.301911  0.277544  0  0.926121  0
H  H19  1  0.26469749  0.32133604  0.05356313  1  0  0.297175  0  0.865286  0  0  0.282579  0  0.9223  0  0  0.289567  0  0.917198  0  0  0.301927  0.277552  0  0.926101  0
H  H20  1  0.34297945  0.36954059  0.46642024  1  0  0.319801  0  0.898013  0  0  0.299812  0  0.956923  0  0  0.308334  0  0.950952  0  0  0.306594  0.293804  0  0.9611  0
H  H21  1  0.84297950  0.63046101  0.03357955  1  0  0.319765  0  0.898019  0  0  0.299843  0  0.956841  0  0  0.308359  0  0.950872  0  0  0.306589  0.293835  0  0.961018  0
H  H22  1  0.65702102  0.63045950  0.53357890  1  0  0.319759  0  0.898043  0  0  0.299777  0  0.956953  0  0  0.308297  0  0.950984  0  0  0.306587  0.293771  0  0.961131  0
H  H23  1  0.15702097  0.36954030  0.96642041  1  0  0.319706  0  0.898092  0  0  0.299791  0  0.956883  0  0  0.308322  0  0.950912  0  0  0.306575  0.293784  0  0.961062  0
H  H24  1  0.33618969  0.07477982  0.38934375  1  0  0.088622  0  0.927545  0  0  0.10275  0  0.990801  0  0  0.103652  0  0.990909  0  0  0.110024  0.101964  0  0.99093  0
H  H25  1  0.83618987  0.92521930  0.11065839  1  0  0.088621  0  0.927483  0  0  0.102779  0  0.990697  0  0  0.10368  0  0.99081  0  0  0.110038  0.101993  0  0.990828  0
H  H26  1  0.66380835  0.92522026  0.61065605  1  0  0.088633  0  0.927493  0  0  0.102807  0  0.990706  0  0  0.10371  0  0.990814  0  0  0.110049  0.102019  0  0.990836  0
H  H27  1  0.16381060  0.07477954  0.88934324  1  0  0.088627  0  0.927539  0  0  0.102751  0  0.990783  0  0  0.103653  0  0.990893  0  0  0.11002  0.101964  0  0.990914  0
H  H28  1  0.20590508  0.04257634  0.47863608  1  0  0.095672  0  0.918721  0  0  0.107677  0  0.981725  0  0  0.108767  0  0.981835  0  0  0.111115  0.106804  0  0.981773  0
H  H29  1  0.70590566  0.95742510  0.02136651  1  0  0.095712  0  0.918726  0  0  0.107705  0  0.981742  0  0  0.108795  0  0.981852  0  0  0.111134  0.106833  0  0.981788  0
H  H30  1  0.79409418  0.95742374  0.52136372  1  0  0.095689  0  0.918716  0  0  0.107695  0  0.981733  0  0  0.108784  0  0.981842  0  0  0.111117  0.106821  0  0.981779  0
H  H31  1  0.29409603  0.04257743  0.97863493  1  0  0.095692  0  0.918735  0  0  0.107688  0  0.981741  0  0  0.108778  0  0.98185  0  0  0.111124  0.106815  0  0.981788  0
H  H32  1  0.02051920  0.27218093  0.43683136  1  0  0.088489  0  0.904345  0  0  0.104819  0  0.959569  0  0  0.106011  0  0.959053  0  0  0.113665  0.103854  0  0.960085  0
H  H33  1  0.52051928  0.72781665  0.06316897  1  0  0.088502  0  0.90429  0  0  0.104839  0  0.959504  0  0  0.106031  0  0.958989  0  0  0.113667  0.103874  0  0.960021  0
H  H34  1  0.97948006  0.72781915  0.56316844  1  0  0.088503  0  0.904328  0  0  0.104833  0  0.959553  0  0  0.106025  0  0.959036  0  0  0.11367  0.103867  0  0.960069  0
H  H35  1  0.47948120  0.27218344  0.93683017  1  0  0.088516  0  0.90431  0  0  0.10485  0  0.959537  0  0  0.106043  0  0.95902  0  0  0.113672  0.103884  0  0.960055  0
H  H36  1  0.01835888  0.07199601  0.36628024  1  0  0.083539  0  0.967677  0  0  0.091311  0  1.042411  0  0  0.092318  0  1.042646  0  0  0.098266  0.090458  0  1.042405  0
H  H37  1  0.51835898  0.92800279  0.13372157  1  0  0.08358  0  0.96765  0  0  0.091345  0  1.042404  0  0  0.092359  0  1.042632  0  0  0.098293  0.090492  0  1.042398  0
H  H38  1  0.98164038  0.92800407  0.63372023  1  0  0.083538  0  0.967683  0  0  0.091302  0  1.04243  0  0  0.092307  0  1.042669  0  0  0.098259  0.090449  0  1.042424  0
H  H39  1  0.48164027  0.07199729  0.86627890  1  0  0.083573  0  0.967651  0  0  0.09134  0  1.042404  0  0  0.092345  0  1.042641  0  0  0.09828  0.090487  0  1.042398  0
H  H40  1  0.19710511  0.15825606  0.26233714  1  0  0.31432  0  0.878551  0  0  0.295761  0  0.944232  0  0  0.302411  0  0.939544  0  0  0.292609  0.291  0  0.947714  0
H  H41  1  0.69710590  0.84174170  0.23766301  1  0  0.314332  0  0.878523  0  0  0.295744  0  0.944222  0  0  0.302393  0  0.939535  0  0  0.292615  0.290984  0  0.947702  0
H  H42  1  0.80289414  0.84174279  0.73766317  1  0  0.314314  0  0.878543  0  0  0.295731  0  0.94424  0  0  0.302379  0  0.939555  0  0  0.292602  0.29097  0  0.947722  0
H  H43  1  0.30289458  0.15825838  0.76233679  1  0  0.314319  0  0.878538  0  0  0.295729  0  0.944239  0  0  0.302377  0  0.939554  0  0  0.292611  0.290967  0  0.947721  0
H  H44  1  0.03583007  0.28155435  0.27779274  1  0  0.343468  0  0.890622  0  0  0.322247  0  0.95023  0  0  0.330683  0  0.944084  0  0  0.306489  0.316308  0  0.954584  0
H  H45  1  0.53583073  0.71844447  0.22220838  1  0  0.343451  0  0.89063  0  0  0.322197  0  0.950277  0  0  0.33063  0  0.944135  0  0  0.306489  0.316258  0  0.954628  0
H  H46  1  0.96416919  0.71844573  0.72220772  1  0  0.343473  0  0.890604  0  0  0.322221  0  0.950252  0  0  0.330654  0  0.944111  0  0  0.306497  0.316281  0  0.954607  0
H  H47  1  0.46416974  0.28155561  0.77779142  1  0  0.343467  0  0.890556  0  0  0.322216  0  0.950195  0  0  0.33065  0  0.944055  0  0  0.306502  0.316278  0  0.954545  0
H  H48  1  0.21679950  0.35123266  0.33042461  1  0  0.340927  0  0.888732  0  0  0.319491  0  0.950393  0  0  0.327719  0  0.944081  0  0  0.305082  0.313697  0  0.954818  0
H  H49  1  0.71679784  0.64876634  0.16957633  1  0  0.341004  0  0.888709  0  0  0.319533  0  0.950404  0  0  0.327762  0  0.944089  0  0  0.305112  0.313741  0  0.954819  0
H  H50  1  0.78320097  0.64876619  0.66957504  1  0  0.341007  0  0.888693  0  0  0.319539  0  0.950389  0  0  0.327766  0  0.944074  0  0  0.305113  0.313745  0  0.954805  0
H  H51  1  0.28320142  0.35123374  0.83042347  1  0  0.340991  0  0.888676  0  0  0.319513  0  0.950393  0  0  0.327742  0  0.944077  0  0  0.305094  0.313719  0  0.954808  0
C  C52  1  0.46829625  0.23031900  0.54670323  1  0  -0.299011  0  3.530584  0  0  -0.338184  0  3.778497  0  0  -0.343029  0  3.785121  0  0  -0.077998  -0.334745  0  3.774175  0
C  C53  1  0.96829608  0.76968111  0.95329642  1  0  -0.299077  0  3.530608  0  0  -0.338178  0  3.778448  0  0  -0.343062  0  3.785121  0  0  -0.077968  -0.334739  0  3.774127  0
C  C54  1  0.53170423  0.76968108  0.45329724  1  0  -0.299091  0  3.530591  0  0  -0.338253  0  3.778498  0  0  -0.343097  0  3.78512  0  0  -0.078005  -0.334815  0  3.77418  0
C  C55  1  0.03170439  0.23031897  0.04670272  1  0  -0.299104  0  3.530588  0  0  -0.338261  0  3.778491  0  0  -0.343098  0  3.785106  0  0  -0.078001  -0.334822  0  3.774171  0
C  C56  1  0.24236292  0.13111331  0.43839659  1  0  -0.002859  0  3.531841  0  0  -0.062835  0  3.791992  0  0  -0.060119  0  3.803451  0  0  -0.06295  -0.064569  0  3.784236  0
C  C57  1  0.74236443  0.86888572  0.06160432  1  0  -0.002978  0  3.531718  0  0  -0.062955  0  3.791878  0  0  -0.060241  0  3.803332  0  0  -0.062997  -0.064689  0  3.784126  0
C  C58  1  0.75763633  0.86888554  0.56160305  1  0  -0.002981  0  3.531714  0  0  -0.062993  0  3.791893  0  0  -0.060281  0  3.803351  0  0  -0.062988  -0.06472  0  3.784129  0
C  C59  1  0.25763482  0.13111435  0.93839681  1  0  -0.002936  0  3.531761  0  0  -0.062853  0  3.791861  0  0  -0.060144  0  3.803324  0  0  -0.062954  -0.064585  0  3.784107  0
C  C60  1  0.09456888  0.18072591  0.39046627  1  0  0.043448  0  3.560706  0  0  -0.017812  0  3.823781  0  0  -0.014694  0  3.834502  0  0  -0.063665  -0.019748  0  3.816485  0
C  C61  1  0.59457134  0.81927297  0.10953480  1  0  0.043419  0  3.560667  0  0  -0.017861  0  3.823722  0  0  -0.014746  0  3.834434  0  0  -0.063687  -0.019792  0  3.816408  0
C  C62  1  0.90543038  0.81927540  0.60953369  1  0  0.043463  0  3.560698  0  0  -0.017795  0  3.823767  0  0  -0.014677  0  3.834487  0  0  -0.063657  -0.019731  0  3.816464  0
C  C63  1  0.40542791  0.18072588  0.89046618  1  0  0.043394  0  3.560693  0  0  -0.017906  0  3.823783  0  0  -0.014786  0  3.8345  0  0  -0.063679  -0.019837  0  3.816469  0
N  N64  1  0.31849993  0.27479579  0.50229380  1  0  -0.251791  0  3.340881  0  0  -0.18503  0  3.549965  0  0  -0.198695  0  3.560781  0  0  -0.475742  -0.175669  0  3.542659  0
N  N65  1  0.81850074  0.72520417  0.99770600  1  0  -0.251595  0  3.340748  0  0  -0.184914  0  3.549783  0  0  -0.198562  0  3.560611  0  0  -0.475714  -0.175554  0  3.542477  0
N  N66  1  0.68149933  0.72520307  0.49770519  1  0  -0.251575  0  3.340765  0  0  -0.184856  0  3.549877  0  0  -0.198512  0  3.560691  0  0  -0.475707  -0.175501  0  3.542571  0
N  N67  1  0.18149851  0.27479592  0.00229313  1  0  -0.251529  0  3.340775  0  0  -0.184861  0  3.549825  0  0  -0.198526  0  3.560639  0  0  -0.475722  -0.175504  0  3.542519  0
N  N68  1  0.14009836  0.24864765  0.31064113  1  0  -0.502304  0  3.191496  0  0  -0.450603  0  3.394672  0  0  -0.466357  0  3.393544  0  0  -0.615216  -0.439857  0  3.395687  0
N  N69  1  0.64009798  0.75134881  0.18936025  1  0  -0.502399  0  3.191504  0  0  -0.450613  0  3.394739  0  0  -0.466367  0  3.393612  0  0  -0.615256  -0.439863  0  3.395758  0
N  N70  1  0.85990211  0.75135119  0.68935918  1  0  -0.502386  0  3.191462  0  0  -0.450607  0  3.394689  0  0  -0.466358  0  3.393564  0  0  -0.615244  -0.439857  0  3.395711  0
N  N71  1  0.35990127  0.24865004  0.81064006  1  0  -0.502385  0  3.191392  0  0  -0.45058  0  3.394618  0  0  -0.466333  0  3.39349  0  0  -0.615244  -0.439827  0  3.395635  0
Cl  Cl72  1  0.83579519  0.10089297  0.83064348  1  0  -0.591519  0  0.914421  0  0  -0.528636  0  1.183414  0  0  -0.543741  0  1.158059  0  0  -0.294279  -0.517779  0  1.200961  0
Cl  Cl73  1  0.33579343  0.89910823  0.66935579  1  0  -0.591525  0  0.914442  0  0  -0.528648  0  1.183449  0  0  -0.543754  0  1.158096  0  0  -0.294275  -0.517792  0  1.200997  0
Cl  Cl74  1  0.16420407  0.89911079  0.16935810  1  0  -0.591519  0  0.91444  0  0  -0.528633  0  1.183424  0  0  -0.543738  0  1.15807  0  0  -0.294283  -0.517776  0  1.20097  0
Cl  Cl75  1  0.66420339  0.10089062  0.33064319  1  0  -0.59153  0  0.914407  0  0  -0.528649  0  1.183396  0  0  -0.543754  0  1.158043  0  0  -0.294295  -0.517792  0  1.200942  0
Cl  Cl76  1  0.01334980  0.23965739  0.62788834  1  0  -0.596342  0  0.919086  0  0  -0.537973  0  1.190703  0  0  -0.552509  0  1.164629  0  0  -0.310793  -0.527522  0  1.208668  0
Cl  Cl77  1  0.51334873  0.76034102  0.87211228  1  0  -0.596358  0  0.919067  0  0  -0.537988  0  1.190678  0  0  -0.552528  0  1.16461  0  0  -0.310802  -0.527539  0  1.208645  0
Cl  Cl78  1  0.98665067  0.76034146  0.37211263  1  0  -0.59633  0  0.919083  0  0  -0.537974  0  1.190706  0  0  -0.552511  0  1.164635  0  0  -0.310793  -0.527521  0  1.208669  0
Cl  Cl79  1  0.48664810  0.23965659  0.12788920  1  0  -0.596338  0  0.919056  0  0  -0.537993  0  1.190691  0  0  -0.552529  0  1.164619  0  0  -0.310798  -0.527543  0  1.208656  0
O  O80  1  0.65794351  0.50850589  0.60138665  1  0  -0.841787  0  1.957893  0  0  -0.766203  0  2.197523  0  0  -0.79034  0  2.178451  0  0  -0.379551  -0.749135  0  2.210226  0
O  O81  1  0.15794026  0.49149268  0.89861117  1  0  -0.84176  0  1.957946  0  0  -0.766204  0  2.197568  0  0  -0.790348  0  2.178495  0  0  -0.379532  -0.749137  0  2.210272  0
O  O82  1  0.34205939  0.49149174  0.39861152  1  0  -0.84175  0  1.957894  0  0  -0.766183  0  2.197523  0  0  -0.790317  0  2.17845  0  0  -0.379522  -0.749112  0  2.210224  0
O  O83  1  0.84205899  0.50850863  0.10138812  1  0  -0.841772  0  1.957904  0  0  -0.766222  0  2.197526  0  0  -0.790355  0  2.178452  0  0  -0.379529  -0.749154  0  2.210229  0
O  O84  1  0.61526471  0.31296289  0.70840095  1  0  -0.855486  0  2.083792  0  0  -0.757073  0  2.368183  0  0  -0.785935  0  2.345504  0  0  -0.382146  -0.736782  0  2.38333  0
O  O85  1  0.11526338  0.68703686  0.79159839  1  0  -0.855549  0  2.083788  0  0  -0.757138  0  2.368181  0  0  -0.785993  0  2.345494  0  0  -0.382183  -0.736838  0  2.383317  0
O  O86  1  0.38473698  0.68703719  0.29159885  1  0  -0.855534  0  2.083797  0  0  -0.757124  0  2.368186  0  0  -0.785981  0  2.345504  0  0  -0.382168  -0.736828  0  2.38333  0
O  O87  1  0.88473588  0.31296446  0.20840156  1  0  -0.855552  0  2.083814  0  0  -0.757157  0  2.368205  0  0  -0.786015  0  2.345522  0  0  -0.38217  -0.736862  0  2.383347  0
O  O88  1  0.87711845  0.51616768  0.82566521  1  0  -0.857125  0  2.050816  0  0  -0.766749  0  2.349631  0  0  -0.794102  0  2.324613  0  0  -0.391196  -0.747404  0  2.366239  0
O  O89  1  0.37712214  0.48383356  0.67433468  1  0  -0.857145  0  2.050798  0  0  -0.766762  0  2.349602  0  0  -0.794109  0  2.324577  0  0  -0.391213  -0.747417  0  2.36621  0
O  O90  1  0.12288080  0.48383240  0.17433393  1  0  -0.857156  0  2.050863  0  0  -0.766763  0  2.349637  0  0  -0.794129  0  2.324645  0  0  -0.391205  -0.747417  0  2.366243  0
O  O91  1  0.62288076  0.51616775  0.32566527  1  0  -0.857168  0  2.050822  0  0  -0.766783  0  2.349615  0  0  -0.794138  0  2.324605  0  0  -0.391223  -0.747436  0  2.366222  0
