# generated using pymatgen
data_KH3C3N4O5
_symmetry_space_group_name_H-M   'P 1'
_cell_length_a   3.82309606
_cell_length_b   13.23960952
_cell_length_c   15.26689366
_cell_angle_alpha   89.99997178
_cell_angle_beta   89.99994529
_cell_angle_gamma   89.99976258
_symmetry_Int_Tables_number   1
_chemical_formula_structural   KH3C3N4O5
_chemical_formula_sum   'K4 H12 C12 N16 O20'
_cell_volume   772.75365425
_cell_formula_units_Z   4
loop_
 _symmetry_equiv_pos_site_id
 _symmetry_equiv_pos_as_xyz
  1  'x, y, z'
loop_
 _atom_site_type_symbol
 _atom_site_label
 _atom_site_symmetry_multiplicity
 _atom_site_fract_x
 _atom_site_fract_y
 _atom_site_fract_z
 _atom_site_occupancy
 _atom_site_hle17_bader_spin_density
 _atom_site_hle17_ddec_charge
 _atom_site_hle17_ddec_spin_density
 _atom_site_hle17_ddec_sum_bond_order
 _atom_site_hle17_magmom
 _atom_site_hse06_10hf_bader_spin_density
 _atom_site_hse06_10hf_ddec_charge
 _atom_site_hse06_10hf_ddec_spin_density
 _atom_site_hse06_10hf_ddec_sum_bond_order
 _atom_site_hse06_10hf_magmom
 _atom_site_hse06_bader_spin_density
 _atom_site_hse06_ddec_charge
 _atom_site_hse06_ddec_spin_density
 _atom_site_hse06_ddec_sum_bond_order
 _atom_site_hse06_magmom
 _atom_site_pbe_bader_spin_density
 _atom_site_pbe_cm5_charge
 _atom_site_pbe_ddec_charge
 _atom_site_pbe_ddec_spin_density
 _atom_site_pbe_ddec_sum_bond_order
 _atom_site_pbe_magmom
K  K0  1  0.82980393  0.93025789  0.59189025  1  0  0.900752  0  0.496886  0  0  0.830876  0  0.711422  0  0  0.84699  0  0.685474  0  0  0.779442  0.819106  0  0.729646  0
K  K1  1  0.17019646  0.06974136  0.09189030  1  0  0.900753  0  0.496902  0  0  0.830884  0  0.711413  0  0  0.846993  0  0.685472  0  0  0.779439  0.819119  0  0.729635  0
K  K2  1  0.82980747  0.56974287  0.09189012  1  0  0.900561  0  0.497069  0  0  0.830889  0  0.711429  0  0  0.846996  0  0.685489  0  0  0.779457  0.819126  0  0.72965  0
K  K3  1  0.17019030  0.43025713  0.59189043  1  0  0.900767  0  0.496879  0  0  0.830894  0  0.71142  0  0  0.847005  0  0.685482  0  0  0.779471  0.819135  0  0.729644  0
H  H4  1  0.26236386  0.12216113  0.60235889  1  0  0.408714  0  0.895071  0  0  0.376235  0  0.962452  0  0  0.386847  0  0.946479  0  0  0.286643  0.36871  0  0.973773  0
H  H5  1  0.73763387  0.87783886  0.10235781  1  0  0.408695  0  0.895103  0  0  0.376234  0  0.962453  0  0  0.386845  0  0.94648  0  0  0.28664  0.368709  0  0.973777  0
H  H6  1  0.26236821  0.37784102  0.10235863  1  0  0.40868  0  0.895112  0  0  0.376249  0  0.962413  0  0  0.386855  0  0.946447  0  0  0.286647  0.368723  0  0.97374  0
H  H7  1  0.73762952  0.62215822  0.60235873  1  0  0.408634  0  0.89517  0  0  0.376203  0  0.962469  0  0  0.386809  0  0.946502  0  0  0.28664  0.368679  0  0.973793  0
H  H8  1  0.41295913  0.09095239  0.69423022  1  0  0.4006  0  0.915102  0  0  0.361086  0  0.993837  0  0  0.372537  0  0.977212  0  0  0.277062  0.353044  0  1.005482  0
H  H9  1  0.58704086  0.90904755  0.19423047  1  0  0.400555  0  0.915176  0  0  0.361087  0  0.993838  0  0  0.372537  0  0.977214  0  0  0.277062  0.353045  0  1.005482  0
H  H10  1  0.41296565  0.40904877  0.19423125  1  0  0.400568  0  0.915147  0  0  0.361057  0  0.993878  0  0  0.372508  0  0.977253  0  0  0.27704  0.353018  0  1.00552  0
H  H11  1  0.58703435  0.59095042  0.69423140  1  0  0.400592  0  0.915103  0  0  0.361086  0  0.99383  0  0  0.372537  0  0.977206  0  0  0.277072  0.353046  0  1.005473  0
H  H12  1  0.49376470  0.50048627  0.87535079  1  0  0.093519  0  0.940392  0  0  0.097804  0  1.007198  0  0  0.1004  0  1.004568  0  0  0.134189  0.09588  0  1.009179  0
H  H13  1  0.50623461  0.49951432  0.37535058  1  0  0.093495  0  0.940455  0  0  0.09781  0  1.007197  0  0  0.100407  0  1.004565  0  0  0.134185  0.095888  0  1.009179  0
H  H14  1  0.49376207  0.99951397  0.37535113  1  0  0.093493  0  0.940389  0  0  0.097791  0  1.007181  0  0  0.100387  0  1.004553  0  0  0.134192  0.095865  0  1.009162  0
H  H15  1  0.50623724  0.00048662  0.87535090  1  0  0.093525  0  0.940388  0  0  0.097774  0  1.007232  0  0  0.100367  0  1.004608  0  0  0.134182  0.09585  0  1.009214  0
C  C16  1  0.40691045  0.57842593  0.87192573  1  0  0.259432  0  3.662107  0  0  0.206857  0  3.954307  0  0  0.214747  0  3.969575  0  0  0.150008  0.201773  0  3.943707  0
C  C17  1  0.59309933  0.42157466  0.37192553  1  0  0.25936  0  3.662262  0  0  0.206811  0  3.954416  0  0  0.2147  0  3.969682  0  0  0.149986  0.201726  0  3.94382  0
C  C18  1  0.40689848  0.92157441  0.37192545  1  0  0.259318  0  3.662376  0  0  0.206871  0  3.954395  0  0  0.21476  0  3.969665  0  0  0.149971  0.201788  0  3.943792  0
C  C19  1  0.59310084  0.07842543  0.87192516  1  0  0.259482  0  3.662208  0  0  0.206929  0  3.954409  0  0  0.214819  0  3.96968  0  0  0.150033  0.201845  0  3.943812  0
C  C20  1  0.29901266  0.72464483  0.82092778  1  0  0.11573  0  3.737733  0  0  0.064687  0  4.029953  0  0  0.063741  0  4.052692  0  0  0.183276  0.065105  0  4.014959  0
C  C21  1  0.70099209  0.27535429  0.32092893  1  0  0.115708  0  3.737716  0  0  0.064708  0  4.029924  0  0  0.06376  0  4.052664  0  0  0.183294  0.065128  0  4.014927  0
C  C22  1  0.29901586  0.77535492  0.32092952  1  0  0.11769  0  3.736712  0  0  0.064767  0  4.029959  0  0  0.063821  0  4.0527  0  0  0.183306  0.065184  0  4.014964  0
C  C23  1  0.70098627  0.22464495  0.82092915  1  0  0.115728  0  3.737673  0  0  0.064746  0  4.029921  0  0  0.0638  0  4.052659  0  0  0.183296  0.065164  0  4.014925  0
C  C24  1  0.20724134  0.72111983  0.91065004  1  0  0.107573  0  3.764289  0  0  0.072697  0  4.064674  0  0  0.0729  0  4.08718  0  0  0.181117  0.072486  0  4.049685  0
C  C25  1  0.79275522  0.27888226  0.41064985  1  0  0.107536  0  3.764236  0  0  0.072693  0  4.064571  0  0  0.072897  0  4.087069  0  0  0.181094  0.072483  0  4.049579  0
C  C26  1  0.20724973  0.77888074  0.41065113  1  0  0.107085  0  3.764252  0  0  0.072644  0  4.064663  0  0  0.072848  0  4.087166  0  0  0.181105  0.072434  0  4.049671  0
C  C27  1  0.79274945  0.22111984  0.91065073  1  0  0.107467  0  3.764348  0  0  0.072592  0  4.064708  0  0  0.072798  0  4.087205  0  0  0.18107  0.072382  0  4.049718  0
N  N28  1  0.27492008  0.62781642  0.94231006  1  0  -0.457287  0  3.045896  0  0  -0.429791  0  3.341806  0  0  -0.443047  0  3.358598  0  0  -0.407604  -0.420606  0  3.330183  0
N  N29  1  0.72507897  0.37218338  0.44231051  1  0  -0.457268  0  3.046022  0  0  -0.429764  0  3.341914  0  0  -0.443031  0  3.358732  0  0  -0.407595  -0.420582  0  3.330302  0
N  N30  1  0.27492451  0.87218404  0.44231045  1  0  -0.457372  0  3.046206  0  0  -0.429767  0  3.341928  0  0  -0.443023  0  3.358723  0  0  -0.407609  -0.420576  0  3.330289  0
N  N31  1  0.72507454  0.12781576  0.94231011  1  0  -0.457238  0  3.046003  0  0  -0.429751  0  3.34192  0  0  -0.443005  0  3.358709  0  0  -0.407594  -0.420561  0  3.330283  0
N  N32  1  0.42530629  0.63312318  0.79756612  1  0  -0.357867  0  3.030078  0  0  -0.310739  0  3.297519  0  0  -0.324152  0  3.313511  0  0  -0.304122  -0.301615  0  3.286738  0
N  N33  1  0.57469593  0.36687671  0.29756661  1  0  -0.35786  0  3.030158  0  0  -0.310753  0  3.297578  0  0  -0.324164  0  3.313569  0  0  -0.304116  -0.301629  0  3.286799  0
N  N34  1  0.42530295  0.86687644  0.29756586  1  0  -0.358261  0  3.029909  0  0  -0.310739  0  3.297652  0  0  -0.324151  0  3.313644  0  0  -0.304076  -0.301617  0  3.286868  0
N  N35  1  0.57469666  0.13312345  0.79756555  1  0  -0.357897  0  3.030169  0  0  -0.310764  0  3.297584  0  0  -0.324176  0  3.313575  0  0  -0.304108  -0.301639  0  3.286802  0
N  N36  1  0.23481034  0.80030573  0.75667043  1  0  0.473133  0  3.983995  0  0  0.534772  0  4.236105  0  0  0.557566  0  4.241444  0  0  0.039056  0.519439  0  4.232493  0
N  N37  1  0.76518942  0.19969494  0.25667160  1  0  0.473304  0  3.983988  0  0  0.534815  0  4.236259  0  0  0.55761  0  4.241597  0  0  0.039058  0.519482  0  4.232647  0
N  N38  1  0.23480679  0.69969338  0.25667221  1  0  0.46895  0  3.985534  0  0  0.534665  0  4.236403  0  0  0.557459  0  4.241745  0  0  0.03902  0.519332  0  4.232792  0
N  N39  1  0.76519559  0.30030652  0.75667178  1  0  0.473333  0  3.983974  0  0  0.534783  0  4.236339  0  0  0.557577  0  4.241681  0  0  0.039071  0.51945  0  4.232727  0
N  N40  1  0.08214311  0.79834195  0.96786927  1  0  0.512616  0  3.904798  0  0  0.53715  0  4.208355  0  0  0.560174  0  4.213018  0  0  0.055729  0.521615  0  4.205207  0
N  N41  1  0.91785846  0.20165632  0.46786975  1  0  0.512732  0  3.90464  0  0  0.537239  0  4.208213  0  0  0.560269  0  4.212871  0  0  0.055769  0.521704  0  4.205063  0
N  N42  1  0.08214738  0.70165722  0.46787039  1  0  0.512659  0  3.904865  0  0  0.537254  0  4.208265  0  0  0.560278  0  4.212926  0  0  0.055751  0.521721  0  4.205118  0
N  N43  1  0.91785158  0.29834257  0.96786993  1  0  0.512678  0  3.904701  0  0  0.537221  0  4.208251  0  0  0.560249  0  4.212909  0  0  0.055739  0.521688  0  4.205102  0
O  O44  1  0.37878810  0.79087336  0.68352914  1  0  -0.396001  0  1.777102  0  0  -0.388302  0  1.982845  0  0  -0.400746  0  1.977374  0  0  -0.183814  -0.379808  0  1.986703  0
O  O45  1  0.62121194  0.20912659  0.18352968  1  0  -0.39606  0  1.777194  0  0  -0.388367  0  1.982972  0  0  -0.400808  0  1.977499  0  0  -0.183855  -0.379873  0  1.986832  0
O  O46  1  0.37877918  0.70912411  0.18352961  1  0  -0.393992  0  1.777158  0  0  -0.388341  0  1.982973  0  0  -0.400784  0  1.977503  0  0  -0.183858  -0.379848  0  1.986832  0
O  O47  1  0.62122348  0.29087659  0.68352922  1  0  -0.396081  0  1.777116  0  0  -0.388352  0  1.982966  0  0  -0.400797  0  1.977493  0  0  -0.183855  -0.379859  0  1.986825  0
O  O48  1  0.03233254  0.87115763  0.77515029  1  0  -0.377629  0  1.762472  0  0  -0.370525  0  1.959426  0  0  -0.382629  0  1.955529  0  0  -0.15472  -0.362232  0  1.962184  0
O  O49  1  0.96766453  0.12884302  0.27515013  1  0  -0.377713  0  1.762446  0  0  -0.370533  0  1.959443  0  0  -0.382638  0  1.955545  0  0  -0.15471  -0.362241  0  1.962198  0
O  O50  1  0.03232739  0.62884247  0.27515210  1  0  -0.375577  0  1.762542  0  0  -0.370418  0  1.959567  0  0  -0.382523  0  1.955672  0  0  -0.154664  -0.362128  0  1.962325  0
O  O51  1  0.96767230  0.37115743  0.77515225  1  0  -0.377709  0  1.762504  0  0  -0.370516  0  1.959541  0  0  -0.382619  0  1.955645  0  0  -0.154725  -0.362226  0  1.9623  0
O  O52  1  0.16473263  0.88759454  0.95387884  1  0  -0.360426  0  1.76559  0  0  -0.340946  0  1.980607  0  0  -0.351457  0  1.975045  0  0  -0.119152  -0.333707  0  1.984547  0
O  O53  1  0.83526638  0.11240450  0.45387872  1  0  -0.360455  0  1.765525  0  0  -0.340988  0  1.980568  0  0  -0.3515  0  1.975001  0  0  -0.11917  -0.33375  0  1.984506  0
O  O54  1  0.16473556  0.61240454  0.45388000  1  0  -0.360583  0  1.765683  0  0  -0.341015  0  1.980618  0  0  -0.351525  0  1.975054  0  0  -0.119176  -0.333778  0  1.98456  0
O  O55  1  0.83526083  0.38759525  0.95388018  1  0  -0.360488  0  1.765567  0  0  -0.341002  0  1.980593  0  0  -0.351513  0  1.975027  0  0  -0.119181  -0.333764  0  1.984532  0
O  O56  1  0.89523740  0.77107507  0.03121433  1  0  -0.397844  0  1.809111  0  0  -0.3668  0  2.026161  0  0  -0.381017  0  2.020423  0  0  -0.159468  -0.357237  0  2.030303  0
O  O57  1  0.10476060  0.22892572  0.53121475  1  0  -0.397814  0  1.809004  0  0  -0.366818  0  2.026218  0  0  -0.381034  0  2.020462  0  0  -0.159448  -0.357257  0  2.03036  0
O  O58  1  0.89523937  0.72892489  0.53121520  1  0  -0.397804  0  1.808924  0  0  -0.366852  0  2.02612  0  0  -0.38107  0  2.020389  0  0  -0.159464  -0.35729  0  2.030261  0
O  O59  1  0.10476125  0.27107439  0.03121388  1  0  -0.397717  0  1.80891  0  0  -0.366812  0  2.026108  0  0  -0.38104  0  2.020387  0  0  -0.159442  -0.357251  0  2.030249  0
O  O60  1  0.33086368  0.06303773  0.63704309  1  0  -0.925121  0  1.828811  0  0  -0.875059  0  2.01556  0  0  -0.89285  0  1.980736  0  0  -0.757648  -0.86196  0  2.039744  0
O  O61  1  0.66913654  0.93696224  0.13704266  1  0  -0.925173  0  1.828923  0  0  -0.875072  0  2.015557  0  0  -0.892858  0  1.980738  0  0  -0.757647  -0.86197  0  2.039735  0
O  O62  1  0.33086979  0.43696431  0.13704346  1  0  -0.925121  0  1.829046  0  0  -0.875044  0  2.015647  0  0  -0.892826  0  1.980832  0  0  -0.757636  -0.861943  0  2.039811  0
O  O63  1  0.66913042  0.56303566  0.63704360  1  0  -0.92506  0  1.82898  0  0  -0.875026  0  2.015671  0  0  -0.892809  0  1.98086  0  0  -0.757656  -0.861925  0  2.039841  0
