# generated using pymatgen
data_AgH19C18(NO2)2
_symmetry_space_group_name_H-M   'P 1'
_cell_length_a   8.11667517
_cell_length_b   10.05195048
_cell_length_c   11.63241344
_cell_angle_alpha   115.36979052
_cell_angle_beta   91.91386803
_cell_angle_gamma   103.11410876
_symmetry_Int_Tables_number   1
_chemical_formula_structural   AgH19C18(NO2)2
_chemical_formula_sum   'Ag2 H38 C36 N4 O8'
_cell_volume   825.92820649
_cell_formula_units_Z   2
loop_
 _symmetry_equiv_pos_site_id
 _symmetry_equiv_pos_as_xyz
  1  'x, y, z'
loop_
 _atom_site_type_symbol
 _atom_site_label
 _atom_site_symmetry_multiplicity
 _atom_site_fract_x
 _atom_site_fract_y
 _atom_site_fract_z
 _atom_site_occupancy
 _atom_site_pbe_bader_charge
 _atom_site_pbe_bader_spin_density
 _atom_site_pbe_cm5_charge
 _atom_site_pbe_ddec_charge
 _atom_site_pbe_ddec_spin_density
 _atom_site_pbe_ddec_sum_bond_order
 _atom_site_pbe_magmom
Ag  Ag0  1  0.39524374  0.16128149  0.05894226  1  0.603371  0  0.469859  0.359229  0  1.869204  0
Ag  Ag1  1  0.60475212  0.83871858  0.94105799  1  0.603199  0  0.46987  0.359228  0  1.869167  0
H  H2  1  0.22365048  0.82944955  0.87502716  1  0.131715  0  0.113315  0.087443  0  1.042293  0
H  H3  1  0.77634749  0.17054939  0.12497186  1  0.131713  0  0.113336  0.087464  0  1.042302  0
H  H4  1  0.00992053  0.60571600  0.87207513  1  0.076398  0  0.104589  0.106226  0  1.045683  0
H  H5  1  0.99007375  0.39428293  0.12792381  1  0.076282  0  0.104592  0.106206  0  1.045646  0
H  H6  1  0.90186279  0.91056269  0.23918990  1  0.099771  0  0.110573  0.12273  0  1.019952  0
H  H7  1  0.09813306  0.08943739  0.76080863  1  0.099783  0  0.110562  0.122711  0  1.019968  0
H  H8  1  0.12612764  0.11859126  0.23061804  1  0.101411  0  0.114845  0.081586  0  1.024231  0
H  H9  1  0.87386821  0.88140882  0.76938135  1  0.101415  0  0.114838  0.081588  0  1.024204  0
H  H10  1  0.53924436  0.26016831  0.86099381  1  0.121058  0  0.114144  0.093706  0  1.034266  0
H  H11  1  0.46075170  0.73982834  0.13900518  1  0.121105  0  0.114156  0.093742  0  1.034223  0
H  H12  1  0.74435766  0.48173731  0.85115326  1  0.115743  0  0.110635  0.130399  0  1.02861  0
H  H13  1  0.25563662  0.51826163  0.14884395  1  0.115739  0  0.110643  0.130453  0  1.02853  0
H  H14  1  0.84014867  0.69608422  0.26710761  1  0.100224  0  0.110552  0.117681  0  1.005297  0
H  H15  1  0.15984930  0.30391471  0.73289054  1  0.100179  0  0.110522  0.117626  0  1.005321  0
H  H16  1  0.62162107  0.47174762  0.25864337  1  0.1398  0  0.12064  0.102724  0  0.998305  0
H  H17  1  0.37838116  0.52824903  0.74135490  1  0.139993  0  0.120629  0.102661  0  0.998356  0
H  H18  1  0.27917176  0.04930374  0.38074208  1  0.033785  0  0.084502  0.078604  0  1.030257  0
H  H19  1  0.72083094  0.95069862  0.61926089  1  0.033728  0  0.084502  0.078585  0  1.030273  0
H  H20  1  0.33654925  0.87548953  0.33320219  1  0.026103  0  0.084799  0.079623  0  0.991683  0
H  H21  1  0.66345345  0.12451283  0.66680078  1  0.026063  0  0.084801  0.079612  0  0.991737  0
H  H22  1  0.57204051  0.19653566  0.49184230  1  0.027851  0  0.097967  0.084253  0  0.98182  0
H  H23  1  0.42796185  0.80346556  0.50815938  1  0.027868  0  0.097959  0.084224  0  0.981825  0
H  H24  1  0.80615457  0.06594761  0.47005002  1  -0.005649  0  0.085105  0.078063  0  1.001035  0
H  H25  1  0.19384779  0.93405361  0.52995166  1  -0.00562  0  0.085105  0.078081  0  1.001072  0
H  H26  1  0.65393177  0.88658126  0.38818589  1  0.029133  0  0.086815  0.081983  0  1.002481  0
H  H27  1  0.34606936  0.11341996  0.61181663  1  0.029101  0  0.086823  0.082009  0  1.002504  0
H  H28  1  0.17733104  0.65222867  0.40370095  1  0.031269  0  0.089418  0.084618  0  1.013934  0
H  H29  1  0.82267254  0.34777254  0.59629559  1  0.031266  0  0.089421  0.0846  0  1.013983  0
H  H30  1  0.00514391  0.48704795  0.32431699  1  0.019519  0  0.086355  0.078641  0  1.017681  0
H  H31  1  0.99485934  0.51295213  0.67568171  1  0.019547  0  0.086349  0.078638  0  1.017705  0
H  H32  1  0.24816895  0.55903612  0.56256712  1  0.07884  0  0.103892  0.097468  0  0.985491  0
H  H33  1  0.75183498  0.44096624  0.43743244  1  0.078895  0  0.10388  0.097484  0  0.98552  0
H  H34  1  0.95907040  0.27257378  0.39550060  1  0.021466  0  0.089592  0.089423  0  0.984226  0
H  H35  1  0.04093442  0.72742743  0.60449770  1  0.021461  0  0.089587  0.089419  0  0.984236  0
H  H36  1  0.10116243  0.29615439  0.52582323  1  0.024545  0  0.087609  0.083101  0  1.007648  0
H  H37  1  0.89884240  0.70384682  0.47417506  1  0.024519  0  0.087585  0.083102  0  1.007656  0
H  H38  1  0.45535364  0.27811192  0.36091211  1  0.645728  0  0.287387  0.344898  0  1.009769  0
H  H39  1  0.54465310  0.72189159  0.63908965  1  0.64586  0  0.287375  0.344884  0  1.009788  0
C  C40  1  0.15087785  0.84101655  0.95451426  1  0.465987  0  0.040619  0.077508  0  3.940295  0
C  C41  1  0.84911978  0.15898124  0.04548432  1  0.466  0  0.040658  0.077477  0  3.940471  0
C  C42  1  0.03083042  0.71768084  0.95344532  1  0.002654  0  -0.080832  -0.159324  0  3.944518  0
C  C43  1  0.96916509  0.28231809  0.04655278  1  0.00236  0  -0.080883  -0.159351  0  3.944647  0
C  C44  1  0.94041857  0.73732645  0.05760930  1  -0.060026  0  0.010854  0.094624  0  3.982219  0
C  C45  1  0.05957626  0.26267020  0.94238880  1  -0.0592  0  0.01085  0.094652  0  3.982099  0
C  C46  1  0.97514350  0.88503592  0.15932029  1  -0.012945  0  -0.077415  -0.159961  0  3.928902  0
C  C47  1  0.02485256  0.11496073  0.84067784  1  -0.012778  0  -0.077388  -0.159938  0  3.928897  0
C  C48  1  0.09772105  0.00257476  0.15367196  1  0.506805  0  0.04616  0.092582  0  3.938662  0
C  C49  1  0.90227693  0.99742418  0.84632705  1  0.506562  0  0.046153  0.092595  0  3.938643  0
C  C50  1  0.61087956  0.35955100  0.94799602  1  0.469792  0  0.042834  0.081424  0  3.933425  0
C  C51  1  0.38911842  0.64044794  0.05200300  1  0.469811  0  0.04283  0.081388  0  3.933401  0
C  C52  1  0.72760332  0.48121329  0.94357345  1  0.017003  0  -0.0807  -0.166689  0  3.917595  0
C  C53  1  0.27239219  0.51878564  0.05642551  1  0.017027  0  -0.080714  -0.166756  0  3.917591  0
C  C54  1  0.81448426  0.60677355  0.05885978  1  -0.042975  0  0.013509  0.104727  0  3.968757  0
C  C55  1  0.18551125  0.39322538  0.94113831  1  -0.043329  0  0.013503  0.104706  0  3.968624  0
C  C56  1  0.77639690  0.60272725  0.17435050  1  -0.031601  0  -0.079128  -0.170964  0  3.934795  0
C  C57  1  0.22360073  0.39727054  0.82564722  1  -0.031505  0  -0.079127  -0.170943  0  3.934745  0
C  C58  1  0.65690176  0.47723908  0.17090026  1  0.447544  0  0.047366  0.088321  0  3.924681  0
C  C59  1  0.34309834  0.52275871  0.82909753  1  0.447231  0  0.047401  0.088413  0  3.924691  0
C  C60  1  0.58511981  0.08075243  0.29076682  1  1.553397  0  0.201665  0.589661  0  4.152019  0
C  C61  1  0.41488344  0.91924765  0.70923445  1  1.553544  0  0.201656  0.589619  0  4.152015  0
C  C62  1  0.36395307  0.99425723  0.40932033  1  -0.03582  0  -0.165819  -0.15591  0  3.912882  0
C  C63  1  0.63605244  0.00574628  0.59068313  1  -0.035765  0  -0.165806  -0.155887  0  3.912835  0
C  C64  1  0.55196666  0.07738557  0.41847987  1  0.001444  0  -0.09683  -0.119651  0  3.870167  0
C  C65  1  0.44803201  0.92261565  0.58152345  1  0.001486  0  -0.096796  -0.11959  0  3.870138  0
C  C66  1  0.67189328  0.00500158  0.46230892  1  -0.008467  0  -0.167931  -0.15785  0  3.945847  0
C  C67  1  0.32810942  0.99500078  0.53769405  1  -0.008479  0  -0.167899  -0.15789  0  3.946021  0
C  C68  1  0.29123083  0.40534135  0.38106034  1  1.5321  0  0.222009  0.595304  0  4.095187  0
C  C69  1  0.70877591  0.59466215  0.61893970  1  1.532081  0  0.222048  0.595435  0  4.094997  0
C  C70  1  0.08165673  0.56689373  0.41894133  1  -0.015968  0  -0.167915  -0.161195  0  3.943811  0
C  C71  1  0.91834563  0.43310749  0.58105605  1  -0.016013  0  -0.167955  -0.161209  0  3.943959  0
C  C72  1  0.16979611  0.47833405  0.46839873  1  -0.023506  0  -0.093379  -0.123286  0  3.875977  0
C  C73  1  0.83020748  0.52166716  0.53160040  1  -0.023596  0  -0.093306  -0.123341  0  3.876039  0
C  C74  1  0.03595298  0.35780510  0.48902409  1  -0.02623  0  -0.163918  -0.160605  0  3.918957  0
C  C75  1  0.96405219  0.64219726  0.51097378  1  -0.026336  0  -0.16392  -0.160618  0  3.918928  0
N  N76  1  0.18596655  0.98202169  0.05405565  1  -1.194921  0  -0.346671  -0.18765  0  3.601849  0
N  N77  1  0.81403266  0.01797725  0.94594426  1  -1.194956  0  -0.346673  -0.187611  0  3.601836  0
N  N78  1  0.57578316  0.35661205  0.05954533  1  -1.202145  0  -0.344428  -0.185978  0  3.60352  0
N  N79  1  0.42421695  0.64338574  0.94045331  1  -1.202136  0  -0.344439  -0.18596  0  3.603513  0
O  O80  1  0.63527059  0.97526044  0.20724264  1  -1.198498  0  -0.326615  -0.567267  0  2.23614  0
O  O81  1  0.36472986  0.02473850  0.79275815  1  -1.198492  0  -0.326624  -0.567248  0  2.236129  0
O  O82  1  0.55715913  0.19484606  0.27579717  1  -1.193717  0  -0.341353  -0.586914  0  2.327271  0
O  O83  1  0.44284323  0.80515516  0.72420365  1  -1.194027  0  -0.341348  -0.586876  0  2.327276  0
O  O84  1  0.30762420  0.40963747  0.27707788  1  -1.175159  0  -0.303979  -0.532338  0  2.206884  0
O  O85  1  0.69237993  0.59036147  0.72292042  1  -1.175108  0  -0.304007  -0.532408  0  2.206742  0
O  O86  1  0.37405453  0.33438240  0.42623368  1  -1.196676  0  -0.340712  -0.510956  0  2.335507  0
O  O87  1  0.62595570  0.66562453  0.57376858  1  -1.196634  0  -0.340731  -0.510986  0  2.335602  0
