# generated using pymatgen
data_K3BiH48C30S6(N7O2)2
_symmetry_space_group_name_H-M   'P 1'
_cell_length_a   10.90103969
_cell_length_b   11.03149073
_cell_length_c   12.13983522
_cell_angle_alpha   73.24658631
_cell_angle_beta   63.81957856
_cell_angle_gamma   65.24214133
_symmetry_Int_Tables_number   1
_chemical_formula_structural   K3BiH48C30S6(N7O2)2
_chemical_formula_sum   'K3 Bi1 H48 C30 S6 N14 O4'
_cell_volume   1180.05435029
_cell_formula_units_Z   1
loop_
 _symmetry_equiv_pos_site_id
 _symmetry_equiv_pos_as_xyz
  1  'x, y, z'
loop_
 _atom_site_type_symbol
 _atom_site_label
 _atom_site_symmetry_multiplicity
 _atom_site_fract_x
 _atom_site_fract_y
 _atom_site_fract_z
 _atom_site_occupancy
 _atom_site_hle17_bader_spin_density
 _atom_site_hle17_ddec_charge
 _atom_site_hle17_ddec_spin_density
 _atom_site_hle17_ddec_sum_bond_order
 _atom_site_hle17_magmom
 _atom_site_hse06_10hf_bader_spin_density
 _atom_site_hse06_10hf_ddec_charge
 _atom_site_hse06_10hf_ddec_spin_density
 _atom_site_hse06_10hf_ddec_sum_bond_order
 _atom_site_hse06_10hf_magmom
 _atom_site_hse06_bader_spin_density
 _atom_site_hse06_ddec_charge
 _atom_site_hse06_ddec_spin_density
 _atom_site_hse06_ddec_sum_bond_order
 _atom_site_hse06_magmom
 _atom_site_pbe_bader_spin_density
 _atom_site_pbe_cm5_charge
 _atom_site_pbe_ddec_charge
 _atom_site_pbe_ddec_spin_density
 _atom_site_pbe_ddec_sum_bond_order
 _atom_site_pbe_magmom
K  K0  1  0.00000013  0.50000400  0.49999683  1  0  0.921259  0  0.513413  0  0  0.872975  0  0.711557  0  0  0.887542  0  0.688789  0  0  0.838677  0.862201  0  0.727678  0
K  K1  1  0.92510420  0.19580166  0.53723165  1  0  0.918764  0  0.505634  0  0  0.866399  0  0.711111  0  0  0.879851  0  0.690239  0  0  0.839303  0.856107  0  0.726482  0
K  K2  1  0.07489134  0.80420689  0.46277649  1  0  0.91877  0  0.505631  0  0  0.866376  0  0.711191  0  0  0.879829  0  0.690317  0  0  0.839302  0.856087  0  0.726561  0
Bi  Bi3  1  0.00001061  0.00000038  0.99999068  1  0  0.924813  0  2.484108  0  0  0.777693  0  2.969614  0  0  0.826619  0  2.95132  0  0  0.527824  0.744308  0  2.982569  0
H  H4  1  0.44091062  0.04682096  0.30630613  1  0  0.082415  0  0.957491  0  0  0.101606  0  1.028701  0  0  0.102406  0  1.028779  0  0  0.093582  0.100826  0  1.028915  0
H  H5  1  0.55908816  0.95318154  0.69369491  1  0  0.082444  0  0.957448  0  0  0.101619  0  1.028683  0  0  0.10242  0  1.02876  0  0  0.093582  0.100845  0  1.028892  0
H  H6  1  0.27980766  0.01152060  0.34692839  1  0  0.088052  0  0.954007  0  0  0.106598  0  1.02418  0  0  0.107564  0  1.023276  0  0  0.105084  0.105853  0  1.024864  0
H  H7  1  0.72019159  0.98847786  0.65307271  1  0  0.088108  0  0.954043  0  0  0.106627  0  1.024222  0  0  0.107594  0  1.023318  0  0  0.10511  0.105886  0  1.02491  0
H  H8  1  0.27085413  0.14882741  0.40460123  1  0  0.102256  0  0.958051  0  0  0.119555  0  1.025546  0  0  0.121197  0  1.02453  0  0  0.111498  0.118212  0  1.026451  0
H  H9  1  0.72914326  0.85117609  0.59539928  1  0  0.102261  0  0.958096  0  0  0.11959  0  1.025547  0  0  0.121228  0  1.024538  0  0  0.111495  0.118245  0  1.026455  0
H  H10  1  0.50996344  0.12980235  0.07803520  1  0  0.0466  0  0.954151  0  0  0.056801  0  1.031364  0  0  0.057658  0  1.030695  0  0  0.084953  0.05604  0  1.032088  0
H  H11  1  0.49003487  0.87020417  0.92196249  1  0  0.046645  0  0.954155  0  0  0.056842  0  1.031365  0  0  0.057699  0  1.030701  0  0  0.08498  0.056083  0  1.032087  0
H  H12  1  0.40444540  0.02880787  0.10781885  1  0  0.070741  0  0.938532  0  0  0.090593  0  0.996704  0  0  0.090453  0  0.997778  0  0  0.104962  0.09064  0  0.995969  0
H  H13  1  0.59555997  0.97119062  0.89218062  1  0  0.070764  0  0.938573  0  0  0.090621  0  0.996746  0  0  0.090484  0  0.997818  0  0  0.104954  0.090667  0  0.996011  0
H  H14  1  0.43816055  0.19781541  0.90402020  1  0  0.087593  0  0.94789  0  0  0.106133  0  1.007122  0  0  0.106801  0  1.007775  0  0  0.094814  0.10553  0  1.007011  0
H  H15  1  0.56183294  0.80218202  0.09598099  1  0  0.087562  0  0.947837  0  0  0.106101  0  1.007059  0  0  0.106769  0  1.00771  0  0  0.094803  0.105498  0  1.00695  0
H  H16  1  0.26003863  0.19187286  0.99504786  1  0  0.065309  0  0.984104  0  0  0.073526  0  1.063966  0  0  0.07485  0  1.064233  0  0  0.077358  0.072606  0  1.063726  0
H  H17  1  0.73995589  0.80812459  0.00495785  1  0  0.065383  0  0.984064  0  0  0.073571  0  1.063943  0  0  0.074892  0  1.064212  0  0  0.077385  0.072652  0  1.063704  0
H  H18  1  0.24559152  0.42919422  0.93737913  1  0  0.063617  0  0.927531  0  0  0.084715  0  0.986837  0  0  0.085156  0  0.986844  0  0  0.106286  0.084262  0  0.987092  0
H  H19  1  0.75440196  0.57080321  0.06261959  1  0  0.063597  0  0.927422  0  0  0.084692  0  0.986772  0  0  0.085132  0  0.986774  0  0  0.106272  0.084237  0  0.987029  0
H  H20  1  0.38048950  0.39780173  0.99597987  1  0  0.047923  0  0.935091  0  0  0.063796  0  1.002845  0  0  0.064565  0  1.001975  0  0  0.094106  0.063232  0  1.00325  0
H  H21  1  0.61950657  0.60219973  0.00401181  1  0  0.04787  0  0.935093  0  0  0.063796  0  1.002819  0  0  0.064552  0  1.001957  0  0  0.094093  0.063231  0  1.003223  0
H  H22  1  0.99752292  0.52460057  0.08115380  1  0  0.076346  0  0.958386  0  0  0.093781  0  1.031026  0  0  0.094881  0  1.030175  0  0  0.08784  0.092901  0  1.031807  0
H  H23  1  0.00247504  0.47540698  0.91885282  1  0  0.076322  0  0.958381  0  0  0.093757  0  1.03102  0  0  0.094856  0  1.030171  0  0  0.087836  0.092878  0  1.031799  0
H  H24  1  0.09444498  0.60181145  0.10958394  1  0  0.079111  0  0.982295  0  0  0.093361  0  1.059329  0  0  0.094071  0  1.059869  0  0  0.082101  0.092779  0  1.059126  0
H  H25  1  0.90556170  0.39818905  0.89041366  1  0  0.079091  0  0.982362  0  0  0.093338  0  1.059362  0  0  0.094048  0  1.059904  0  0  0.0821  0.092749  0  1.059167  0
H  H26  1  0.98174475  0.51845653  0.23546668  1  0  0.106717  0  0.972391  0  0  0.12497  0  1.036608  0  0  0.126436  0  1.036138  0  0  0.111577  0.123858  0  1.037048  0
H  H27  1  0.01826583  0.48155004  0.76453271  1  0  0.106658  0  0.972409  0  0  0.124917  0  1.036637  0  0  0.126387  0  1.036155  0  0  0.111519  0.123803  0  1.037075  0
H  H28  1  0.51822019  0.49198842  0.82814292  1  0  0.074937  0  0.951301  0  0  0.093925  0  1.021484  0  0  0.094804  0  1.020845  0  0  0.090404  0.093512  0  1.021421  0
H  H29  1  0.48177637  0.50802012  0.17185987  1  0  0.074922  0  0.951338  0  0  0.093905  0  1.021539  0  0  0.094784  0  1.020899  0  0  0.090415  0.093496  0  1.021465  0
H  H30  1  0.59815461  0.60933816  0.81555944  1  0  0.084352  0  0.969269  0  0  0.100208  0  1.042301  0  0  0.101116  0  1.042283  0  0  0.097583  0.099472  0  1.042367  0
H  H31  1  0.40185046  0.39066937  0.18443035  1  0  0.084311  0  0.969261  0  0  0.100202  0  1.042244  0  0  0.101108  0  1.04223  0  0  0.097579  0.099465  0  1.04231  0
H  H32  1  0.70691290  0.46076934  0.74020159  1  0  0.106267  0  0.956824  0  0  0.124034  0  1.021384  0  0  0.125669  0  1.020452  0  0  0.113415  0.122832  0  1.022001  0
H  H33  1  0.29308560  0.53923112  0.25979433  1  0  0.106162  0  0.956884  0  0  0.123982  0  1.021396  0  0  0.125615  0  1.020465  0  0  0.113404  0.12278  0  1.022014  0
H  H34  1  0.43833989  0.78800871  0.73891701  1  0  0.061522  0  0.94469  0  0  0.074168  0  1.01695  0  0  0.07496  0  1.016644  0  0  0.097215  0.073416  0  1.017704  0
H  H35  1  0.56165450  0.21199173  0.26107643  1  0  0.061731  0  0.944613  0  0  0.074299  0  1.016881  0  0  0.075089  0  1.016573  0  0  0.097248  0.073547  0  1.017637  0
H  H36  1  0.34137153  0.70882849  0.71662873  1  0  0.046688  0  0.949089  0  0  0.059067  0  1.021964  0  0  0.059328  0  1.022177  0  0  0.08945  0.058842  0  1.021883  0
H  H37  1  0.65862259  0.29116993  0.28336454  1  0  0.046796  0  0.949117  0  0  0.059085  0  1.022013  0  0  0.059353  0  1.02221  0  0  0.089478  0.058867  0  1.021922  0
H  H38  1  0.34459649  0.90910040  0.56436475  1  0  0.093961  0  0.94598  0  0  0.113243  0  1.004455  0  0  0.113558  0  1.005905  0  0  0.100816  0.113061  0  1.003375  0
H  H39  1  0.65540245  0.09089602  0.43562465  1  0  0.093902  0  0.946033  0  0  0.113188  0  1.00453  0  0  0.113499  0  1.005985  0  0  0.100786  0.113002  0  1.00345  0
H  H40  1  0.53693752  0.86315678  0.51592881  1  0  0.07737  0  0.933863  0  0  0.095219  0  0.996925  0  0  0.095936  0  0.997638  0  0  0.095042  0.094717  0  0.996432  0
H  H41  1  0.46305837  0.13683963  0.48406510  1  0  0.077381  0  0.933695  0  0  0.095202  0  0.996823  0  0  0.095922  0  0.997538  0  0  0.095008  0.094697  0  0.996331  0
H  H42  1  0.37340444  0.71461699  0.48368167  1  0  0.054614  0  0.930461  0  0  0.070128  0  0.997099  0  0  0.070695  0  0.996826  0  0  0.103465  0.069566  0  0.997534  0
H  H43  1  0.62660008  0.28537542  0.51631151  1  0  0.054716  0  0.930414  0  0  0.070183  0  0.997104  0  0  0.070745  0  0.996823  0  0  0.103508  0.069621  0  0.997538  0
H  H44  1  0.48935247  0.79843420  0.36513959  1  0  0.064876  0  0.93205  0  0  0.081837  0  0.997649  0  0  0.08228  0  0.997634  0  0  0.10775  0.081428  0  0.997811  0
H  H45  1  0.51065141  0.20155721  0.63485411  1  0  0.064845  0  0.932137  0  0  0.081861  0  0.997675  0  0  0.082293  0  0.997665  0  0  0.107788  0.08145  0  0.997837  0
H  H46  1  0.71602506  0.63416386  0.25919740  1  0  0.083644  0  0.95181  0  0  0.102502  0  1.021613  0  0  0.102988  0  1.022031  0  0  0.09528  0.102046  0  1.021479  0
H  H47  1  0.28398394  0.36582759  0.74080332  1  0  0.083618  0  0.95181  0  0  0.102489  0  1.021601  0  0  0.102975  0  1.022018  0  0  0.09523  0.102031  0  1.021467  0
H  H48  1  0.59388420  0.54299158  0.31258361  1  0  0.09039  0  0.942138  0  0  0.112298  0  1.002946  0  0  0.112754  0  1.003454  0  0  0.100743  0.111794  0  1.002809  0
H  H49  1  0.40612823  0.45699885  0.68740942  1  0  0.090371  0  0.942089  0  0  0.112275  0  1.0029  0  0  0.11273  0  1.003409  0  0  0.100732  0.111771  0  1.002763  0
H  H50  1  0.75890700  0.46901849  0.34278474  1  0  0.110812  0  0.955622  0  0  0.12915  0  1.019758  0  0  0.131416  0  1.017711  0  0  0.114833  0.127452  0  1.02126  0
H  H51  1  0.24110357  0.53097699  0.65721428  1  0  0.110872  0  0.95554  0  0  0.129185  0  1.019704  0  0  0.131447  0  1.017654  0  0  0.11486  0.127486  0  1.021206  0
C  C52  1  0.13836883  0.18342883  0.70985725  1  0  0.291327  0  4.000557  0  0  0.278659  0  4.305268  0  0  0.295946  0  4.321754  0  0  0.148391  0.266788  0  4.294148  0
C  C53  1  0.86162857  0.81657469  0.29014984  1  0  0.291386  0  4.000579  0  0  0.278723  0  4.305266  0  0  0.296011  0  4.32175  0  0  0.148389  0.266854  0  4.294151  0
C  C54  1  0.73655491  0.17791932  0.85566289  1  0  0.252992  0  3.988744  0  0  0.241746  0  4.29448  0  0  0.257669  0  4.311989  0  0  0.136575  0.231071  0  4.282466  0
C  C55  1  0.26344945  0.82207917  0.14434111  1  0  0.252868  0  3.988658  0  0  0.241625  0  4.294413  0  0  0.257551  0  4.311922  0  0  0.136563  0.230949  0  4.282403  0
C  C56  1  0.94507096  0.11953881  0.26544971  1  0  0.287267  0  3.992418  0  0  0.273222  0  4.296416  0  0  0.290884  0  4.312862  0  0  0.149293  0.261134  0  4.285061  0
C  C57  1  0.05491653  0.88045562  0.73457032  1  0  0.287138  0  3.992193  0  0  0.2731  0  4.296177  0  0  0.29076  0  4.312627  0  0  0.14925  0.261014  0  4.284822  0
C  C58  1  0.18571465  0.30072838  0.23239662  1  0  0.605913  0  3.926317  0  0  0.534757  0  4.22637  0  0  0.568722  0  4.223788  0  0  0.322191  0.511659  0  4.227502  0
C  C59  1  0.81429063  0.69927313  0.76760292  1  0  0.605954  0  3.926319  0  0  0.534782  0  4.226453  0  0  0.568748  0  4.223869  0  0  0.322158  0.511686  0  4.227586  0
C  C60  1  0.32357788  0.09276685  0.32522528  1  0  -0.154412  0  3.688794  0  0  -0.257024  0  3.942348  0  0  -0.253054  0  3.950887  0  0  -0.133426  -0.259223  0  3.9364  0
C  C61  1  0.67642025  0.90723463  0.67477546  1  0  -0.154477  0  3.688883  0  0  -0.257082  0  3.942452  0  0  -0.253107  0  3.95099  0  0  -0.133452  -0.259295  0  3.936511  0
C  C62  1  0.39976282  0.13284853  0.09769719  1  0  0.024481  0  3.640591  0  0  -0.035466  0  3.900793  0  0  -0.030433  0  3.912522  0  0  -0.064028  -0.038735  0  3.892734  0
C  C63  1  0.60023290  0.86715396  0.90230507  1  0  0.024326  0  3.640735  0  0  -0.035662  0  3.90097  0  0  -0.03064  0  3.912721  0  0  -0.064102  -0.038931  0  3.892911  0
C  C64  1  0.34791463  0.21774895  0.99316064  1  0  -0.171586  0  3.721935  0  0  -0.214777  0  3.9865  0  0  -0.217167  0  3.999574  0  0  -0.170525  -0.212962  0  3.977492  0
C  C65  1  0.65208257  0.78224951  0.00683963  1  0  -0.171577  0  3.721798  0  0  -0.214653  0  3.986266  0  0  -0.21704  0  3.999343  0  0  -0.170502  -0.21284  0  3.977259  0
C  C66  1  0.29129464  0.36583112  0.00782527  1  0  0.029122  0  3.670373  0  0  -0.034226  0  3.935204  0  0  -0.028946  0  3.946088  0  0  -0.058359  -0.037495  0  3.92788  0
C  C67  1  0.70870218  0.63416834  0.99217159  1  0  0.029245  0  3.670115  0  0  -0.034146  0  3.935036  0  0  -0.028847  0  3.94591  0  0  -0.058342  -0.037411  0  3.927707  0
C  C68  1  0.05603380  0.51571325  0.13902316  1  0  -0.158905  0  3.706674  0  0  -0.260383  0  3.96158  0  0  -0.256945  0  3.970287  0  0  -0.142858  -0.26234  0  3.955617  0
C  C69  1  0.94397222  0.48428625  0.86097825  1  0  -0.158749  0  3.706586  0  0  -0.260166  0  3.96152  0  0  -0.256725  0  3.970231  0  0  -0.142755  -0.262121  0  3.955557  0
C  C70  1  0.64381461  0.55637525  0.54720680  1  0  0.603072  0  3.920107  0  0  0.533177  0  4.219668  0  0  0.56734  0  4.217032  0  0  0.321647  0.509938  0  4.220895  0
C  C71  1  0.35618871  0.44362322  0.45279020  1  0  0.602994  0  3.920192  0  0  0.533095  0  4.219764  0  0  0.567259  0  4.21713  0  0  0.321602  0.509857  0  4.220993  0
C  C72  1  0.60028284  0.53960215  0.76548138  1  0  -0.14675  0  3.687594  0  0  -0.248603  0  3.94525  0  0  -0.244546  0  3.953396  0  0  -0.136546  -0.250869  0  3.939266  0
C  C73  1  0.39971761  0.46040135  0.23451461  1  0  -0.146583  0  3.687521  0  0  -0.248497  0  3.94519  0  0  -0.244435  0  3.953327  0  0  -0.136541  -0.250759  0  3.939205  0
C  C74  1  0.44144629  0.73515045  0.67305122  1  0  0.016556  0  3.685449  0  0  -0.042444  0  3.94773  0  0  -0.037572  0  3.95978  0  0  -0.063933  -0.045637  0  3.939505  0
C  C75  1  0.55854858  0.26484597  0.32694474  1  0  0.016  0  3.685971  0  0  -0.042714  0  3.948  0  0  -0.037833  0  3.960035  0  0  -0.064027  -0.04591  0  3.939781  0
C  C76  1  0.44694858  0.82403437  0.55078093  1  0  -0.164961  0  3.716704  0  0  -0.211593  0  3.981946  0  0  -0.213798  0  3.995545  0  0  -0.163752  -0.209869  0  3.972268  0
C  C77  1  0.55305009  0.17596004  0.44921240  1  0  -0.164713  0  3.716571  0  0  -0.211407  0  3.981809  0  0  -0.213628  0  3.995407  0  0  -0.163653  -0.209673  0  3.972117  0
C  C78  1  0.47023788  0.74150888  0.45822776  1  0  0.026282  0  3.657558  0  0  -0.03484  0  3.920713  0  0  -0.029791  0  3.9323  0  0  -0.05484  -0.038001  0  3.912556  0
C  C79  1  0.52977036  0.25848456  0.54176531  1  0  0.026194  0  3.657681  0  0  -0.034939  0  3.92088  0  0  -0.029853  0  3.932418  0  0  -0.05494  -0.038098  0  3.912714  0
C  C80  1  0.67076077  0.56292987  0.33495336  1  0  -0.155694  0  3.685827  0  0  -0.256217  0  3.939176  0  0  -0.25231  0  3.947729  0  0  -0.134066  -0.258498  0  3.933307  0
C  C81  1  0.32924720  0.43706156  0.66504365  1  0  -0.15572  0  3.685702  0  0  -0.256232  0  3.939071  0  0  -0.252317  0  3.947624  0  0  -0.134051  -0.258511  0  3.933199  0
S  S82  1  0.22722799  0.08199433  0.80011237  1  0  -0.303576  0  2.144114  0  0  -0.267171  0  2.456638  0  0  -0.283723  0  2.455219  0  0  -0.099108  -0.255789  0  2.457772  0
S  S83  1  0.77277024  0.91800414  0.19989078  1  0  -0.303711  0  2.143998  0  0  -0.267312  0  2.456496  0  0  -0.283867  0  2.455075  0  0  -0.099188  -0.255927  0  2.45763  0
S  S84  1  0.75675078  0.21854286  0.96596462  1  0  -0.304425  0  2.182236  0  0  -0.265278  0  2.496232  0  0  -0.282138  0  2.495519  0  0  -0.097614  -0.254167  0  2.496819  0
S  S85  1  0.24325330  0.78145362  0.03404002  1  0  -0.30449  0  2.18211  0  0  -0.265348  0  2.496127  0  0  -0.28221  0  2.495411  0  0  -0.097719  -0.254235  0  2.496718  0
S  S86  1  0.97206261  0.19869043  0.12381010  1  0  -0.282707  0  2.164931  0  0  -0.246219  0  2.477735  0  0  -0.262646  0  2.476301  0  0  -0.089848  -0.234835  0  2.478998  0
S  S87  1  0.02792229  0.80131109  0.87622062  1  0  -0.282691  0  2.164882  0  0  -0.246213  0  2.47773  0  0  -0.26262  0  2.476263  0  0  -0.089848  -0.234833  0  2.478994  0
N  N88  1  0.07595749  0.25629744  0.64432550  1  0  -0.566384  0  2.689951  0  0  -0.537402  0  2.939266  0  0  -0.551431  0  2.947756  0  0  -0.507965  -0.527868  0  2.933696  0
N  N89  1  0.92404130  0.74370508  0.35568129  1  0  -0.56642  0  2.689974  0  0  -0.53745  0  2.939334  0  0  -0.551482  0  2.947822  0  0  -0.50799  -0.527917  0  2.933766  0
N  N90  1  0.71735103  0.15313463  0.77737567  1  0  -0.501832  0  2.642843  0  0  -0.474244  0  2.879161  0  0  -0.486975  0  2.889694  0  0  -0.41187  -0.465838  0  2.872557  0
N  N91  1  0.28264191  0.84686988  0.22263292  1  0  -0.501638  0  2.642899  0  0  -0.474038  0  2.879193  0  0  -0.48677  0  2.889727  0  0  -0.411746  -0.465636  0  2.872598  0
N  N92  1  0.92501439  0.06647513  0.36837710  1  0  -0.572187  0  2.695208  0  0  -0.539312  0  2.940769  0  0  -0.554308  0  2.950744  0  0  -0.498166  -0.528922  0  2.934197  0
N  N93  1  0.07497143  0.93352939  0.63164339  1  0  -0.571993  0  2.695085  0  0  -0.539122  0  2.940648  0  0  -0.554118  0  2.950629  0  0  -0.498026  -0.528736  0  2.934078  0
N  N94  1  0.30225325  0.18377781  0.21670249  1  0  -0.229515  0  3.401145  0  0  -0.134059  0  3.642938  0  0  -0.15438  0  3.662752  0  0  -0.296407  -0.120286  0  3.629235  0
N  N95  1  0.69774628  0.81622267  0.78329879  1  0  -0.229553  0  3.401136  0  0  -0.134051  0  3.64292  0  0  -0.15437  0  3.662741  0  0  -0.296409  -0.120281  0  3.629221  0
N  N96  1  0.17626312  0.38971017  0.12878324  1  0  -0.233409  0  3.442973  0  0  -0.137976  0  3.684503  0  0  -0.158303  0  3.70515  0  0  -0.300701  -0.124256  0  3.670114  0
N  N97  1  0.82373918  0.61028830  0.87121664  1  0  -0.233494  0  3.442932  0  0  -0.138206  0  3.684678  0  0  -0.158534  0  3.705324  0  0  -0.300719  -0.124484  0  3.670284  0
N  N98  1  0.56969778  0.61353496  0.65516964  1  0  -0.232448  0  3.408131  0  0  -0.139008  0  3.650607  0  0  -0.159139  0  3.670071  0  0  -0.29831  -0.125313  0  3.637083  0
N  N99  1  0.43030006  0.38646450  0.34482681  1  0  -0.232404  0  3.40821  0  0  -0.139028  0  3.650663  0  0  -0.159163  0  3.670127  0  0  -0.298354  -0.125336  0  3.637143  0
N  N100  1  0.59701875  0.61936303  0.45080522  1  0  -0.223064  0  3.405805  0  0  -0.131269  0  3.650993  0  0  -0.151584  0  3.671332  0  0  -0.295806  -0.117355  0  3.636507  0
N  N101  1  0.40298773  0.38063243  0.54918967  1  0  -0.223  0  3.405693  0  0  -0.131176  0  3.650848  0  0  -0.151508  0  3.671193  0  0  -0.295738  -0.117261  0  3.636358  0
O  O102  1  0.09265051  0.32650696  0.33880649  1  0  -0.717963  0  1.983868  0  0  -0.674371  0  2.234996  0  0  -0.695767  0  2.224657  0  0  -0.468171  -0.659118  0  2.241559  0
O  O103  1  0.90735217  0.67350159  0.66119221  1  0  -0.717982  0  1.983986  0  0  -0.674357  0  2.235128  0  0  -0.695759  0  2.224799  0  0  -0.468147  -0.659085  0  2.241646  0
O  O104  1  0.75300461  0.44998890  0.53691502  1  0  -0.725097  0  1.999852  0  0  -0.682606  0  2.253961  0  0  -0.704069  0  2.242941  0  0  -0.47451  -0.667443  0  2.261339  0
O  O105  1  0.24700336  0.55001362  0.46308153  1  0  -0.72506  0  1.999914  0  0  -0.682581  0  2.254028  0  0  -0.704043  0  2.243009  0  0  -0.474428  -0.66742  0  2.26141  0
