# generated using pymatgen
data_UH19C15NO6
_symmetry_space_group_name_H-M   'P 1'
_cell_length_a   8.02280181
_cell_length_b   9.39288458
_cell_length_c   12.30142510
_cell_angle_alpha   109.46026299
_cell_angle_beta   96.46325550
_cell_angle_gamma   101.96085933
_symmetry_Int_Tables_number   1
_chemical_formula_structural   UH19C15NO6
_chemical_formula_sum   'U2 H38 C30 N2 O12'
_cell_volume   838.33143962
_cell_formula_units_Z   2
loop_
 _symmetry_equiv_pos_site_id
 _symmetry_equiv_pos_as_xyz
  1  'x, y, z'
loop_
 _atom_site_type_symbol
 _atom_site_label
 _atom_site_symmetry_multiplicity
 _atom_site_fract_x
 _atom_site_fract_y
 _atom_site_fract_z
 _atom_site_occupancy
 _atom_site_hle17_bader_spin_density
 _atom_site_hle17_ddec_charge
 _atom_site_hle17_ddec_spin_density
 _atom_site_hle17_ddec_sum_bond_order
 _atom_site_hle17_magmom
 _atom_site_hse06_10hf_bader_spin_density
 _atom_site_hse06_10hf_ddec_charge
 _atom_site_hse06_10hf_ddec_spin_density
 _atom_site_hse06_10hf_ddec_sum_bond_order
 _atom_site_hse06_10hf_magmom
 _atom_site_hse06_bader_spin_density
 _atom_site_hse06_ddec_charge
 _atom_site_hse06_ddec_spin_density
 _atom_site_hse06_ddec_sum_bond_order
 _atom_site_hse06_magmom
 _atom_site_pbe_bader_spin_density
 _atom_site_pbe_cm5_charge
 _atom_site_pbe_ddec_charge
 _atom_site_pbe_ddec_spin_density
 _atom_site_pbe_ddec_sum_bond_order
 _atom_site_pbe_magmom
U  U0  1  0.32877160  0.99378223  0.68116347  1  0  2.398985  0  4.237714  0  0  2.446724  0  4.912408  0  0  2.559675  0  4.873214  0  0  2.201618  2.36812  0  4.938387  0
U  U1  1  0.67122724  0.00621464  0.31883622  1  0  2.398916  0  4.237682  0  0  2.446799  0  4.912238  0  0  2.559692  0  4.873136  0  0  2.201604  2.368201  0  4.9382  0
H  H2  1  0.92177947  0.14510213  0.92951772  1  0  0.10858  0  0.907165  0  0  0.126818  0  0.95701  0  0  0.129345  0  0.955457  0  0  0.105106  0.124936  0  0.958326  0
H  H3  1  0.07822347  0.85490062  0.07048291  1  0  0.10857  0  0.907214  0  0  0.126807  0  0.957036  0  0  0.129332  0  0.955484  0  0  0.105105  0.124926  0  0.958349  0
H  H4  1  0.79548726  0.06496697  0.78644961  1  0  0.118118  0  0.934489  0  0  0.132305  0  0.996299  0  0  0.134566  0  0.995747  0  0  0.112556  0.130676  0  0.996847  0
H  H5  1  0.20450846  0.93503222  0.21355286  1  0  0.118115  0  0.93447  0  0  0.132296  0  0.99625  0  0  0.134556  0  0.995696  0  0  0.112553  0.13067  0  0.996801  0
H  H6  1  0.79794577  0.34489025  0.90028887  1  0  0.067069  0  0.939861  0  0  0.085951  0  1.000393  0  0  0.086376  0  1.001442  0  0  0.088372  0.08562  0  0.999765  0
H  H7  1  0.20205494  0.65510895  0.09970909  1  0  0.06708  0  0.939798  0  0  0.085956  0  1.00035  0  0  0.086376  0  1.001397  0  0  0.088376  0.085625  0  0.999722  0
H  H8  1  0.02017446  0.40504171  0.89746503  1  0  0.049642  0  0.948281  0  0  0.067553  0  1.013788  0  0  0.067608  0  1.015174  0  0  0.083023  0.067439  0  1.013026  0
H  H9  1  0.97982468  0.59495631  0.10253333  1  0  0.049645  0  0.948239  0  0  0.067546  0  1.013774  0  0  0.067598  0  1.015158  0  0  0.083019  0.067433  0  1.013011  0
H  H10  1  0.94737105  0.31010230  0.67677411  1  0  0.068236  0  0.957805  0  0  0.088393  0  1.01574  0  0  0.089703  0  1.015183  0  0  0.08617  0.087398  0  1.016344  0
H  H11  1  0.05262748  0.68989804  0.32322479  1  0  0.068258  0  0.957872  0  0  0.088418  0  1.015803  0  0  0.089727  0  1.015247  0  0  0.086181  0.087422  0  1.016403  0
H  H12  1  0.72901351  0.23590323  0.67797483  1  0  0.067285  0  0.946365  0  0  0.083321  0  1.01197  0  0  0.084596  0  1.011679  0  0  0.094948  0.082359  0  1.0123  0
H  H13  1  0.27098375  0.76409709  0.32202316  1  0  0.067338  0  0.946365  0  0  0.083379  0  1.011966  0  0  0.084654  0  1.011674  0  0  0.094962  0.082416  0  1.012298  0
H  H14  1  0.69475998  0.49720420  0.78126725  1  0  0.053788  0  0.951683  0  0  0.074305  0  1.011735  0  0  0.074168  0  1.014028  0  0  0.082135  0.074339  0  1.010219  0
H  H15  1  0.30523981  0.50279618  0.21873255  1  0  0.053759  0  0.951693  0  0  0.07428  0  1.011739  0  0  0.074142  0  1.014033  0  0  0.08213  0.074315  0  1.010223  0
H  H16  1  0.91875137  0.58360185  0.80468665  1  0  0.050017  0  0.938937  0  0  0.07057  0  0.998652  0  0  0.071018  0  0.999542  0  0  0.081859  0.070275  0  0.998036  0
H  H17  1  0.08125189  0.41639742  0.19531394  1  0  0.050042  0  0.939011  0  0  0.070599  0  0.998714  0  0  0.071048  0  0.999604  0  0  0.081891  0.070304  0  0.998099  0
H  H18  1  0.84449723  0.73615136  0.50680052  1  0  0.131261  0  0.920655  0  0  0.149641  0  0.972105  0  0  0.151978  0  0.970804  0  0  0.115349  0.148096  0  0.973099  0
H  H19  1  0.15550321  0.26385138  0.49320155  1  0  0.131196  0  0.920667  0  0  0.149583  0  0.97213  0  0  0.151921  0  0.97083  0  0  0.115323  0.148039  0  0.973122  0
H  H20  1  0.64448020  0.59449520  0.45021213  1  0  0.105373  0  0.929808  0  0  0.122313  0  0.989202  0  0  0.123321  0  0.990675  0  0  0.105544  0.121694  0  0.988158  0
H  H21  1  0.35552337  0.40550523  0.54978796  1  0  0.105366  0  0.929784  0  0  0.122324  0  0.989167  0  0  0.123333  0  0.990639  0  0  0.105542  0.121704  0  0.988121  0
H  H22  1  0.60247305  0.65606674  0.66732769  1  0  0.056122  0  0.962148  0  0  0.072207  0  1.029468  0  0  0.072576  0  1.031121  0  0  0.084956  0.071899  0  1.028388  0
H  H23  1  0.39752834  0.34393485  0.33267416  1  0  0.056133  0  0.962091  0  0  0.072257  0  1.029376  0  0  0.072631  0  1.031026  0  0  0.084998  0.07195  0  1.028299  0
H  H24  1  0.82157987  0.76475974  0.71100652  1  0  0.071222  0  0.932477  0  0  0.0912  0  0.99018  0  0  0.091836  0  0.990939  0  0  0.09197  0.090632  0  0.989856  0
H  H25  1  0.17842021  0.23523714  0.28899163  1  0  0.071174  0  0.9325  0  0  0.091141  0  0.990224  0  0  0.091778  0  0.990987  0  0  0.091968  0.090577  0  0.989899  0
H  H26  1  0.90398014  0.51791945  0.59010315  1  0  0.053235  0  0.945474  0  0  0.074024  0  1.005912  0  0  0.074153  0  1.006445  0  0  0.085928  0.073982  0  1.00554  0
H  H27  1  0.09602342  0.48208098  0.40989694  1  0  0.05326  0  0.945421  0  0  0.074051  0  1.005875  0  0  0.07418  0  1.006406  0  0  0.085937  0.074008  0  1.005501  0
H  H28  1  0.68551654  0.41462006  0.55946688  1  0  0.057598  0  0.945848  0  0  0.078426  0  1.00596  0  0  0.078651  0  1.007188  0  0  0.088355  0.078328  0  1.005119  0
H  H29  1  0.31448576  0.58538033  0.44053148  1  0  0.057603  0  0.945847  0  0  0.078446  0  1.005962  0  0  0.078671  0  1.00719  0  0  0.088362  0.078346  0  1.005119  0
H  H30  1  0.16616369  0.62656352  0.66823099  1  0  0.080406  0  0.951214  0  0  0.088308  0  1.01619  0  0  0.090415  0  1.014085  0  0  0.126793  0.086686  0  1.017783  0
H  H31  1  0.83383955  0.37343573  0.33176797  1  0  0.08039  0  0.951244  0  0  0.088302  0  1.016204  0  0  0.0904  0  1.014114  0  0  0.126782  0.086684  0  1.017795  0
H  H32  1  0.58230099  0.96925583  0.90691352  1  0  0.081436  0  0.948105  0  0  0.089988  0  1.011771  0  0  0.092044  0  1.01013  0  0  0.12649  0.08838  0  1.013076  0
H  H33  1  0.41770100  0.03074342  0.09308698  1  0  0.081439  0  0.948096  0  0  0.089991  0  1.011761  0  0  0.092049  0  1.01012  0  0  0.12649  0.088385  0  1.013066  0
H  H34  1  0.21327356  0.43071656  0.75723301  1  0  0.12665  0  0.967717  0  0  0.135617  0  1.028538  0  0  0.139492  0  1.027268  0  0  0.116856  0.13259  0  1.030295  0
H  H35  1  0.78672500  0.56928383  0.24276997  1  0  0.126644  0  0.96771  0  0  0.135628  0  1.02851  0  0  0.139505  0  1.027235  0  0  0.116837  0.132601  0  1.03027  0
H  H36  1  0.64394410  0.79317498  0.00768928  1  0  0.114028  0  0.960496  0  0  0.125027  0  1.017799  0  0  0.128363  0  1.016731  0  0  0.116693  0.122462  0  1.018611  0
H  H37  1  0.35605413  0.20682425  0.99231339  1  0  0.114061  0  0.960511  0  0  0.125062  0  1.017805  0  0  0.128399  0  1.016737  0  0  0.116726  0.122497  0  1.018617  0
H  H38  1  0.37541869  0.36267144  0.89595335  1  0  0.098497  0  0.977888  0  0  0.107985  0  1.042614  0  0  0.1112  0  1.040922  0  0  0.11171  0.105669  0  1.043975  0
H  H39  1  0.62458019  0.63733014  0.10405075  1  0  0.098488  0  0.977889  0  0  0.107977  0  1.04263  0  0  0.111193  0  1.040936  0  0  0.111728  0.105663  0  1.043991  0
C  C40  1  0.06383066  0.10384098  0.79299193  1  0  0.688169  0  3.808191  0  0  0.654196  0  4.115932  0  0  0.689903  0  4.109182  0  0  0.207063  0.629752  0  4.119305  0
C  C41  1  0.93616565  0.89615585  0.20700675  1  0  0.688341  0  3.808019  0  0  0.654347  0  4.115769  0  0  0.690051  0  4.109014  0  0  0.207141  0.629901  0  4.11915  0
C  C42  1  0.91361916  0.15472954  0.84239487  1  0  -0.259324  0  3.664857  0  0  -0.292753  0  3.906263  0  0  -0.298146  0  3.912932  0  0  -0.156167  -0.289105  0  3.901749  0
C  C43  1  0.08637843  0.84527196  0.15760507  1  0  -0.259405  0  3.664888  0  0  -0.292773  0  3.906234  0  0  -0.298164  0  3.912897  0  0  -0.156178  -0.289128  0  3.901723  0
C  C44  1  0.89760611  0.31665808  0.84813242  1  0  -0.074848  0  3.685888  0  0  -0.114897  0  3.944611  0  0  -0.114647  0  3.958424  0  0  -0.164619  -0.115005  0  3.93515  0
C  C45  1  0.10239368  0.68334229  0.15186657  1  0  -0.074807  0  3.685687  0  0  -0.114881  0  3.944435  0  0  -0.114615  0  3.958226  0  0  -0.164619  -0.11499  0  3.934974  0
C  C46  1  0.84618252  0.33007005  0.72899137  1  0  -0.117719  0  3.679485  0  0  -0.155806  0  3.936284  0  0  -0.156901  0  3.950082  0  0  -0.169275  -0.154933  0  3.926664  0
C  C47  1  0.15381601  0.66992567  0.27100881  1  0  -0.117901  0  3.679592  0  0  -0.155994  0  3.936411  0  0  -0.157092  0  3.950206  0  0  -0.169326  -0.155114  0  3.926785  0
C  C48  1  0.81068044  0.48793025  0.74180252  1  0  -0.10131  0  3.699859  0  0  -0.140338  0  3.961933  0  0  -0.141655  0  3.977949  0  0  -0.168177  -0.139272  0  3.950672  0
C  C49  1  0.18932029  0.51206898  0.25819707  1  0  -0.101256  0  3.699992  0  0  -0.140263  0  3.962073  0  0  -0.141581  0  3.97809  0  0  -0.168191  -0.139195  0  3.95081  0
C  C50  1  0.62221572  0.82408268  0.52467182  1  0  0.783362  0  3.736324  0  0  0.758975  0  4.021297  0  0  0.800573  0  4.005442  0  0  0.26759  0.730005  0  4.031431  0
C  C51  1  0.37778249  0.17591649  0.47532676  1  0  0.783347  0  3.736272  0  0  0.758962  0  4.021268  0  0  0.800563  0  4.00541  0  0  0.267596  0.729992  0  4.031404  0
C  C52  1  0.71529252  0.70044325  0.52672343  1  0  -0.279434  0  3.657227  0  0  -0.317442  0  3.896134  0  0  -0.32469  0  3.904647  0  0  -0.153712  -0.312333  0  3.889994  0
C  C53  1  0.28470791  0.29955947  0.47327700  1  0  -0.279373  0  3.657099  0  0  -0.317434  0  3.896096  0  0  -0.324681  0  3.904612  0  0  -0.153703  -0.312324  0  3.889953  0
C  C54  1  0.72870952  0.66564015  0.63959904  1  0  -0.084015  0  3.700318  0  0  -0.12561  0  3.962758  0  0  -0.125733  0  3.977015  0  0  -0.16808  -0.125423  0  3.952974  0
C  C55  1  0.27129153  0.33436023  0.36040004  1  0  -0.083949  0  3.700308  0  0  -0.125529  0  3.962754  0  0  -0.125663  0  3.977026  0  0  -0.168102  -0.125341  0  3.952972  0
C  C56  1  0.78381063  0.51528139  0.62603945  1  0  -0.10314  0  3.688872  0  0  -0.142254  0  3.95215  0  0  -0.143039  0  3.9673  0  0  -0.163924  -0.141535  0  3.941415  0
C  C57  1  0.21619167  0.48471900  0.37395891  1  0  -0.103187  0  3.688877  0  0  -0.142359  0  3.952237  0  0  -0.143139  0  3.967387  0  0  -0.163941  -0.141638  0  3.9415  0
C  C58  1  0.26956883  0.65811061  0.74416032  1  0  0.133458  0  3.725631  0  0  0.106995  0  3.98983  0  0  0.116235  0  4.006327  0  0  0.057345  0.101224  0  3.979388  0
C  C59  1  0.73043348  0.34188980  0.25583967  1  0  0.133457  0  3.725582  0  0  0.106983  0  3.989791  0  0  0.116229  0  4.006283  0  0  0.057374  0.101209  0  3.97935  0
C  C60  1  0.50173696  0.84967445  0.87786959  1  0  0.129786  0  3.721455  0  0  0.103537  0  3.983958  0  0  0.112119  0  4.001114  0  0  0.056904  0.098108  0  3.971429  0
C  C61  1  0.49826315  0.15032711  0.12213135  1  0  0.129812  0  3.721443  0  0  0.103563  0  3.983954  0  0  0.112143  0  4.00111  0  0  0.056901  0.098136  0  3.971426  0
C  C62  1  0.29591436  0.55013262  0.79401078  1  0  -0.158  0  3.662486  0  0  -0.175082  0  3.904486  0  0  -0.183114  0  3.923506  0  0  -0.072338  -0.17158  0  3.893646  0
C  C63  1  0.70408763  0.44986662  0.20598890  1  0  -0.157966  0  3.662514  0  0  -0.175062  0  3.904484  0  0  -0.183092  0  3.923501  0  0  -0.07232  -0.17156  0  3.893651  0
C  C64  1  0.53536004  0.74976734  0.93357600  1  0  -0.139715  0  3.666463  0  0  -0.154945  0  3.902699  0  0  -0.162233  0  3.921553  0  0  -0.066727  -0.148204  0  3.888341  0
C  C65  1  0.46463977  0.25023306  0.06642544  1  0  -0.139756  0  3.66649  0  0  -0.155002  0  3.902717  0  0  -0.162294  0  3.921574  0  0  -0.066747  -0.148261  0  3.88836  0
C  C66  1  0.42929631  0.59561534  0.89299680  1  0  0.142508  0  3.785879  0  0  0.157713  0  4.015675  0  0  0.163945  0  4.036751  0  0  0.017957  0.153707  0  4.000829  0
C  C67  1  0.57070288  0.40438739  0.10700599  1  0  0.14247  0  3.785926  0  0  0.15772  0  4.015691  0  0  0.163953  0  4.036766  0  0  0.01795  0.153715  0  4.000848  0
C  C68  1  0.44960446  0.48278941  0.94715130  1  0  -0.084349  0  3.684837  0  0  -0.107265  0  3.938061  0  0  -0.11009  0  3.956769  0  0  -0.067862  -0.104708  0  3.924757  0
C  C69  1  0.55039567  0.51721217  0.05285127  1  0  -0.084277  0  3.684818  0  0  -0.107258  0  3.938071  0  0  -0.110083  0  3.956778  0  0  -0.067837  -0.104707  0  3.92477  0
N  N70  1  0.36971009  0.80642219  0.78522787  1  0  -0.387566  0  3.284276  0  0  -0.355661  0  3.579267  0  0  -0.378013  0  3.602433  0  0  -0.38536  -0.340988  0  3.563183  0
N  N71  1  0.63029003  0.19357938  0.21477388  1  0  -0.387578  0  3.284152  0  0  -0.355679  0  3.579149  0  0  -0.378022  0  3.602309  0  0  -0.385374  -0.341006  0  3.563067  0
O  O72  1  0.49408204  0.13925458  0.80194356  1  0  -0.70546  0  1.615366  0  0  -0.708913  0  1.921087  0  0  -0.732862  0  1.91081  0  0  -0.754308  -0.694295  0  1.928188  0
O  O73  1  0.50591301  0.86074686  0.19805373  1  0  -0.705439  0  1.615384  0  0  -0.708927  0  1.921092  0  0  -0.732864  0  1.910824  0  0  -0.754308  -0.694318  0  1.928201  0
O  O74  1  0.16357353  0.83847536  0.56646282  1  0  -0.707276  0  1.55484  0  0  -0.715769  0  1.843944  0  0  -0.737928  0  1.831382  0  0  -0.75886  -0.702708  0  1.853065  0
O  O75  1  0.83642845  0.16152387  0.43353604  1  0  -0.707236  0  1.554749  0  0  -0.715775  0  1.843842  0  0  -0.737921  0  1.831294  0  0  -0.758835  -0.702715  0  1.85296  0
O  O76  1  0.13755592  0.16427758  0.72512477  1  0  -0.636376  0  1.972308  0  0  -0.617381  0  2.226298  0  0  -0.650498  0  2.221834  0  0  -0.355279  -0.593387  0  2.228221  0
O  O77  1  0.86244101  0.83571692  0.27487256  1  0  -0.636435  0  1.972256  0  0  -0.617465  0  2.226262  0  0  -0.650585  0  2.221819  0  0  -0.355331  -0.593469  0  2.228185  0
O  O78  1  0.11999262  0.99654895  0.81578152  1  0  -0.648395  0  1.921442  0  0  -0.63787  0  2.167742  0  0  -0.669584  0  2.163078  0  0  -0.359327  -0.614802  0  2.169356  0
O  O79  1  0.88000368  0.00344787  0.18421634  1  0  -0.648398  0  1.921335  0  0  -0.637876  0  2.167632  0  0  -0.669581  0  2.16297  0  0  -0.359332  -0.614806  0  2.169247  0
O  O80  1  0.55009518  0.88319687  0.60952594  1  0  -0.672027  0  2.084451  0  0  -0.661389  0  2.366602  0  0  -0.698538  0  2.359306  0  0  -0.363597  -0.63445  0  2.370316  0
O  O81  1  0.44990367  0.11680466  0.39047409  1  0  -0.672011  0  2.084496  0  0  -0.661389  0  2.366651  0  0  -0.698529  0  2.359354  0  0  -0.363563  -0.634449  0  2.370366  0
O  O82  1  0.61621473  0.86392751  0.43504522  1  0  -0.675909  0  2.086586  0  0  -0.668759  0  2.370749  0  0  -0.70622  0  2.360358  0  0  -0.385712  -0.641692  0  2.37644  0
O  O83  1  0.38378093  0.13606697  0.56495202  1  0  -0.675896  0  2.086561  0  0  -0.66871  0  2.370703  0  0  -0.706185  0  2.360309  0  0  -0.38573  -0.641653  0  2.376413  0
