# generated using pymatgen
data_CdH20C28(NO2)2
_symmetry_space_group_name_H-M   'P 1'
_cell_length_a   8.45504623
_cell_length_b   12.48481208
_cell_length_c   12.23599896
_cell_angle_alpha   95.20617019
_cell_angle_beta   90.04073156
_cell_angle_gamma   109.80088974
_symmetry_Int_Tables_number   1
_chemical_formula_structural   CdH20C28(NO2)2
_chemical_formula_sum   'Cd2 H40 C56 N4 O8'
_cell_volume   1209.56579824
_cell_formula_units_Z   2
loop_
 _symmetry_equiv_pos_site_id
 _symmetry_equiv_pos_as_xyz
  1  'x, y, z'
loop_
 _atom_site_type_symbol
 _atom_site_label
 _atom_site_symmetry_multiplicity
 _atom_site_fract_x
 _atom_site_fract_y
 _atom_site_fract_z
 _atom_site_occupancy
 _atom_site_hle17_bader_spin_density
 _atom_site_hle17_ddec_charge
 _atom_site_hle17_ddec_spin_density
 _atom_site_hle17_ddec_sum_bond_order
 _atom_site_hle17_magmom
 _atom_site_hse06_10hf_bader_spin_density
 _atom_site_hse06_10hf_ddec_charge
 _atom_site_hse06_10hf_ddec_spin_density
 _atom_site_hse06_10hf_ddec_sum_bond_order
 _atom_site_hse06_10hf_magmom
 _atom_site_hse06_bader_spin_density
 _atom_site_hse06_ddec_charge
 _atom_site_hse06_ddec_spin_density
 _atom_site_hse06_ddec_sum_bond_order
 _atom_site_hse06_magmom
 _atom_site_pbe_bader_spin_density
 _atom_site_pbe_cm5_charge
 _atom_site_pbe_ddec_charge
 _atom_site_pbe_ddec_spin_density
 _atom_site_pbe_ddec_sum_bond_order
 _atom_site_pbe_magmom
Cd  Cd0  1  0.63719412  0.99982022  0.49984376  1  0  1.072405  0  1.697286  0  0  0.878462  0  2.143089  0  0  0.937929  0  2.091825  0  0  0.775711  0.836641  0  2.177778  0
Cd  Cd1  1  0.25620481  0.00012376  0.99981298  1  0  1.064208  0  1.697367  0  0  0.866257  0  2.143839  0  0  0.925766  0  2.094117  0  0  0.766036  0.824513  0  2.177324  0
H  H2  1  0.86218722  0.32220140  0.33913647  1  0  0.107985  0  0.962574  0  0  0.11708  0  1.02749  0  0  0.120808  0  1.025033  0  0  0.103518  0.11438  0  1.029336  0
H  H3  1  0.53938094  0.67742165  0.66087724  1  0  0.108152  0  0.962459  0  0  0.117117  0  1.02748  0  0  0.120823  0  1.025089  0  0  0.103225  0.114435  0  1.029296  0
H  H4  1  0.92667709  0.63249456  0.13575760  1  0  0.082543  0  0.959048  0  0  0.093324  0  1.022897  0  0  0.09579  0  1.022462  0  0  0.097242  0.091536  0  1.023321  0
H  H5  1  0.29380688  0.36771086  0.86479156  1  0  0.081736  0  0.958962  0  0  0.092469  0  1.023104  0  0  0.094934  0  1.022659  0  0  0.096846  0.090736  0  1.023466  0
H  H6  1  0.83382900  0.79101487  0.21934674  1  0  0.10514  0  0.943643  0  0  0.114092  0  1.005632  0  0  0.117753  0  1.002599  0  0  0.106481  0.111457  0  1.007854  0
H  H7  1  0.04248664  0.20884543  0.78129813  1  0  0.10449  0  0.944076  0  0  0.114159  0  1.0053  0  0  0.117747  0  1.002332  0  0  0.10634  0.111545  0  1.007497  0
H  H8  1  0.02001584  0.33948053  0.04326149  1  0  0.097399  0  0.963919  0  0  0.110102  0  1.022564  0  0  0.112817  0  1.022429  0  0  0.104165  0.108197  0  1.022748  0
H  H9  1  0.68077835  0.66053838  0.95679680  1  0  0.097795  0  0.964358  0  0  0.10976  0  1.023773  0  0  0.112548  0  1.023531  0  0  0.103993  0.107822  0  1.023973  0
H  H10  1  0.78909823  0.45778280  0.42775419  1  0  0.090968  0  0.956054  0  0  0.103157  0  1.016728  0  0  0.106262  0  1.015083  0  0  0.100138  0.1009  0  1.018057  0
H  H11  1  0.33012871  0.54185946  0.57244956  1  0  0.091359  0  0.954383  0  0  0.103349  0  1.015372  0  0  0.106408  0  1.013761  0  0  0.100486  0.10115  0  1.016648  0
H  H12  1  0.07531943  0.02377164  0.23495077  1  0  0.095004  0  0.924088  0  0  0.105108  0  0.982783  0  0  0.108065  0  0.979762  0  0  0.120839  0.102897  0  0.985042  0
H  H13  1  0.05118018  0.97606157  0.76473232  1  0  0.095286  0  0.924137  0  0  0.105475  0  0.98273  0  0  0.108351  0  0.979799  0  0  0.121025  0.103305  0  0.984935  0
H  H14  1  0.94571622  0.15712755  0.33422730  1  0  0.122692  0  0.972701  0  0  0.130251  0  1.035157  0  0  0.134015  0  1.033924  0  0  0.107121  0.127536  0  1.03623  0
H  H15  1  0.78810944  0.84241590  0.66553516  1  0  0.123192  0  0.972053  0  0  0.130972  0  1.034315  0  0  0.134754  0  1.033047  0  0  0.107567  0.128252  0  1.035392  0
H  H16  1  0.72506740  0.34609295  0.00197393  1  0  0.0953  0  0.961149  0  0  0.103329  0  1.028338  0  0  0.106595  0  1.026246  0  0  0.098983  0.100985  0  1.029827  0
H  H17  1  0.37912438  0.65425612  0.99785072  1  0  0.094458  0  0.962324  0  0  0.10281  0  1.029022  0  0  0.105994  0  1.027057  0  0  0.09887  0.100459  0  1.030545  0
H  H18  1  0.69105799  0.39173721  0.60449358  1  0  0.088586  0  0.949561  0  0  0.100576  0  1.010399  0  0  0.103435  0  1.009552  0  0  0.099349  0.098542  0  1.011084  0
H  H19  1  0.29932816  0.60869186  0.39530068  1  0  0.089351  0  0.949388  0  0  0.101203  0  1.010233  0  0  0.104109  0  1.009341  0  0  0.099646  0.099144  0  1.010957  0
H  H20  1  0.48418624  0.22571376  0.68418167  1  0  0.095677  0  0.9566  0  0  0.104182  0  1.022214  0  0  0.107362  0  1.020003  0  0  0.102644  0.10189  0  1.023854  0
H  H21  1  0.25855702  0.77466304  0.31539985  1  0  0.096062  0  0.956903  0  0  0.105088  0  1.021857  0  0  0.108288  0  1.019612  0  0  0.102939  0.102782  0  1.023497  0
H  H22  1  0.92764506  0.51567020  0.92579225  1  0  0.083168  0  0.961408  0  0  0.094494  0  1.023705  0  0  0.097593  0  1.022101  0  0  0.096155  0.092288  0  1.024923  0
H  H23  1  0.41206214  0.48471502  0.07419727  1  0  0.082719  0  0.961788  0  0  0.094032  0  1.024136  0  0  0.097167  0  1.022464  0  0  0.096031  0.091802  0  1.025398  0
H  H24  1  0.69497341  0.61574643  0.50882164  1  0  0.094362  0  0.958457  0  0  0.103042  0  1.024561  0  0  0.106395  0  1.022219  0  0  0.100659  0.10062  0  1.026267  0
H  H25  1  0.07822854  0.38350628  0.49141836  1  0  0.094413  0  0.957379  0  0  0.103166  0  1.023698  0  0  0.106464  0  1.021393  0  0  0.100724  0.100803  0  1.025347  0
H  H26  1  0.97762332  0.46586703  0.14268512  1  0  0.078095  0  0.963983  0  0  0.090761  0  1.02679  0  0  0.093101  0  1.025985  0  0  0.098203  0.089078  0  1.027445  0
H  H27  1  0.51126860  0.53410960  0.85761618  1  0  0.077372  0  0.964787  0  0  0.090803  0  1.026831  0  0  0.093036  0  1.026148  0  0  0.098201  0.089175  0  1.027428  0
H  H28  1  0.14692618  0.20133374  0.95903499  1  0  0.073735  0  0.963494  0  0  0.08331  0  1.028776  0  0  0.085359  0  1.027025  0  0  0.112473  0.081778  0  1.030098  0
H  H29  1  0.94601831  0.79898999  0.04096833  1  0  0.074049  0  0.96307  0  0  0.083748  0  1.028263  0  0  0.085736  0  1.026557  0  0  0.112418  0.082285  0  1.029503  0
H  H30  1  0.24276775  0.88011298  0.47218783  1  0  0.074561  0  0.941053  0  0  0.083772  0  1.003754  0  0  0.086339  0  1.001333  0  0  0.115485  0.081861  0  1.00558  0
H  H31  1  0.36193850  0.11967501  0.52755076  1  0  0.074444  0  0.940901  0  0  0.083302  0  1.003949  0  0  0.08587  0  1.001529  0  0  0.115424  0.081385  0  1.005793  0
H  H32  1  0.03796173  0.71503811  0.55065298  1  0  0.100557  0  0.974137  0  0  0.110433  0  1.035894  0  0  0.112999  0  1.036575  0  0  0.102568  0.10859  0  1.035576  0
H  H33  1  0.32256935  0.28502353  0.44922935  1  0  0.101362  0  0.974006  0  0  0.111671  0  1.034934  0  0  0.114247  0  1.035607  0  0  0.102967  0.10982  0  1.034619  0
H  H34  1  0.36268042  0.80188711  0.84336176  1  0  0.125911  0  0.982278  0  0  0.133244  0  1.045088  0  0  0.137664  0  1.04255  0  0  0.106928  0.130061  0  1.04708  0
H  H35  1  0.56044525  0.19854396  0.15669795  1  0  0.125838  0  0.982131  0  0  0.133252  0  1.045067  0  0  0.137671  0  1.042522  0  0  0.106768  0.130076  0  1.047036  0
H  H36  1  0.55569470  0.96351432  0.75067622  1  0  0.08604  0  0.913459  0  0  0.098719  0  0.96705  0  0  0.100896  0  0.965592  0  0  0.122172  0.097078  0  0.968201  0
H  H37  1  0.59168719  0.03673397  0.24926638  1  0  0.085584  0  0.913787  0  0  0.098521  0  0.96706  0  0  0.100662  0  0.965688  0  0  0.122201  0.096872  0  0.968193  0
H  H38  1  0.11055186  0.64253635  0.84306420  1  0  0.09142  0  0.946403  0  0  0.10444  0  1.006559  0  0  0.107207  0  1.005546  0  0  0.101794  0.102471  0  1.007323  0
H  H39  1  0.46765117  0.35775593  0.15702659  1  0  0.092109  0  0.947179  0  0  0.10505  0  1.007212  0  0  0.107788  0  1.006257  0  0  0.102012  0.103098  0  1.007952  0
H  H40  1  0.91028550  0.56485975  0.62245585  1  0  0.079329  0  0.966152  0  0  0.092675  0  1.029485  0  0  0.094796  0  1.028532  0  0  0.099763  0.091142  0  1.030223  0
H  H41  1  0.34542726  0.43553569  0.37752280  1  0  0.079035  0  0.965636  0  0  0.092275  0  1.029244  0  0  0.094473  0  1.028198  0  0  0.099676  0.090695  0  1.030028  0
C  C42  1  0.91343819  0.34525514  0.25919171  1  0  -0.126008  0  3.717357  0  0  -0.146127  0  3.971095  0  0  -0.150661  0  3.99142  0  0  -0.089071  -0.142918  0  3.957125  0
C  C43  1  0.56771929  0.65451713  0.74090015  1  0  -0.125716  0  3.716223  0  0  -0.1458  0  3.969976  0  0  -0.150356  0  3.990252  0  0  -0.088473  -0.142589  0  3.956016  0
C  C44  1  0.87425689  0.62853186  0.21739612  1  0  -0.109267  0  3.727844  0  0  -0.126154  0  3.974684  0  0  -0.130837  0  3.997253  0  0  -0.085564  -0.12297  0  3.95928  0
C  C45  1  0.24527284  0.37141760  0.78306265  1  0  -0.107419  0  3.726342  0  0  -0.124582  0  3.973742  0  0  -0.129259  0  3.99629  0  0  -0.084774  -0.121445  0  3.958337  0
C  C46  1  0.97683698  0.26294185  0.19937761  1  0  0.146092  0  3.789639  0  0  0.160976  0  4.018736  0  0  0.167107  0  4.041365  0  0  0.011192  0.157092  0  4.003224  0
C  C47  1  0.71373881  0.73684505  0.80060171  1  0  0.145394  0  3.787869  0  0  0.160776  0  4.016476  0  0  0.166973  0  4.039065  0  0  0.010493  0.156846  0  4.000992  0
C  C48  1  0.86354802  0.53374392  0.27513803  1  0  0.090024  0  3.828867  0  0  0.10867  0  4.056438  0  0  0.109769  0  4.081876  0  0  -0.009828  0.108078  0  4.038987  0
C  C49  1  0.32913857  0.46608380  0.72518014  1  0  0.089141  0  3.831308  0  0  0.108072  0  4.058312  0  0  0.109197  0  4.083627  0  0  -0.010353  0.107464  0  4.040956  0
C  C50  1  0.82331993  0.71690536  0.26319731  1  0  -0.053519  0  3.728363  0  0  -0.078752  0  3.975924  0  0  -0.077562  0  3.995674  0  0  -0.079372  -0.079307  0  3.962443  0
C  C51  1  0.10604644  0.28284544  0.73730724  1  0  -0.053323  0  3.726917  0  0  -0.079267  0  3.974683  0  0  -0.077984  0  3.99444  0  0  -0.079284  -0.079863  0  3.961229  0
C  C52  1  0.70687509  0.80863793  0.41919857  1  0  0.620007  0  3.955146  0  0  0.574509  0  4.239623  0  0  0.608857  0  4.234996  0  0  0.186556  0.551306  0  4.241723  0
C  C53  1  0.89814981  0.19048727  0.58110243  1  0  0.618779  0  3.957801  0  0  0.573393  0  4.242015  0  0  0.60779  0  4.23737  0  0  0.186342  0.550158  0  4.244115  0
C  C54  1  0.75884748  0.71264831  0.36863530  1  0  -0.052917  0  3.745386  0  0  -0.027567  0  3.971807  0  0  -0.036557  0  3.996331  0  0  -0.015147  -0.021774  0  3.955258  0
C  C55  1  0.04578017  0.28676882  0.63172956  1  0  -0.051439  0  3.744281  0  0  -0.026049  0  3.970904  0  0  -0.035065  0  3.995412  0  0  -0.014527  -0.020257  0  3.954391  0
C  C56  1  0.03107340  0.27248031  0.09061927  1  0  -0.161143  0  3.714762  0  0  -0.177453  0  3.956209  0  0  -0.185502  0  3.977706  0  0  -0.085051  -0.172273  0  3.941762  0
C  C57  1  0.75877558  0.72745880  0.90938239  1  0  -0.160807  0  3.715675  0  0  -0.176683  0  3.957004  0  0  -0.184775  0  3.978415  0  0  -0.084476  -0.171446  0  3.942599  0
C  C58  1  0.79902481  0.53044622  0.38155694  1  0  -0.118567  0  3.732816  0  0  -0.135483  0  3.977366  0  0  -0.139922  0  3.999245  0  0  -0.090304  -0.132459  0  3.962416  0
C  C59  1  0.26760821  0.46923050  0.61872614  1  0  -0.117167  0  3.731352  0  0  -0.133979  0  3.975828  0  0  -0.138374  0  3.997679  0  0  -0.089389  -0.131003  0  3.960881  0
C  C60  1  0.46900578  0.17515188  0.89349795  1  0  0.615282  0  3.95957  0  0  0.569457  0  4.245712  0  0  0.603762  0  4.240411  0  0  0.18647  0.546275  0  4.248326  0
C  C61  1  0.29378197  0.82508943  0.10609928  1  0  0.614933  0  3.958137  0  0  0.569685  0  4.243689  0  0  0.603939  0  4.23839  0  0  0.185764  0.546548  0  4.246304  0
C  C62  1  0.59292541  0.27562809  0.84720179  1  0  -0.053474  0  3.755295  0  0  -0.028388  0  3.982377  0  0  -0.037049  0  4.006223  0  0  -0.01667  -0.022855  0  3.966338  0
C  C63  1  0.31717832  0.72459030  0.15245677  1  0  -0.053943  0  3.754584  0  0  -0.029647  0  3.982458  0  0  -0.038248  0  4.006185  0  0  -0.017377  -0.02416  0  3.966514  0
C  C64  1  0.06106803  0.09563585  0.19653645  1  0  0.137597  0  3.707744  0  0  0.105632  0  3.959933  0  0  0.114307  0  3.977131  0  0  0.048787  0.100082  0  3.948048  0
C  C65  1  0.96521652  0.90422866  0.80323806  1  0  0.137524  0  3.707161  0  0  0.105473  0  3.959425  0  0  0.11425  0  3.976591  0  0  0.048971  0.099864  0  3.947568  0
C  C66  1  0.98911412  0.16948880  0.25087658  1  0  -0.162515  0  3.661572  0  0  -0.177574  0  3.905647  0  0  -0.186194  0  3.925819  0  0  -0.080267  -0.172032  0  3.892104  0
C  C67  1  0.81936850  0.83017711  0.74893164  1  0  -0.162964  0  3.660419  0  0  -0.178586  0  3.904648  0  0  -0.187287  0  3.924857  0  0  -0.080756  -0.172986  0  3.891075  0
C  C68  1  0.82482518  0.46575211  0.75900156  1  0  0.091258  0  3.819656  0  0  0.109236  0  4.050509  0  0  0.110409  0  4.075649  0  0  -0.00789  0.108594  0  4.03332  0
C  C69  1  0.35883748  0.53453066  0.24087733  1  0  0.090702  0  3.81985  0  0  0.108402  0  4.051131  0  0  0.109602  0  4.076308  0  0  -0.008158  0.107722  0  4.033955  0
C  C70  1  0.71878013  0.35770790  0.91500068  1  0  -0.084272  0  3.764094  0  0  -0.107786  0  4.012598  0  0  -0.107459  0  4.033239  0  0  -0.090591  -0.107721  0  3.998497  0
C  C71  1  0.36118487  0.64261552  0.08480651  1  0  -0.083653  0  3.765997  0  0  -0.107088  0  4.014293  0  0  -0.106657  0  4.034864  0  0  -0.090548  -0.10708  0  4.000255  0
C  C72  1  0.69827066  0.38250871  0.69200492  1  0  -0.102739  0  3.713989  0  0  -0.121817  0  3.963313  0  0  -0.126404  0  3.985366  0  0  -0.082973  -0.118786  0  3.948305  0
C  C73  1  0.31570776  0.61783139  0.30778749  1  0  -0.102961  0  3.71435  0  0  -0.121782  0  3.963717  0  0  -0.126389  0  3.985772  0  0  -0.082878  -0.11875  0  3.948729  0
C  C74  1  0.58341992  0.28931883  0.73539516  1  0  -0.055585  0  3.738872  0  0  -0.080765  0  3.988273  0  0  -0.080129  0  4.009317  0  0  -0.080717  -0.080953  0  3.973955  0
C  C75  1  0.29424088  0.71105882  0.26429184  1  0  -0.056478  0  3.738035  0  0  -0.081904  0  3.987298  0  0  -0.081289  0  4.008353  0  0  -0.081097  -0.082059  0  3.972958  0
C  C76  1  0.83213745  0.45182763  0.87188288  1  0  -0.119954  0  3.743458  0  0  -0.137189  0  3.99018  0  0  -0.141598  0  4.012247  0  0  -0.09171  -0.134234  0  3.975107  0
C  C77  1  0.38022437  0.54846993  0.12803233  1  0  -0.119523  0  3.746318  0  0  -0.137044  0  3.993578  0  0  -0.14141  0  4.015547  0  0  -0.092218  -0.134113  0  3.978558  0
C  C78  1  0.74642571  0.61819967  0.42698459  1  0  -0.081137  0  3.766728  0  0  -0.103513  0  4.016995  0  0  -0.103106  0  4.037034  0  0  -0.08698  -0.1035  0  4.003265  0
C  C79  1  0.12740284  0.38124750  0.57330796  1  0  -0.083618  0  3.76457  0  0  -0.106273  0  4.015594  0  0  -0.105812  0  4.035664  0  0  -0.088684  -0.106299  0  4.001826  0
C  C80  1  0.92075804  0.44553865  0.22182421  1  0  -0.087332  0  3.748369  0  0  -0.107125  0  3.99857  0  0  -0.108448  0  4.019997  0  0  -0.080565  -0.106117  0  3.983799  0
C  C81  1  0.47466278  0.55434761  0.77840929  1  0  -0.086575  0  3.75016  0  0  -0.10702  0  4.000337  0  0  -0.108264  0  4.02178  0  0  -0.0805  -0.106065  0  3.985561  0
C  C82  1  0.10153868  0.19557719  0.04254287  1  0  0.112388  0  3.751785  0  0  0.0836  0  3.999316  0  0  0.090801  0  4.018653  0  0  0.036062  0.078738  0  3.986541  0
C  C83  1  0.90614728  0.80453261  0.95742210  1  0  0.111104  0  3.75334  0  0  0.082153  0  4.000587  0  0  0.089422  0  4.019967  0  0  0.035279  0.077177  0  3.987867  0
C  C84  1  0.26485579  0.85891706  0.55418363  1  0  0.119892  0  3.748032  0  0  0.090097  0  3.998507  0  0  0.097481  0  4.017281  0  0  0.039573  0.08533  0  3.985695  0
C  C85  1  0.40541075  0.14106364  0.44563051  1  0  0.121775  0  3.747432  0  0  0.092284  0  3.997918  0  0  0.099644  0  4.016731  0  0  0.040373  0.087531  0  3.985078  0
C  C86  1  0.15141764  0.76624026  0.59848713  1  0  -0.164217  0  3.698409  0  0  -0.176404  0  3.935534  0  0  -0.184677  0  3.956936  0  0  -0.08438  -0.171134  0  3.921244  0
C  C87  1  0.38489605  0.23391358  0.40141413  1  0  -0.16641  0  3.698234  0  0  -0.17873  0  3.934988  0  0  -0.187065  0  3.956479  0  0  -0.084569  -0.17341  0  3.920626  0
C  C88  1  0.18486892  0.74098719  0.70431741  1  0  0.141787  0  3.800769  0  0  0.155577  0  4.031975  0  0  0.162328  0  4.054002  0  0  0.008408  0.151265  0  4.016923  0
C  C89  1  0.44377372  0.25932866  0.29569744  1  0  0.144242  0  3.799009  0  0  0.158149  0  4.030063  0  0  0.164832  0  4.052107  0  0  0.009545  0.153891  0  4.014989  0
C  C90  1  0.33238296  0.81507411  0.76017307  1  0  -0.16993  0  3.674083  0  0  -0.186768  0  3.922891  0  0  -0.19567  0  3.942613  0  0  -0.08291  -0.181078  0  3.909803  0
C  C91  1  0.51718386  0.18531832  0.23987368  1  0  -0.169733  0  3.674229  0  0  -0.186922  0  3.922749  0  0  -0.195725  0  3.942445  0  0  -0.083101  -0.181298  0  3.90967  0
C  C92  1  0.43920304  0.90616179  0.70969028  1  0  0.154042  0  3.698754  0  0  0.121392  0  3.954318  0  0  0.130325  0  3.97129  0  0  0.050982  0.115559  0  3.942753  0
C  C93  1  0.53269925  0.09412007  0.29024059  1  0  0.153956  0  3.6995  0  0  0.121392  0  3.954848  0  0  0.130229  0  3.971978  0  0  0.050773  0.115662  0  3.943155  0
C  C94  1  0.07512808  0.64523406  0.75772863  1  0  -0.114002  0  3.727297  0  0  -0.136301  0  3.9832  0  0  -0.141279  0  4.004695  0  0  -0.087541  -0.132866  0  3.968443  0
C  C95  1  0.42971339  0.35511374  0.24233946  1  0  -0.115982  0  3.728705  0  0  -0.138282  0  3.984623  0  0  -0.143173  0  4.006075  0  0  -0.087995  -0.134919  0  3.969897  0
C  C96  1  0.93943920  0.56211496  0.70899328  1  0  -0.07899  0  3.733133  0  0  -0.101035  0  3.985127  0  0  -0.10134  0  4.005749  0  0  -0.076452  -0.100755  0  3.971005  0
C  C97  1  0.37715703  0.43818647  0.29099230  1  0  -0.078456  0  3.732016  0  0  -0.100447  0  3.984464  0  0  -0.100843  0  4.005045  0  0  -0.076871  -0.100083  0  3.97034  0
N  N98  1  0.11961524  0.10947934  0.09467554  1  0  -0.347283  0  3.287539  0  0  -0.267445  0  3.5544  0  0  -0.289059  0  3.574416  0  0  -0.339471  -0.252689  0  3.540274  0
N  N99  1  0.01004893  0.89064608  0.90520055  1  0  -0.347072  0  3.287616  0  0  -0.266987  0  3.55443  0  0  -0.288611  0  3.57439  0  0  -0.339483  -0.252215  0  3.540348  0
N  N100  1  0.40803317  0.92765081  0.60755016  1  0  -0.359079  0  3.27917  0  0  -0.283111  0  3.552077  0  0  -0.304138  0  3.570046  0  0  -0.344945  -0.268822  0  3.539484  0
N  N101  1  0.47982896  0.07239859  0.39227878  1  0  -0.35996  0  3.278918  0  0  -0.284145  0  3.551848  0  0  -0.305161  0  3.569855  0  0  -0.344662  -0.269856  0  3.539199  0
O  O102  1  0.63414245  0.79836463  0.51057678  1  0  -0.644308  0  1.954307  0  0  -0.587027  0  2.187208  0  0  -0.614994  0  2.179752  0  0  -0.332238  -0.567317  0  2.191482  0
O  O103  1  0.83599648  0.20052507  0.48942468  1  0  -0.644686  0  1.955387  0  0  -0.58714  0  2.188234  0  0  -0.615178  0  2.180743  0  0  -0.333002  -0.567398  0  2.192561  0
O  O104  1  0.74013595  0.89925812  0.36877459  1  0  -0.639204  0  1.928122  0  0  -0.573928  0  2.158995  0  0  -0.603386  0  2.148816  0  0  -0.341361  -0.553344  0  2.165118  0
O  O105  1  0.84047594  0.10007420  0.63175020  1  0  -0.638176  0  1.928585  0  0  -0.573262  0  2.159438  0  0  -0.602697  0  2.149244  0  0  -0.340733  -0.552662  0  2.165531  0
O  O106  1  0.33279369  0.11881076  0.83998445  1  0  -0.63803  0  1.917508  0  0  -0.58528  0  2.152245  0  0  -0.612638  0  2.144024  0  0  -0.334987  -0.566051  0  2.157032  0
O  O107  1  0.21391234  0.88136893  0.15955735  1  0  -0.637904  0  1.917269  0  0  -0.585692  0  2.152134  0  0  -0.612841  0  2.143811  0  0  -0.335285  -0.566676  0  2.157057  0
O  O108  1  0.50550414  0.15039374  0.98776789  1  0  -0.641244  0  1.976269  0  0  -0.573781  0  2.210547  0  0  -0.602936  0  2.20011  0  0  -0.337763  -0.553313  0  2.216818  0
O  O109  1  0.35540520  0.84996625  0.01197863  1  0  -0.641126  0  1.976265  0  0  -0.573872  0  2.210585  0  0  -0.603034  0  2.200128  0  0  -0.337411  -0.553363  0  2.216813  0
