# generated using pymatgen
data_Cu3H6C8S3N5
_symmetry_space_group_name_H-M   'P 1'
_cell_length_a   3.70419708
_cell_length_b   8.49509287
_cell_length_c   20.81312800
_cell_angle_alpha   90.00037615
_cell_angle_beta   90.86054798
_cell_angle_gamma   89.99968172
_symmetry_Int_Tables_number   1
_chemical_formula_structural   Cu3H6C8S3N5
_chemical_formula_sum   'Cu6 H12 C16 S6 N10'
_cell_volume   654.86319900
_cell_formula_units_Z   2
loop_
 _symmetry_equiv_pos_site_id
 _symmetry_equiv_pos_as_xyz
  1  'x, y, z'
loop_
 _atom_site_type_symbol
 _atom_site_label
 _atom_site_symmetry_multiplicity
 _atom_site_fract_x
 _atom_site_fract_y
 _atom_site_fract_z
 _atom_site_occupancy
 _atom_site_hle17_bader_spin_density
 _atom_site_hle17_ddec_charge
 _atom_site_hle17_ddec_spin_density
 _atom_site_hle17_ddec_sum_bond_order
 _atom_site_hle17_magmom
 _atom_site_hse06_10hf_bader_spin_density
 _atom_site_hse06_10hf_ddec_charge
 _atom_site_hse06_10hf_ddec_spin_density
 _atom_site_hse06_10hf_ddec_sum_bond_order
 _atom_site_hse06_10hf_magmom
 _atom_site_hse06_bader_spin_density
 _atom_site_hse06_ddec_charge
 _atom_site_hse06_ddec_spin_density
 _atom_site_hse06_ddec_sum_bond_order
 _atom_site_hse06_magmom
 _atom_site_pbe_bader_spin_density
 _atom_site_pbe_cm5_charge
 _atom_site_pbe_ddec_charge
 _atom_site_pbe_ddec_spin_density
 _atom_site_pbe_ddec_sum_bond_order
 _atom_site_pbe_magmom
Cu  Cu0  1  0.57020880  0.68090739  0.40053889  1  0  0.507839  0  2.311006  0  0  0.446071  0  2.829368  0  0  0.429277  0  2.791722  0  0  0.529736  0.46075  0  2.852214  0
Cu  Cu1  1  0.57020855  0.31909432  0.90053751  1  0  0.507796  0  2.311004  0  0  0.446009  0  2.829385  0  0  0.429217  0  2.791734  0  0  0.52969  0.460685  0  2.852174  0
Cu  Cu2  1  0.06740130  0.27012523  0.43054392  1  0  0.315355  0  2.199193  0  0  0.237627  0  2.687432  0  0  0.225523  0  2.653627  0  0  0.396283  0.249427  0  2.708292  0
Cu  Cu3  1  0.06738529  0.72987588  0.93054361  1  0  0.315346  0  2.199124  0  0  0.237626  0  2.687366  0  0  0.225523  0  2.653559  0  0  0.396265  0.249419  0  2.70823  0
Cu  Cu4  1  0.07811760  0.43938076  0.16202219  1  0  0.430118  0  2.178967  0  0  0.34213  0  2.685621  0  0  0.332811  0  2.646478  0  0  0.490057  0.352057  0  2.70973  0
Cu  Cu5  1  0.07811448  0.56061597  0.66202289  1  0  0.430111  0  2.178931  0  0  0.342139  0  2.685579  0  0  0.332774  0  2.646411  0  0  0.490074  0.352043  0  2.709686  0
H  H6  1  0.06306574  0.42453805  0.30228647  1  0  0.073972  0  0.954068  0  0  0.083985  0  1.018105  0  0  0.085635  0  1.015675  0  0  0.124298  0.082319  0  1.020388  0
H  H7  1  0.06306241  0.57545746  0.80228625  1  0  0.073924  0  0.954088  0  0  0.083931  0  1.018138  0  0  0.085583  0  1.015705  0  0  0.124271  0.082261  0  1.020423  0
H  H8  1  0.86477326  0.08879935  0.11610471  1  0  0.137968  0  0.94248  0  0  0.161449  0  0.998815  0  0  0.163083  0  0.998345  0  0  0.104056  0.159982  0  0.99943  0
H  H9  1  0.86477396  0.91120054  0.61610490  1  0  0.137988  0  0.942411  0  0  0.161437  0  0.99878  0  0  0.163067  0  0.998315  0  0  0.104059  0.159971  0  0.999394  0
H  H10  1  0.31901716  0.14237922  0.11722590  1  0  0.134134  0  0.950745  0  0  0.1525  0  1.014451  0  0  0.155759  0  1.011147  0  0  0.100647  0.149897  0  1.017044  0
H  H11  1  0.31902114  0.85761618  0.61722404  1  0  0.134073  0  0.95078  0  0  0.152457  0  1.014465  0  0  0.155718  0  1.011159  0  0  0.100597  0.149853  0  1.017059  0
H  H12  1  0.19250072  0.94204823  0.13490665  1  0  0.132162  0  0.949515  0  0  0.148083  0  1.015607  0  0  0.149724  0  1.016573  0  0  0.093843  0.146834  0  1.014915  0
H  H13  1  0.19250101  0.05794659  0.63490747  1  0  0.132066  0  0.949529  0  0  0.147969  0  1.015637  0  0  0.149622  0  1.016576  0  0  0.093797  0.146713  0  1.014952  0
H  H14  1  0.09317567  0.87006065  0.24675673  1  0  0.128754  0  0.962366  0  0  0.139479  0  1.017738  0  0  0.141679  0  1.019781  0  0  0.109981  0.137695  0  1.016793  0
H  H15  1  0.09319394  0.12993977  0.74675633  1  0  0.128729  0  0.962565  0  0  0.139563  0  1.017817  0  0  0.141763  0  1.019862  0  0  0.11  0.137771  0  1.01687  0
H  H16  1  0.06184694  0.95672577  0.36155040  1  0  0.089023  0  0.957001  0  0  0.091177  0  1.033905  0  0  0.096025  0  1.026475  0  0  0.118148  0.087303  0  1.039626  0
H  H17  1  0.06185540  0.04327306  0.86154831  1  0  0.088992  0  0.957046  0  0  0.091143  0  1.033935  0  0  0.095993  0  1.026499  0  0  0.118132  0.087265  0  1.039657  0
C  C18  1  0.07276302  0.56567654  0.51560168  1  0  0.320178  0  3.8449  0  0  0.315986  0  4.128837  0  0  0.329209  0  4.141182  0  0  0.155222  0.30681  0  4.12113  0
C  C19  1  0.07275280  0.43432489  0.01560383  1  0  0.320286  0  3.844781  0  0  0.316098  0  4.128717  0  0  0.329329  0  4.141051  0  0  0.155231  0.306923  0  4.120994  0
C  C20  1  0.57421262  0.00616189  0.46472522  1  0  0.282899  0  3.919377  0  0  0.277802  0  4.205627  0  0  0.293736  0  4.219765  0  0  0.14407  0.267134  0  4.195848  0
C  C21  1  0.57421238  0.99384085  0.96472707  1  0  0.282945  0  3.919387  0  0  0.277847  0  4.205632  0  0  0.293779  0  4.219772  0  0  0.144039  0.267168  0  4.195843  0
C  C22  1  0.57491537  0.63384844  0.25470001  1  0  0.262351  0  3.986665  0  0  0.254492  0  4.282911  0  0  0.26986  0  4.297584  0  0  0.136343  0.244482  0  4.272453  0
C  C23  1  0.57491171  0.36616149  0.75469491  1  0  0.262248  0  3.98661  0  0  0.25438  0  4.282888  0  0  0.269749  0  4.297558  0  0  0.136187  0.244367  0  4.272414  0
C  C24  1  0.07028581  0.30008962  0.28982364  1  0  0.288948  0  3.649761  0  0  0.239776  0  3.909902  0  0  0.254508  0  3.920105  0  0  0.168285  0.229964  0  3.904028  0
C  C25  1  0.07028636  0.69990684  0.78982328  1  0  0.288953  0  3.649837  0  0  0.239788  0  3.909969  0  0  0.254522  0  3.920168  0  0  0.168298  0.229978  0  3.904098  0
C  C26  1  0.09794169  0.10846067  0.21049990  1  0  0.359848  0  3.658633  0  0  0.360977  0  3.903424  0  0  0.375912  0  3.917598  0  0  0.134144  0.350762  0  3.894223  0
C  C27  1  0.09794796  0.89153444  0.71049812  1  0  0.35996  0  3.658312  0  0  0.360934  0  3.903331  0  0  0.375868  0  3.917502  0  0  0.134075  0.350714  0  3.894127  0
C  C28  1  0.12278977  0.06647348  0.14123833  1  0  -0.39074  0  3.684467  0  0  -0.472751  0  3.917799  0  0  -0.476432  0  3.921026  0  0  -0.238599  -0.469798  0  3.915925  0
C  C29  1  0.12279291  0.93352162  0.64123859  1  0  -0.390623  0  3.684445  0  0  -0.472548  0  3.917777  0  0  -0.476229  0  3.921018  0  0  -0.238469  -0.469583  0  3.915911  0
C  C30  1  0.08661838  0.99462443  0.25878818  1  0  -0.212991  0  3.664001  0  0  -0.22329  0  3.897958  0  0  -0.237482  0  3.921169  0  0  -0.079805  -0.214605  0  3.883623  0
C  C31  1  0.08661925  0.00538326  0.75878742  1  0  -0.21311  0  3.66364  0  0  -0.223482  0  3.897621  0  0  -0.237674  0  3.920834  0  0  -0.079841  -0.214781  0  3.883279  0
C  C32  1  0.06960718  0.04174662  0.32244936  1  0  0.183917  0  3.629179  0  0  0.14844  0  3.883495  0  0  0.161965  0  3.894253  0  0  0.059085  0.139102  0  3.877303  0
C  C33  1  0.06961268  0.95825037  0.82244873  1  0  0.183977  0  3.629041  0  0  0.14854  0  3.883352  0  0  0.16206  0  3.894119  0  0  0.059128  0.139201  0  3.87716  0
S  S34  1  0.07355723  0.53758674  0.43711442  1  0  -0.329947  0  3.163263  0  0  -0.319608  0  3.715208  0  0  -0.306013  0  3.667299  0  0  -0.209968  -0.330705  0  3.748024  0
S  S35  1  0.07354727  0.46241563  0.93711725  1  0  -0.329937  0  3.163227  0  0  -0.319588  0  3.715151  0  0  -0.306007  0  3.667258  0  0  -0.209944  -0.330682  0  3.747928  0
S  S36  1  0.57345672  0.18847325  0.49157705  1  0  -0.264276  0  2.646273  0  0  -0.229721  0  3.054565  0  0  -0.234782  0  3.037406  0  0  -0.17106  -0.22696  0  3.065781  0
S  S37  1  0.57343976  0.81153229  0.99157791  1  0  -0.264264  0  2.646416  0  0  -0.22971  0  3.054695  0  0  -0.234765  0  3.037532  0  0  -0.171005  -0.226945  0  3.065902  0
S  S38  1  0.58094747  0.60861088  0.17661648  1  0  -0.303081  0  2.680066  0  0  -0.279082  0  3.116316  0  0  -0.281567  0  3.094062  0  0  -0.168997  -0.27812  0  3.130755  0
S  S39  1  0.58096250  0.39139188  0.67661436  1  0  -0.303076  0  2.680358  0  0  -0.279093  0  3.116652  0  0  -0.281557  0  3.094367  0  0  -0.169051  -0.278129  0  3.131079  0
N  N40  1  0.07049876  0.58468915  0.57161910  1  0  -0.457265  0  3.103524  0  0  -0.40791  0  3.416219  0  0  -0.416128  0  3.418418  0  0  -0.416488  -0.40314  0  3.414617  0
N  N41  1  0.07050496  0.41530967  0.07162123  1  0  -0.457369  0  3.103486  0  0  -0.408016  0  3.416206  0  0  -0.416239  0  3.418413  0  0  -0.416525  -0.40325  0  3.414604  0
N  N42  1  0.57384873  0.87689029  0.44395774  1  0  -0.492741  0  3.14511  0  0  -0.44921  0  3.466195  0  0  -0.459724  0  3.46902  0  0  -0.429612  -0.44253  0  3.463586  0
N  N43  1  0.57383466  0.12311447  0.94395679  1  0  -0.492748  0  3.144968  0  0  -0.449212  0  3.466058  0  0  -0.459732  0  3.468886  0  0  -0.429579  -0.44253  0  3.463417  0
N  N44  1  0.56882398  0.65397935  0.31090693  1  0  -0.50745  0  3.160442  0  0  -0.464244  0  3.49413  0  0  -0.472801  0  3.494157  0  0  -0.442178  -0.458937  0  3.493174  0
N  N45  1  0.56883688  0.34601973  0.81090517  1  0  -0.50736  0  3.160076  0  0  -0.464151  0  3.493772  0  0  -0.472706  0  3.493805  0  0  -0.442012  -0.458834  0  3.492768  0
N  N46  1  0.06436676  0.19639133  0.33862463  1  0  -0.312038  0  3.305297  0  0  -0.242925  0  3.604823  0  0  -0.255459  0  3.610103  0  0  -0.355332  -0.235868  0  3.60189  0
N  N47  1  0.06436336  0.80360947  0.83862453  1  0  -0.311975  0  3.305246  0  0  -0.242891  0  3.604789  0  0  -0.255421  0  3.610064  0  0  -0.355315  -0.235829  0  3.601855  0
N  N48  1  0.08547162  0.26406948  0.22707549  1  0  -0.376937  0  3.270959  0  0  -0.311235  0  3.568763  0  0  -0.324315  0  3.573231  0  0  -0.35215  -0.303851  0  3.566172  0
N  N49  1  0.08547446  0.73592946  0.72707570  1  0  -0.376934  0  3.271122  0  0  -0.311168  0  3.568929  0  0  -0.324236  0  3.573378  0  0  -0.352112  -0.303773  0  3.56633  0
