# generated using pymatgen
data_HgH10C12(BrN2)2
_symmetry_space_group_name_H-M   'P 1'
_cell_length_a   4.94937476
_cell_length_b   12.92040800
_cell_length_c   23.30172795
_cell_angle_alpha   90.00017252
_cell_angle_beta   89.99969387
_cell_angle_gamma   93.31168342
_symmetry_Int_Tables_number   1
_chemical_formula_structural   HgH10C12(BrN2)2
_chemical_formula_sum   'Hg4 H40 C48 Br8 N16'
_cell_volume   1487.60915353
_cell_formula_units_Z   4
loop_
 _symmetry_equiv_pos_site_id
 _symmetry_equiv_pos_as_xyz
  1  'x, y, z'
loop_
 _atom_site_type_symbol
 _atom_site_label
 _atom_site_symmetry_multiplicity
 _atom_site_fract_x
 _atom_site_fract_y
 _atom_site_fract_z
 _atom_site_occupancy
 _atom_site_hle17_bader_spin_density
 _atom_site_hle17_ddec_charge
 _atom_site_hle17_ddec_spin_density
 _atom_site_hle17_ddec_sum_bond_order
 _atom_site_hle17_magmom
 _atom_site_hse06_10hf_bader_spin_density
 _atom_site_hse06_10hf_ddec_charge
 _atom_site_hse06_10hf_ddec_spin_density
 _atom_site_hse06_10hf_ddec_sum_bond_order
 _atom_site_hse06_10hf_magmom
 _atom_site_hse06_bader_spin_density
 _atom_site_hse06_ddec_charge
 _atom_site_hse06_ddec_spin_density
 _atom_site_hse06_ddec_sum_bond_order
 _atom_site_hse06_magmom
 _atom_site_pbe_bader_spin_density
 _atom_site_pbe_cm5_charge
 _atom_site_pbe_ddec_charge
 _atom_site_pbe_ddec_spin_density
 _atom_site_pbe_ddec_sum_bond_order
 _atom_site_pbe_magmom
Hg  Hg0  1  0.89571520  0.75902775  0.60589683  1  0  0.660752  0  2.100675  0  0  0.501591  0  2.604337  0  0  0.549476  0  2.576323  0  0  0.462056  0.469191  0  2.622837  0
Hg  Hg1  1  0.60427550  0.74097078  0.10590573  1  0  0.660783  0  2.100661  0  0  0.501626  0  2.604328  0  0  0.54951  0  2.576317  0  0  0.46209  0.469228  0  2.622827  0
Hg  Hg2  1  0.10428470  0.24097539  0.39409495  1  0  0.660755  0  2.10055  0  0  0.50159  0  2.604185  0  0  0.549467  0  2.576188  0  0  0.462067  0.469192  0  2.62268  0
Hg  Hg3  1  0.39571539  0.25902616  0.89410193  1  0  0.660809  0  2.100655  0  0  0.501658  0  2.604306  0  0  0.549534  0  2.576305  0  0  0.462084  0.469261  0  2.622804  0
H  H4  1  0.68733665  0.94672275  0.68888451  1  0  0.071258  0  0.949205  0  0  0.077973  0  1.017075  0  0  0.080759  0  1.014137  0  0  0.102779  0.07592  0  1.019238  0
H  H5  1  0.81265676  0.55328083  0.18888685  1  0  0.071284  0  0.949212  0  0  0.078  0  1.017079  0  0  0.080789  0  1.014143  0  0  0.102798  0.075947  0  1.019244  0
H  H6  1  0.31265980  0.05328427  0.31111456  1  0  0.071272  0  0.949207  0  0  0.077978  0  1.017098  0  0  0.080767  0  1.014161  0  0  0.102786  0.075926  0  1.019263  0
H  H7  1  0.18734458  0.44671843  0.81111265  1  0  0.071306  0  0.949186  0  0  0.078014  0  1.01706  0  0  0.080802  0  1.014123  0  0  0.10281  0.075961  0  1.019224  0
H  H8  1  0.35189968  0.98277122  0.76660515  1  0  0.10582  0  0.960808  0  0  0.115541  0  1.023311  0  0  0.119051  0  1.021741  0  0  0.09912  0.112999  0  1.024604  0
H  H9  1  0.14809228  0.51723001  0.26660504  1  0  0.105864  0  0.960745  0  0  0.11557  0  1.023268  0  0  0.119079  0  1.021696  0  0  0.09913  0.113027  0  1.024561  0
H  H10  1  0.64808988  0.01723037  0.23339522  1  0  0.105896  0  0.960742  0  0  0.1156  0  1.023247  0  0  0.119111  0  1.021675  0  0  0.099137  0.113058  0  1.02454  0
H  H11  1  0.85191108  0.48276925  0.73339403  1  0  0.105892  0  0.960753  0  0  0.115602  0  1.023256  0  0  0.119112  0  1.021683  0  0  0.099137  0.113059  0  1.02455  0
H  H12  1  0.10302826  0.65717476  0.76387303  1  0  0.111304  0  0.945216  0  0  0.120488  0  1.00638  0  0  0.124242  0  1.0043  0  0  0.107876  0.117784  0  1.008044  0
H  H13  1  0.39697173  0.84282569  0.26387276  1  0  0.111316  0  0.945178  0  0  0.120498  0  1.006344  0  0  0.124255  0  1.004265  0  0  0.107871  0.117795  0  1.008006  0
H  H14  1  0.89697533  0.34282606  0.23612648  1  0  0.111303  0  0.945205  0  0  0.120482  0  1.00638  0  0  0.124237  0  1.0043  0  0  0.107872  0.117779  0  1.008043  0
H  H15  1  0.60303353  0.15717280  0.73612546  1  0  0.111331  0  0.945215  0  0  0.120501  0  1.006392  0  0  0.124257  0  1.004314  0  0  0.107871  0.117798  0  1.008053  0
H  H16  1  0.45924737  0.63385386  0.68872645  1  0  0.069316  0  0.965615  0  0  0.073667  0  1.038154  0  0  0.076423  0  1.035491  0  0  0.098204  0.071584  0  1.040192  0
H  H17  1  0.04075446  0.86614622  0.18872662  1  0  0.069288  0  0.965605  0  0  0.073639  0  1.03815  0  0  0.076396  0  1.035485  0  0  0.098208  0.071556  0  1.040187  0
H  H18  1  0.54075444  0.36614851  0.31127305  1  0  0.069312  0  0.965544  0  0  0.073672  0  1.038086  0  0  0.076421  0  1.035426  0  0  0.098204  0.071589  0  1.040125  0
H  H19  1  0.95925496  0.13385305  0.81127031  1  0  0.06932  0  0.965574  0  0  0.073687  0  1.038078  0  0  0.07644  0  1.035413  0  0  0.098228  0.071604  0  1.040119  0
H  H20  1  0.99082107  0.91946472  0.83322983  1  0  0.079345  0  0.936002  0  0  0.084803  0  1.009499  0  0  0.089221  0  1.004202  0  0  0.108474  0.08154  0  1.013453  0
H  H21  1  0.50918355  0.58053026  0.33322527  1  0  0.079358  0  0.935881  0  0  0.084816  0  1.009393  0  0  0.089238  0  1.004094  0  0  0.108447  0.081552  0  1.013349  0
H  H22  1  0.00916969  0.08053144  0.16676838  1  0  0.079365  0  0.935865  0  0  0.084804  0  1.009412  0  0  0.089225  0  1.004111  0  0  0.108478  0.081539  0  1.01337  0
H  H23  1  0.49083111  0.41946357  0.66676822  1  0  0.079389  0  0.935954  0  0  0.084837  0  1.009466  0  0  0.089258  0  1.004167  0  0  0.108484  0.081573  0  1.013421  0
H  H24  1  0.50751775  0.64321735  0.87132748  1  0  0.070665  0  0.953763  0  0  0.076879  0  1.027226  0  0  0.081253  0  1.021718  0  0  0.102771  0.07362  0  1.03139  0
H  H25  1  0.99246749  0.85678946  0.37132755  1  0  0.070682  0  0.953755  0  0  0.076874  0  1.027242  0  0  0.081249  0  1.02173  0  0  0.102766  0.073634  0  1.031389  0
H  H26  1  0.49247978  0.35678347  0.12867417  1  0  0.07069  0  0.953826  0  0  0.076917  0  1.027275  0  0  0.081291  0  1.021765  0  0  0.102785  0.073658  0  1.031439  0
H  H27  1  0.00752255  0.14321524  0.62867495  1  0  0.070631  0  0.95379  0  0  0.076855  0  1.027282  0  0  0.081228  0  1.021771  0  0  0.102759  0.073636  0  1.031409  0
H  H28  1  0.04881903  0.89268868  0.03638600  1  0  0.076782  0  0.953937  0  0  0.082633  0  1.021335  0  0  0.085397  0  1.018882  0  0  0.102987  0.080625  0  1.02312  0
H  H29  1  0.45118002  0.60730755  0.53638193  1  0  0.07673  0  0.953815  0  0  0.082552  0  1.021272  0  0  0.085315  0  1.018819  0  0  0.102968  0.080545  0  1.023055  0
H  H30  1  0.95118790  0.10730748  0.96361779  1  0  0.076701  0  0.953921  0  0  0.08252  0  1.021373  0  0  0.08528  0  1.018926  0  0  0.102947  0.080513  0  1.023154  0
H  H31  1  0.54883154  0.39269249  0.46361800  1  0  0.076726  0  0.953867  0  0  0.082541  0  1.021322  0  0  0.085304  0  1.018872  0  0  0.102957  0.080535  0  1.023103  0
H  H32  1  0.40376122  0.89002784  0.95960317  1  0  0.117361  0  0.95816  0  0  0.12404  0  1.023082  0  0  0.128137  0  1.020529  0  0  0.100968  0.121117  0  1.025047  0
H  H33  1  0.09623921  0.60996813  0.45959856  1  0  0.117383  0  0.958079  0  0  0.124025  0  1.023049  0  0  0.12812  0  1.020503  0  0  0.100941  0.121102  0  1.02501  0
H  H34  1  0.59624214  0.10997143  0.04040062  1  0  0.117384  0  0.958111  0  0  0.124036  0  1.023065  0  0  0.128133  0  1.020513  0  0  0.100976  0.121112  0  1.025032  0
H  H35  1  0.90376391  0.39002958  0.54040395  1  0  0.117349  0  0.958081  0  0  0.124038  0  1.023012  0  0  0.128137  0  1.020459  0  0  0.100946  0.121091  0  1.024998  0
H  H36  1  0.13455836  0.57094929  0.92689690  1  0  0.104532  0  0.970271  0  0  0.110615  0  1.04021  0  0  0.114236  0  1.038279  0  0  0.094691  0.108004  0  1.041764  0
H  H37  1  0.36542562  0.92905273  0.42689853  1  0  0.104574  0  0.970212  0  0  0.11061  0  1.040211  0  0  0.114231  0  1.038279  0  0  0.094686  0.107999  0  1.041763  0
H  H38  1  0.86542763  0.42905541  0.07310260  1  0  0.104527  0  0.970219  0  0  0.110564  0  1.040216  0  0  0.114186  0  1.038284  0  0  0.094661  0.107954  0  1.04177  0
H  H39  1  0.63456573  0.07094732  0.57310355  1  0  0.104578  0  0.970194  0  0  0.110614  0  1.0402  0  0  0.114232  0  1.038275  0  0  0.094683  0.108003  0  1.041753  0
H  H40  1  0.79505679  0.58655993  0.00560521  1  0  0.070618  0  0.967528  0  0  0.075005  0  1.042164  0  0  0.077552  0  1.039771  0  0  0.097604  0.073137  0  1.043931  0
H  H41  1  0.70491688  0.91344277  0.50560665  1  0  0.070561  0  0.967544  0  0  0.074967  0  1.042129  0  0  0.077513  0  1.039736  0  0  0.097602  0.07311  0  1.043901  0
H  H42  1  0.20493135  0.41344554  0.99439387  1  0  0.070551  0  0.967552  0  0  0.07496  0  1.042158  0  0  0.077507  0  1.039763  0  0  0.097597  0.073099  0  1.04393  0
H  H43  1  0.29507662  0.08655805  0.49439285  1  0  0.070522  0  0.967586  0  0  0.074921  0  1.042202  0  0  0.077466  0  1.039808  0  0  0.097578  0.073062  0  1.043973  0
C  C44  1  0.55511788  0.88486031  0.70740762  1  0  0.125105  0  3.742918  0  0  0.094691  0  3.996648  0  0  0.10219  0  4.015245  0  0  0.038703  0.08988  0  3.983787  0
C  C45  1  0.94487449  0.61513949  0.20740863  1  0  0.125073  0  3.742924  0  0  0.094634  0  3.996667  0  0  0.102127  0  4.015264  0  0  0.038631  0.089823  0  3.983807  0
C  C46  1  0.44487740  0.11513896  0.29259231  1  0  0.125196  0  3.742872  0  0  0.09473  0  3.996619  0  0  0.102224  0  4.015218  0  0  0.038677  0.089918  0  3.983758  0
C  C47  1  0.05512685  0.38485977  0.79258958  1  0  0.125074  0  3.742948  0  0  0.094642  0  3.996663  0  0  0.102138  0  4.01526  0  0  0.038654  0.089831  0  3.983802  0
C  C48  1  0.36698557  0.90450005  0.74987884  1  0  -0.140018  0  3.680522  0  0  -0.158136  0  3.923524  0  0  -0.165865  0  3.944567  0  0  -0.079188  -0.152979  0  3.909174  0
C  C49  1  0.13300265  0.59550033  0.24987846  1  0  -0.14002  0  3.68053  0  0  -0.158157  0  3.923513  0  0  -0.165887  0  3.944561  0  0  -0.079182  -0.153003  0  3.909176  0
C  C50  1  0.63299973  0.09549999  0.25012195  1  0  -0.140188  0  3.68056  0  0  -0.158286  0  3.923545  0  0  -0.16602  0  3.944595  0  0  -0.079233  -0.15313  0  3.9092  0
C  C51  1  0.86699477  0.40449971  0.75012019  1  0  -0.140163  0  3.680629  0  0  -0.158283  0  3.923607  0  0  -0.166012  0  3.944649  0  0  -0.079249  -0.153126  0  3.909259  0
C  C52  1  0.19891304  0.82218911  0.77120476  1  0  0.097018  0  3.772278  0  0  0.110213  0  4.005932  0  0  0.113479  0  4.028771  0  0  0.007788  0.108273  0  3.990229  0
C  C53  1  0.30108428  0.67780826  0.27120518  1  0  0.096908  0  3.7723  0  0  0.110237  0  4.005777  0  0  0.113504  0  4.028617  0  0  0.007808  0.108294  0  3.990077  0
C  C54  1  0.80107986  0.17780783  0.22879389  1  0  0.096986  0  3.772346  0  0  0.110247  0  4.005883  0  0  0.113516  0  4.028726  0  0  0.007816  0.108305  0  3.990183  0
C  C55  1  0.69892086  0.32218945  0.72879390  1  0  0.097005  0  3.772416  0  0  0.110258  0  4.005946  0  0  0.113524  0  4.028793  0  0  0.007809  0.108318  0  3.990242  0
C  C56  1  0.23153690  0.72271808  0.74874709  1  0  -0.135711  0  3.692556  0  0  -0.156038  0  3.940433  0  0  -0.163164  0  3.96148  0  0  -0.079123  -0.151441  0  3.926267  0
C  C57  1  0.26845943  0.77728229  0.24874686  1  0  -0.135763  0  3.692542  0  0  -0.15612  0  3.940401  0  0  -0.163252  0  3.961451  0  0  -0.079145  -0.151522  0  3.926236  0
C  C58  1  0.76846242  0.27728119  0.25125198  1  0  -0.135646  0  3.692469  0  0  -0.155997  0  3.940367  0  0  -0.163124  0  3.961411  0  0  -0.079068  -0.1514  0  3.9262  0
C  C59  1  0.73154583  0.22271620  0.75125093  1  0  -0.135745  0  3.69256  0  0  -0.156066  0  3.940403  0  0  -0.163201  0  3.961458  0  0  -0.079119  -0.151469  0  3.926235  0
C  C60  1  0.42757357  0.70974450  0.70728738  1  0  0.107331  0  3.755361  0  0  0.079929  0  4.008233  0  0  0.085972  0  4.027609  0  0  0.03407  0.076137  0  3.994952  0
C  C61  1  0.07242377  0.79025567  0.20728825  1  0  0.107448  0  3.755354  0  0  0.080032  0  4.008237  0  0  0.086075  0  4.02761  0  0  0.034092  0.07624  0  3.994956  0
C  C62  1  0.57242598  0.29025632  0.29271169  1  0  0.107321  0  3.755212  0  0  0.079873  0  4.008117  0  0  0.085926  0  4.027489  0  0  0.034032  0.076081  0  3.994834  0
C  C63  1  0.92758339  0.20974204  0.79270996  1  0  0.107385  0  3.75533  0  0  0.079963  0  4.008208  0  0  0.086014  0  4.027585  0  0  0.034083  0.07617  0  3.994924  0
C  C64  1  0.99943574  0.84083641  0.81559030  1  0  0.094848  0  3.63995  0  0  0.062886  0  3.90086  0  0  0.068248  0  3.913436  0  0  0.077477  0.059249  0  3.892197  0
C  C65  1  0.50057678  0.65916779  0.31558845  1  0  0.094735  0  3.640228  0  0  0.062718  0  3.901157  0  0  0.068074  0  3.913739  0  0  0.077419  0.059083  0  3.892493  0
C  C66  1  0.00056999  0.15916518  0.18440877  1  0  0.094819  0  3.640134  0  0  0.062843  0  3.901026  0  0  0.068204  0  3.913603  0  0  0.077411  0.059205  0  3.892366  0
C  C67  1  0.49943715  0.34083458  0.68441062  1  0  0.094816  0  3.639977  0  0  0.062848  0  3.900859  0  0  0.068209  0  3.913437  0  0  0.077451  0.059211  0  3.892196  0
C  C68  1  0.49924252  0.71934532  0.89214703  1  0  0.098351  0  3.647872  0  0  0.066754  0  3.907961  0  0  0.072559  0  3.920396  0  0  0.077415  0.062846  0  3.899427  0
C  C69  1  0.00075040  0.78065652  0.39214539  1  0  0.098271  0  3.647846  0  0  0.066689  0  3.907885  0  0  0.072506  0  3.920305  0  0  0.077399  0.062767  0  3.899341  0
C  C70  1  0.50075894  0.28065472  0.10785376  1  0  0.098218  0  3.648039  0  0  0.066583  0  3.908169  0  0  0.072396  0  3.920595  0  0  0.077319  0.062679  0  3.899624  0
C  C71  1  0.99924107  0.21934430  0.60785754  1  0  0.098275  0  3.647843  0  0  0.066599  0  3.907999  0  0  0.072412  0  3.920424  0  0  0.077349  0.062663  0  3.899447  0
C  C72  1  0.07610567  0.82316381  0.01094533  1  0  0.107825  0  3.735562  0  0  0.081243  0  3.985532  0  0  0.087039  0  4.004973  0  0  0.035773  0.077547  0  3.972249  0
C  C73  1  0.42388662  0.67683695  0.51094226  1  0  0.10806  0  3.735554  0  0  0.081488  0  3.985559  0  0  0.087285  0  4.004998  0  0  0.035856  0.077791  0  3.972272  0
C  C74  1  0.92389649  0.17684088  0.98905632  1  0  0.10808  0  3.735626  0  0  0.081528  0  3.985626  0  0  0.087324  0  4.005067  0  0  0.035951  0.077831  0  3.972341  0
C  C75  1  0.57611471  0.32316231  0.48905810  1  0  0.107925  0  3.735676  0  0  0.081353  0  3.985694  0  0  0.087149  0  4.005135  0  0  0.035788  0.077658  0  3.972395  0
C  C76  1  0.27270310  0.82137370  0.96852527  1  0  -0.126568  0  3.667168  0  0  -0.146684  0  3.912466  0  0  -0.153341  0  3.932899  0  0  -0.076731  -0.142403  0  3.898773  0
C  C77  1  0.22729140  0.67862464  0.46852363  1  0  -0.126695  0  3.667262  0  0  -0.146778  0  3.912499  0  0  -0.153437  0  3.932937  0  0  -0.07672  -0.142509  0  3.898834  0
C  C78  1  0.72729860  0.17862789  0.03147595  1  0  -0.126687  0  3.667163  0  0  -0.146766  0  3.912435  0  0  -0.153424  0  3.932874  0  0  -0.076794  -0.14249  0  3.898748  0
C  C79  1  0.77271576  0.32137307  0.53147673  1  0  -0.126595  0  3.667162  0  0  -0.146715  0  3.912395  0  0  -0.153375  0  3.932833  0  0  -0.076685  -0.142422  0  3.898736  0
C  C80  1  0.29877131  0.72955497  0.93719017  1  0  0.093303  0  3.770792  0  0  0.108472  0  4.001332  0  0  0.111122  0  4.024055  0  0  0.006431  0.10692  0  3.985717  0
C  C81  1  0.20122229  0.77044554  0.43718871  1  0  0.093258  0  3.770902  0  0  0.108499  0  4.001313  0  0  0.111142  0  4.024047  0  0  0.006371  0.106946  0  3.985698  0
C  C82  1  0.70122040  0.27044740  0.06281148  1  0  0.093291  0  3.770928  0  0  0.108479  0  4.001449  0  0  0.111122  0  4.024182  0  0  0.006416  0.106929  0  3.985829  0
C  C83  1  0.79877287  0.22955295  0.56281337  1  0  0.093325  0  3.77084  0  0  0.108555  0  4.001318  0  0  0.111199  0  4.024049  0  0  0.006388  0.107001  0  3.985697  0
C  C84  1  0.12300269  0.64366423  0.95023129  1  0  -0.135677  0  3.677331  0  0  -0.155608  0  3.924299  0  0  -0.163007  0  3.94537  0  0  -0.079546  -0.150723  0  3.910031  0
C  C85  1  0.37698643  0.85633557  0.45023106  1  0  -0.135647  0  3.677274  0  0  -0.155578  0  3.924242  0  0  -0.162976  0  3.94532  0  0  -0.079468  -0.150688  0  3.909976  0
C  C86  1  0.87698901  0.35633814  0.04976907  1  0  -0.135683  0  3.677235  0  0  -0.155575  0  3.924228  0  0  -0.162972  0  3.945303  0  0  -0.079496  -0.150688  0  3.909961  0
C  C87  1  0.62301110  0.14366524  0.54977101  1  0  -0.135733  0  3.677375  0  0  -0.155649  0  3.924364  0  0  -0.163045  0  3.945438  0  0  -0.079501  -0.150759  0  3.910094  0
C  C88  1  0.93418721  0.65177603  0.99391172  1  0  0.123686  0  3.733079  0  0  0.092778  0  3.986974  0  0  0.099866  0  4.00615  0  0  0.036025  0.088249  0  3.973721  0
C  C89  1  0.56579765  0.84822206  0.49391183  1  0  0.123763  0  3.733089  0  0  0.092849  0  3.987007  0  0  0.099947  0  4.006161  0  0  0.035988  0.088306  0  3.973751  0
C  C90  1  0.06580212  0.34822401  0.00608779  1  0  0.123817  0  3.733116  0  0  0.092897  0  3.987009  0  0  0.099993  0  4.006165  0  0  0.036025  0.08835  0  3.973775  0
C  C91  1  0.43420190  0.15177875  0.50608853  1  0  0.123799  0  3.733206  0  0  0.092897  0  3.987065  0  0  0.099996  0  4.006218  0  0  0.036043  0.088343  0  3.97384  0
Br  Br92  1  0.10785116  0.94232498  0.59800187  1  0  -0.423791  0  1.046601  0  0  -0.365978  0  1.358845  0  0  -0.385112  0  1.341028  0  0  -0.214044  -0.352935  0  1.37118  0
Br  Br93  1  0.39217181  0.55766612  0.09802130  1  0  -0.423783  0  1.046517  0  0  -0.365999  0  1.358803  0  0  -0.385129  0  1.340984  0  0  -0.214051  -0.352949  0  1.371127  0
Br  Br94  1  0.89216397  0.05767196  0.40198776  1  0  -0.423782  0  1.046478  0  0  -0.365983  0  1.358727  0  0  -0.385115  0  1.34091  0  0  -0.214049  -0.352936  0  1.371055  0
Br  Br95  1  0.60784284  0.44232771  0.90198721  1  0  -0.423818  0  1.046514  0  0  -0.366014  0  1.358769  0  0  -0.385145  0  1.340953  0  0  -0.214053  -0.352965  0  1.371092  0
Br  Br96  1  0.93456391  0.56469450  0.61730867  1  0  -0.431365  0  1.013608  0  0  -0.378391  0  1.317623  0  0  -0.39696  0  1.29763  0  0  -0.216706  -0.365706  0  1.331342  0
Br  Br97  1  0.56543661  0.93530409  0.11730464  1  0  -0.431377  0  1.013649  0  0  -0.378384  0  1.317632  0  0  -0.396949  0  1.297634  0  0  -0.216704  -0.365702  0  1.331358  0
Br  Br98  1  0.06544454  0.43531175  0.38269641  1  0  -0.431359  0  1.01358  0  0  -0.378372  0  1.317546  0  0  -0.396941  0  1.29756  0  0  -0.216706  -0.365689  0  1.331269  0
Br  Br99  1  0.43456259  0.06469440  0.88269229  1  0  -0.431377  0  1.013621  0  0  -0.378414  0  1.317624  0  0  -0.396975  0  1.297618  0  0  -0.216719  -0.365739  0  1.33136  0
N  N100  1  0.58575970  0.78945983  0.68672923  1  0  -0.297919  0  3.270472  0  0  -0.222564  0  3.534718  0  0  -0.242963  0  3.557552  0  0  -0.314802  -0.208606  0  3.518737  0
N  N101  1  0.91423935  0.71054064  0.18673129  1  0  -0.297977  0  3.270482  0  0  -0.222596  0  3.534737  0  0  -0.242993  0  3.557569  0  0  -0.314825  -0.208638  0  3.518757  0
N  N102  1  0.41424175  0.21054021  0.31326941  1  0  -0.297998  0  3.270554  0  0  -0.222566  0  3.534785  0  0  -0.242965  0  3.557615  0  0  -0.314809  -0.208608  0  3.518801  0
N  N103  1  0.08576603  0.28945862  0.81326778  1  0  -0.297957  0  3.27039  0  0  -0.22258  0  3.53464  0  0  -0.242976  0  3.55747  0  0  -0.314824  -0.208622  0  3.518657  0
N  N104  1  0.83977625  0.76530784  0.83415118  1  0  -0.205648  0  3.047369  0  0  -0.176418  0  3.338862  0  0  -0.185212  0  3.3573  0  0  -0.210034  -0.170249  0  3.326021  0
N  N105  1  0.66021907  0.73469258  0.33414799  1  0  -0.205468  0  3.047444  0  0  -0.176222  0  3.338941  0  0  -0.185016  0  3.357381  0  0  -0.20995  -0.170055  0  3.326101  0
N  N106  1  0.16022711  0.23469143  0.16585004  1  0  -0.205652  0  3.047445  0  0  -0.176425  0  3.338928  0  0  -0.185223  0  3.357373  0  0  -0.210006  -0.170257  0  3.326087  0
N  N107  1  0.33976409  0.26530669  0.66585194  1  0  -0.205644  0  3.047236  0  0  -0.176415  0  3.338717  0  0  -0.185209  0  3.357154  0  0  -0.209998  -0.170248  0  3.325881  0
N  N108  1  0.66533148  0.79548844  0.87687131  1  0  -0.191349  0  3.012605  0  0  -0.161781  0  3.301372  0  0  -0.171107  0  3.319852  0  0  -0.207669  -0.15525  0  3.28856  0
N  N109  1  0.83466803  0.70450676  0.37686831  1  0  -0.191348  0  3.012405  0  0  -0.161795  0  3.301152  0  0  -0.17112  0  3.319625  0  0  -0.207675  -0.155263  0  3.288345  0
N  N110  1  0.33467735  0.20450695  0.12312905  1  0  -0.191226  0  3.01233  0  0  -0.161635  0  3.301066  0  0  -0.170959  0  3.31954  0  0  -0.207608  -0.155103  0  3.288254  0
N  N111  1  0.16532048  0.29548786  0.62313334  1  0  -0.191259  0  3.012456  0  0  -0.161666  0  3.301229  0  0  -0.170992  0  3.319703  0  0  -0.207638  -0.155134  0  3.288424  0
N  N112  1  0.91181086  0.73964398  0.02372109  1  0  -0.297183  0  3.277024  0  0  -0.218609  0  3.539083  0  0  -0.239509  0  3.562607  0  0  -0.313354  -0.20433  0  3.522655  0
N  N113  1  0.58817009  0.76035648  0.52371812  1  0  -0.297238  0  3.277175  0  0  -0.21867  0  3.539255  0  0  -0.239565  0  3.562774  0  0  -0.313354  -0.204387  0  3.52283  0
N  N114  1  0.08817859  0.26035683  0.97628056  1  0  -0.297243  0  3.277278  0  0  -0.218684  0  3.539378  0  0  -0.239577  0  3.562894  0  0  -0.313386  -0.204406  0  3.522952  0
N  N115  1  0.41182341  0.23964434  0.47628181  1  0  -0.2972  0  3.277173  0  0  -0.218611  0  3.539231  0  0  -0.239506  0  3.562749  0  0  -0.313334  -0.204332  0  3.522803  0
