# generated using pymatgen
data_Ge3H14C6(NO3)2
_symmetry_space_group_name_H-M   'P 1'
_cell_length_a   5.33634326
_cell_length_b   7.43323627
_cell_length_c   14.76220827
_cell_angle_alpha   90.93450632
_cell_angle_beta   89.99641155
_cell_angle_gamma   89.99947850
_symmetry_Int_Tables_number   1
_chemical_formula_structural   Ge3H14C6(NO3)2
_chemical_formula_sum   'Ge6 H28 C12 N4 O12'
_cell_volume   585.48430000
_cell_formula_units_Z   2
loop_
 _symmetry_equiv_pos_site_id
 _symmetry_equiv_pos_as_xyz
  1  'x, y, z'
loop_
 _atom_site_type_symbol
 _atom_site_label
 _atom_site_symmetry_multiplicity
 _atom_site_fract_x
 _atom_site_fract_y
 _atom_site_fract_z
 _atom_site_occupancy
 _atom_site_hle17_bader_spin_density
 _atom_site_hle17_ddec_charge
 _atom_site_hle17_ddec_spin_density
 _atom_site_hle17_ddec_sum_bond_order
 _atom_site_hle17_magmom
 _atom_site_hse06_10hf_bader_spin_density
 _atom_site_hse06_10hf_ddec_charge
 _atom_site_hse06_10hf_ddec_spin_density
 _atom_site_hse06_10hf_ddec_sum_bond_order
 _atom_site_hse06_10hf_magmom
 _atom_site_hse06_bader_spin_density
 _atom_site_hse06_ddec_charge
 _atom_site_hse06_ddec_spin_density
 _atom_site_hse06_ddec_sum_bond_order
 _atom_site_hse06_magmom
 _atom_site_pbe_bader_spin_density
 _atom_site_pbe_cm5_charge
 _atom_site_pbe_ddec_charge
 _atom_site_pbe_ddec_spin_density
 _atom_site_pbe_ddec_sum_bond_order
 _atom_site_pbe_magmom
Ge  Ge0  1  0.72252724  0.61888807  0.91559768  1  0  1.901787  0  3.235516  0  0  1.690107  0  3.773635  0  0  1.76128  0  3.704951  0  0  0.622151  1.640281  0  3.820768  0
Ge  Ge1  1  0.25193041  0.37762176  0.91653860  1  0  1.903829  0  3.244569  0  0  1.692066  0  3.783131  0  0  1.763213  0  3.714403  0  0  0.62226  1.642275  0  3.83027  0
Ge  Ge2  1  0.75191630  0.12239527  0.08346662  1  0  1.90398  0  3.244057  0  0  1.692276  0  3.78265  0  0  1.763426  0  3.713921  0  0  0.622413  1.642478  0  3.829793  0
Ge  Ge3  1  0.22250799  0.88112139  0.08440982  1  0  1.902109  0  3.235163  0  0  1.690461  0  3.77325  0  0  1.761646  0  3.704546  0  0  0.62233  1.640627  0  3.820384  0
Ge  Ge4  1  0.99328758  0.99540748  0.88944665  1  0  1.799639  0  3.145626  0  0  1.611402  0  3.62159  0  0  1.675228  0  3.575812  0  0  0.590541  1.56746  0  3.652022  0
Ge  Ge5  1  0.49324767  0.50460865  0.11055520  1  0  1.799706  0  3.145391  0  0  1.611516  0  3.621498  0  0  1.675346  0  3.575708  0  0  0.590595  1.567565  0  3.651932  0
H  H6  1  0.73690200  0.92412831  0.69377574  1  0  0.046152  0  0.912046  0  0  0.061818  0  0.972101  0  0  0.06233  0  0.971855  0  0  0.112307  0.061313  0  0.972498  0
H  H7  1  0.26765756  0.07373559  0.70137071  1  0  0.049802  0  0.912914  0  0  0.064545  0  0.973176  0  0  0.06514  0  0.972847  0  0  0.113814  0.063974  0  0.973647  0
H  H8  1  0.76755708  0.42625410  0.29861793  1  0  0.049683  0  0.913009  0  0  0.06465  0  0.973026  0  0  0.065241  0  0.972697  0  0  0.113777  0.064081  0  0.973493  0
H  H9  1  0.23681392  0.57588889  0.30622008  1  0  0.046391  0  0.912082  0  0  0.062049  0  0.971952  0  0  0.062563  0  0.971707  0  0  0.112446  0.061545  0  0.97235  0
H  H10  1  0.65012772  0.21966404  0.61722503  1  0  0.072075  0  0.940829  0  0  0.090019  0  1.002636  0  0  0.091068  0  1.002472  0  0  0.091646  0.089184  0  1.002887  0
H  H11  1  0.36755810  0.78782466  0.61432478  1  0  0.071682  0  0.942764  0  0  0.08943  0  1.004871  0  0  0.090468  0  1.004705  0  0  0.09112  0.08857  0  1.005139  0
H  H12  1  0.86744349  0.71215353  0.38566708  1  0  0.071653  0  0.94277  0  0  0.089415  0  1.004812  0  0  0.090447  0  1.004656  0  0  0.091173  0.088563  0  1.005068  0
H  H13  1  0.15000459  0.28036337  0.38277890  1  0  0.071994  0  0.941389  0  0  0.090015  0  1.003029  0  0  0.091067  0  1.002857  0  0  0.091662  0.089177  0  1.003285  0
H  H14  1  0.97296032  0.27073925  0.62257173  1  0  0.070644  0  0.92402  0  0  0.091253  0  0.981465  0  0  0.092159  0  0.98145  0  0  0.093372  0.090495  0  0.981623  0
H  H15  1  0.04583809  0.73222886  0.61337226  1  0  0.068038  0  0.930728  0  0  0.087798  0  0.990248  0  0  0.088715  0  0.990161  0  0  0.091678  0.087054  0  0.990427  0
H  H16  1  0.54572288  0.76775129  0.38663005  1  0  0.068204  0  0.930939  0  0  0.08785  0  0.990545  0  0  0.088767  0  0.990464  0  0  0.091741  0.087111  0  0.990714  0
H  H17  1  0.47282760  0.22926339  0.37742639  1  0  0.070965  0  0.923752  0  0  0.091414  0  0.981352  0  0  0.092306  0  0.981351  0  0  0.093393  0.090683  0  0.981478  0
H  H18  1  0.86643640  0.13953054  0.46971422  1  0  0.058162  0  0.956306  0  0  0.075917  0  1.019631  0  0  0.076975  0  1.019255  0  0  0.086201  0.075083  0  1.019999  0
H  H19  1  0.16134088  0.87447470  0.46710394  1  0  0.058296  0  0.95039  0  0  0.075439  0  1.014656  0  0  0.076471  0  1.014289  0  0  0.086298  0.074624  0  1.015021  0
H  H20  1  0.66127344  0.62548403  0.53289130  1  0  0.058561  0  0.95037  0  0  0.075605  0  1.014644  0  0  0.076639  0  1.014273  0  0  0.086321  0.074792  0  1.015007  0
H  H21  1  0.36631051  0.36045841  0.53028799  1  0  0.058078  0  0.956415  0  0  0.075931  0  1.019701  0  0  0.076981  0  1.019331  0  0  0.086291  0.075094  0  1.020069  0
H  H22  1  0.73489913  0.94922446  0.52085025  1  0  0.057671  0  0.950851  0  0  0.077793  0  1.014517  0  0  0.077714  0  1.016311  0  0  0.0874  0.077758  0  1.013352  0
H  H23  1  0.28816496  0.06163916  0.52552493  1  0  0.057342  0  0.953922  0  0  0.076493  0  1.018614  0  0  0.076408  0  1.020382  0  0  0.087026  0.076482  0  1.017438  0
H  H24  1  0.78804404  0.43831109  0.47444973  1  0  0.057385  0  0.954087  0  0  0.076591  0  1.018581  0  0  0.07651  0  1.020346  0  0  0.087055  0.076575  0  1.017415  0
H  H25  1  0.23480656  0.55077689  0.47916314  1  0  0.057713  0  0.951046  0  0  0.077795  0  1.014733  0  0  0.07776  0  1.016466  0  0  0.087406  0.077763  0  1.013561  0
H  H26  1  0.62273837  0.12932713  0.80266294  1  0  0.332545  0  0.865036  0  0  0.313855  0  0.929029  0  0  0.32158  0  0.922849  0  0  0.312091  0.308317  0  0.933567  0
H  H27  1  0.36851496  0.85654786  0.80286444  1  0  0.334521  0  0.86684  0  0  0.314966  0  0.93162  0  0  0.322779  0  0.925357  0  0  0.311119  0.309367  0  0.936189  0
H  H28  1  0.86845052  0.64345196  0.19713428  1  0  0.334456  0  0.867018  0  0  0.315086  0  0.931605  0  0  0.32291  0  0.925332  0  0  0.311183  0.309483  0  0.936182  0
H  H29  1  0.12266919  0.37067766  0.19733923  1  0  0.332408  0  0.865061  0  0  0.313813  0  0.928976  0  0  0.321541  0  0.922789  0  0  0.31205  0.308262  0  0.933542  0
H  H30  1  0.86881815  0.26283621  0.78944803  1  0  0.316656  0  0.885603  0  0  0.300201  0  0.9457  0  0  0.307394  0  0.939909  0  0  0.310559  0.295037  0  0.949955  0
H  H31  1  0.11750708  0.72991875  0.78214887  1  0  0.315269  0  0.875406  0  0  0.299629  0  0.934501  0  0  0.306652  0  0.928754  0  0  0.313  0.294559  0  0.93875  0
H  H32  1  0.61744047  0.77007955  0.21785458  1  0  0.315216  0  0.875712  0  0  0.299742  0  0.934626  0  0  0.306776  0  0.928863  0  0  0.313039  0.294671  0  0.938871  0
H  H33  1  0.36875603  0.23716343  0.21055080  1  0  0.316779  0  0.885601  0  0  0.30038  0  0.945614  0  0  0.307576  0  0.939823  0  0  0.310676  0.295213  0  0.949863  0
C  C34  1  0.86768870  0.03863498  0.69903703  1  0  0.153707  0  3.570383  0  0  0.128988  0  3.818795  0  0  0.132503  0  3.834974  0  0  0.012694  0.12663  0  3.80766  0
C  C35  1  0.13664741  0.95911623  0.69978671  1  0  0.150635  0  3.569583  0  0  0.126813  0  3.816513  0  0  0.130287  0  3.832633  0  0  0.011482  0.12448  0  3.805424  0
C  C36  1  0.63654731  0.54088044  0.30021037  1  0  0.151147  0  3.569175  0  0  0.127093  0  3.81622  0  0  0.130589  0  3.832316  0  0  0.01155  0.12476  0  3.805135  0
C  C37  1  0.36760677  0.46138084  0.30096324  1  0  0.153653  0  3.570719  0  0  0.129262  0  3.818557  0  0  0.132781  0  3.834725  0  0  0.012659  0.126893  0  3.807435  0
C  C38  1  0.83793264  0.15851057  0.61659104  1  0  -0.16053  0  3.673665  0  0  -0.205939  0  3.93874  0  0  -0.207469  0  3.952784  0  0  -0.163263  -0.204645  0  3.928856  0
C  C39  1  0.17819237  0.84648092  0.61344734  1  0  -0.163104  0  3.677715  0  0  -0.207856  0  3.941924  0  0  -0.20936  0  3.955981  0  0  -0.163683  -0.206593  0  3.932112  0
C  C40  1  0.67808545  0.65350181  0.38654439  1  0  -0.163245  0  3.677946  0  0  -0.207902  0  3.942023  0  0  -0.209414  0  3.956086  0  0  -0.1638  -0.206642  0  3.93221  0
C  C41  1  0.33782393  0.34149735  0.38340215  1  0  -0.161322  0  3.674263  0  0  -0.206611  0  3.939065  0  0  -0.208148  0  3.953115  0  0  -0.163523  -0.205352  0  3.929225  0
C  C42  1  0.88320317  0.05157942  0.52866416  1  0  -0.10765  0  3.699406  0  0  -0.148459  0  3.963167  0  0  -0.149645  0  3.978741  0  0  -0.166766  -0.147448  0  3.95227  0
C  C43  1  0.13956539  0.95888159  0.52857937  1  0  -0.104691  0  3.69671  0  0  -0.145303  0  3.961463  0  0  -0.14644  0  3.977005  0  0  -0.166372  -0.144324  0  3.950566  0
C  C44  1  0.63948915  0.54109751  0.47141422  1  0  -0.10559  0  3.697611  0  0  -0.145998  0  3.96208  0  0  -0.147151  0  3.97763  0  0  -0.166623  -0.145021  0  3.95119  0
C  C45  1  0.38308543  0.44842153  0.47134126  1  0  -0.107037  0  3.699512  0  0  -0.148078  0  3.963355  0  0  -0.149256  0  3.978877  0  0  -0.166669  -0.147076  0  3.952483  0
N  N46  1  0.80997732  0.13106328  0.78521827  1  0  -0.628041  0  3.104801  0  0  -0.568503  0  3.331661  0  0  -0.58844  0  3.332245  0  0  -0.555711  -0.554728  0  3.331212  0
N  N47  1  0.18249479  0.85993682  0.78352212  1  0  -0.625282  0  3.096751  0  0  -0.565786  0  3.324263  0  0  -0.585488  0  3.324542  0  0  -0.55333  -0.552162  0  3.324063  0
N  N48  1  0.68242753  0.64007427  0.21647915  1  0  -0.625264  0  3.096646  0  0  -0.566249  0  3.324237  0  0  -0.585968  0  3.324496  0  0  -0.553415  -0.552622  0  3.324046  0
N  N49  1  0.30992077  0.36893696  0.21478272  1  0  -0.628067  0  3.104675  0  0  -0.568817  0  3.331485  0  0  -0.588766  0  3.332069  0  0  -0.555687  -0.555027  0  3.331035  0
O  O50  1  0.48118984  0.50120713  0.85615775  1  0  -0.981134  0  1.76114  0  0  -0.879196  0  2.051372  0  0  -0.911712  0  2.02107  0  0  -0.388311  -0.856327  0  2.071907  0
O  O51  1  0.98117156  0.99881733  0.14385242  1  0  -0.981508  0  1.761109  0  0  -0.879483  0  2.051281  0  0  -0.911993  0  2.020963  0  0  -0.388457  -0.856613  0  2.071821  0
O  O52  1  0.73295017  0.82853446  0.86305352  1  0  -0.989542  0  1.768447  0  0  -0.895056  0  2.057064  0  0  -0.929487  0  2.034502  0  0  -0.392952  -0.870966  0  2.072041  0
O  O53  1  0.25557256  0.16101888  0.86760045  1  0  -0.989072  0  1.770489  0  0  -0.894805  0  2.05935  0  0  -0.929371  0  2.037022  0  0  -0.392115  -0.870728  0  2.074396  0
O  O54  1  0.75553006  0.33900213  0.13240407  1  0  -0.989034  0  1.770339  0  0  -0.894982  0  2.059466  0  0  -0.929542  0  2.037113  0  0  -0.392346  -0.870895  0  2.074514  0
O  O55  1  0.23290269  0.67148167  0.13695726  1  0  -0.989483  0  1.768268  0  0  -0.894953  0  2.05679  0  0  -0.929423  0  2.034306  0  0  -0.392882  -0.870841  0  2.071751  0
O  O56  1  0.81095951  0.14007571  0.96752677  1  0  -1.030292  0  1.893296  0  0  -0.929978  0  2.18775  0  0  -0.965093  0  2.164452  0  0  -0.364597  -0.905299  0  2.203058  0
O  O57  1  0.16679492  0.85056466  0.96813362  1  0  -1.029812  0  1.878755  0  0  -0.929117  0  2.171087  0  0  -0.964343  0  2.148001  0  0  -0.362446  -0.904386  0  2.186287  0
O  O58  1  0.66679320  0.64944260  0.03187123  1  0  -1.029776  0  1.878866  0  0  -0.929027  0  2.171163  0  0  -0.964244  0  2.148075  0  0  -0.362344  -0.904296  0  2.186362  0
O  O59  1  0.31095307  0.35993801  0.03247629  1  0  -1.030279  0  1.893347  0  0  -0.929926  0  2.187789  0  0  -0.965035  0  2.164478  0  0  -0.364606  -0.905255  0  2.203111  0
O  O60  1  0.98075068  0.48869092  0.87474102  1  0  -1.009401  0  1.844733  0  0  -0.898669  0  2.140928  0  0  -0.931662  0  2.107505  0  0  -0.377307  -0.87546  0  2.163702  0
O  O61  1  0.48072776  0.01130645  0.12526849  1  0  -1.009376  0  1.844502  0  0  -0.898783  0  2.140811  0  0  -0.931789  0  2.107401  0  0  -0.377311  -0.875572  0  2.163586  0
