# generated using pymatgen
data_Ni3P4H38C40(N5O7)2
_symmetry_space_group_name_H-M   'P 1'
_cell_length_a   8.88447538
_cell_length_b   10.66790938
_cell_length_c   13.62454474
_cell_angle_alpha   67.59972532
_cell_angle_beta   75.77297849
_cell_angle_gamma   80.23253228
_symmetry_Int_Tables_number   1
_chemical_formula_structural   Ni3P4H38C40(N5O7)2
_chemical_formula_sum   'Ni3 P4 H38 C40 N10 O14'
_cell_volume   1153.09514858
_cell_formula_units_Z   1
loop_
 _symmetry_equiv_pos_site_id
 _symmetry_equiv_pos_as_xyz
  1  'x, y, z'
loop_
 _atom_site_type_symbol
 _atom_site_label
 _atom_site_symmetry_multiplicity
 _atom_site_fract_x
 _atom_site_fract_y
 _atom_site_fract_z
 _atom_site_occupancy
 _atom_site_pbe_bader_charge
 _atom_site_pbe_bader_spin_density
 _atom_site_pbe_cm5_charge
 _atom_site_pbe_ddec_charge
 _atom_site_pbe_ddec_spin_density
 _atom_site_pbe_ddec_sum_bond_order
 _atom_site_pbe_magmom
Ni  Ni0  1  0.49999647  0.49999757  0.00000266  1  1.232229  1.6099  0.682475  0.930303  1.80822  2.431054  1.598
Ni  Ni1  1  0.30076073  0.89705903  0.15444543  1  1.183928  1.581351  0.669447  0.826141  1.775482  2.464055  1.567
Ni  Ni2  1  0.69923358  0.10294210  0.84555561  1  1.184038  1.581353  0.669451  0.826126  1.775485  2.464046  1.567
P  P3  1  0.53545419  0.82005421  0.96557942  1  3.320164  0.008844  0.320596  1.205996  0.011285  5.457079  0.009
P  P4  1  0.46454635  0.17994291  0.03442261  1  3.320048  0.008846  0.320648  1.206059  0.011284  5.456748  0.009
P  P5  1  0.21395443  0.71600629  0.05282332  1  3.240435  0.006321  0.34736  1.210141  0.007635  5.349406  0.006
P  P6  1  0.78604182  0.28398878  0.94717626  1  3.240934  0.006321  0.347299  1.210085  0.007635  5.349476  0.006
H  H7  1  0.34513508  0.04863609  0.95683919  1  0.636007  -0.000364  0.298495  0.353892  -0.000241  0.964151  0.0
H  H8  1  0.65486087  0.95136099  0.04316205  1  0.635957  -0.000364  0.298507  0.353814  -0.000241  0.964209  0.0
H  H9  1  0.00620669  0.73491052  0.98604456  1  0.623151  -0.00014  0.341108  0.401639  -9.7e-05  0.859475  0.0
H  H10  1  0.99378992  0.26509169  0.01395289  1  0.623356  -0.00014  0.341124  0.401662  -9.7e-05  0.859507  0.0
H  H11  1  0.37832756  0.99553808  0.79091121  1  0.067917  0.000127  0.116213  0.105951  3e-06  0.992084  0.0
H  H12  1  0.62166886  0.00445494  0.20909041  1  0.067802  0.000127  0.116217  0.105966  3e-06  0.991988  0.0
H  H13  1  0.37505578  0.82429152  0.80398151  1  0.076488  0.001469  0.116222  0.101441  0.000554  1.009421  0.001
H  H14  1  0.62494160  0.17570356  0.19601864  1  0.076538  0.001469  0.116225  0.10142  0.000554  1.009374  0.001
H  H15  1  0.05875168  0.09169958  0.87551795  1  0.206083  0.000771  0.136408  0.121672  0.000225  1.025192  0.0
H  H16  1  0.94124973  0.90830168  0.12447761  1  0.206142  0.000771  0.136398  0.121615  0.000225  1.025298  0.0
H  H17  1  0.86623499  0.89529994  0.72325743  1  0.148428  0.000876  0.113406  0.103794  0.000208  1.069121  0.001
H  H18  1  0.13376217  0.10469717  0.27674216  1  0.148582  0.000877  0.113381  0.103713  0.000208  1.069072  0.001
H  H19  1  0.16910603  0.78451970  0.73702877  1  0.122407  0.00091  0.112561  0.112432  0.000364  1.051815  0.001
H  H20  1  0.83088632  0.21547730  0.26297670  1  0.122394  0.000911  0.11263  0.112542  0.000364  1.051597  0.001
H  H21  1  0.30973808  0.61975407  0.32134624  1  0.144666  0.002011  0.121061  0.104689  0.000664  1.007293  0.001
H  H22  1  0.69025904  0.38024197  0.67865807  1  0.144607  0.002011  0.121038  0.104675  0.000664  1.007364  0.001
H  H23  1  0.34935608  0.51300943  0.51292876  1  0.076091  0.001141  0.105646  0.11255  0.000517  1.015842  0.001
H  H24  1  0.65064334  0.48698663  0.48707594  1  0.076233  0.001141  0.105659  0.112574  0.000517  1.015835  0.001
H  H25  1  0.43390529  0.91027270  0.49180488  1  0.059847  0.001048  0.104268  0.107701  0.000513  1.015814  0.0
H  H26  1  0.56609670  0.08972136  0.50819929  1  0.05964  0.001048  0.104278  0.107706  0.000513  1.015745  0.0
H  H27  1  0.38190724  0.00017829  0.30300474  1  0.118895  0.001829  0.122315  0.102911  0.00062  1.028459  0.001
H  H28  1  0.61809054  0.99982181  0.69699976  1  0.11885  0.001829  0.122317  0.102939  0.00062  1.028493  0.001
H  H29  1  0.30729396  0.42239888  0.88468747  1  0.168887  0.001738  0.126856  0.11387  0.000635  0.99035  0.001
H  H30  1  0.69269630  0.57760624  0.11531667  1  0.169101  0.001737  0.126902  0.11394  0.000634  0.990384  0.001
H  H31  1  0.25320187  0.50173797  0.69701892  1  0.086614  0.000973  0.10635  0.114135  0.000453  1.018066  0.0
H  H32  1  0.74679235  0.49826313  0.30298508  1  0.086618  0.000973  0.106365  0.114146  0.000453  1.017999  0.0
H  H33  1  0.62004186  0.77131769  0.59413032  1  0.107859  0.000981  0.102497  0.107844  0.000468  1.033876  0.0
H  H34  1  0.37997104  0.22867242  0.40587266  1  0.108095  0.00098  0.102466  0.10777  0.000468  1.033977  0.0
H  H35  1  0.65417393  0.68117045  0.78690946  1  0.154861  0.001696  0.125293  0.107221  0.000531  1.007497  0.001
H  H36  1  0.34583381  0.31881347  0.21309754  1  0.154657  0.001697  0.12526  0.107167  0.000531  1.007501  0.001
H  H37  1  0.07330534  0.36968576  0.24995527  1  0.07998  1.4e-05  0.117443  0.090059  -1e-06  0.974384  0.0
H  H38  1  0.92670610  0.63032988  0.75003389  1  0.079674  1.4e-05  0.1174  0.090052  -1e-06  0.974301  0.0
H  H39  1  0.02812104  0.56634220  0.30819926  1  0.100331  0.000169  0.10835  0.124939  0.00012  1.023986  0.0
H  H40  1  0.97188294  0.43366724  0.69179354  1  0.100551  0.000169  0.108336  0.124952  0.00012  1.023987  0.0
H  H41  1  0.01923804  0.28001341  0.63693750  1  0.057431  -5.4e-05  0.107649  0.117004  -0.000114  1.025632  0.0
H  H42  1  0.98077049  0.71999711  0.36305359  1  0.053498  -5.4e-05  0.107646  0.116964  -0.000114  1.025714  0.0
H  H43  1  0.07172468  0.09614305  0.56248795  1  0.086769  -2.6e-05  0.10575  0.075787  -3e-05  1.01748  0.0
H  H44  1  0.92828946  0.90386852  0.43750421  1  0.086316  -2.6e-05  0.105782  0.075816  -3e-05  1.017619  0.0
C  C45  1  0.32422887  0.86138582  0.95441488  1  -0.345022  0.001514  0.040843  -0.216518  -0.000358  3.889426  0.0
C  C46  1  0.67577067  0.13861028  0.04558612  1  -0.345021  0.001514  0.040807  -0.216619  -0.000358  3.88948  0.0
C  C47  1  0.31542440  0.90386391  0.83555626  1  0.317059  0.003144  -0.050506  -0.089076  0.002091  3.920833  0.002
C  C48  1  0.68457309  0.09613015  0.16444417  1  0.317081  0.003145  -0.050534  -0.089022  0.002091  3.920814  0.002
C  C49  1  0.04596632  0.02660410  0.83385938  1  0.9375  -0.00197  0.139558  0.101801  -0.002537  3.859481  -0.001
C  C50  1  0.95402990  0.97339097  0.16614094  1  0.937303  -0.00197  0.139544  0.101855  -0.002538  3.859514  -0.001
C  C51  1  0.94951944  0.92021645  0.75756759  1  0.394694  -0.000988  -0.005083  -0.029771  -0.001638  4.033982  -0.001
C  C52  1  0.05046689  0.07978464  0.24243022  1  0.394651  -0.000987  -0.005008  -0.029563  -0.001637  4.034024  -0.001
C  C53  1  0.09942722  0.86372493  0.76361440  1  0.263307  0.003563  -0.015445  -0.145898  0.001954  3.966174  0.002
C  C54  1  0.90057128  0.13627120  0.23638307  1  0.263451  0.003562  -0.015583  -0.146136  0.001954  3.966321  0.002
C  C55  1  0.33758878  0.67928090  0.36322295  1  0.577949  -0.005508  0.051749  0.099032  -0.006045  3.919568  -0.003
C  C56  1  0.66240554  0.32071918  0.63678133  1  0.577856  -0.005509  0.051678  0.098939  -0.006046  3.919719  -0.003
C  C57  1  0.36016441  0.62140354  0.46938945  1  -0.116393  0.004932  -0.084159  -0.180601  0.002586  3.96158  0.004
C  C58  1  0.63983349  0.37859555  0.53061533  1  -0.116336  0.004932  -0.084073  -0.180543  0.002586  3.961468  0.004
C  C59  1  0.39939074  0.70220351  0.51843288  1  -0.037081  -0.008949  0.007374  0.099914  -0.009725  3.991605  -0.005
C  C60  1  0.60061232  0.29779159  0.48157010  1  -0.036646  -0.008951  0.007396  0.099999  -0.009728  3.991498  -0.005
C  C61  1  0.40834576  0.84135816  0.45719218  1  0.006278  0.004593  -0.085346  -0.17391  0.002428  3.958804  0.004
C  C62  1  0.59165862  0.15863489  0.54281340  1  0.006228  0.004593  -0.085347  -0.173945  0.002428  3.958708  0.004
C  C63  1  0.37931358  0.89261630  0.35302449  1  0.445751  -0.005899  0.046132  0.088765  -0.006702  3.933867  -0.004
C  C64  1  0.62068912  0.10738184  0.64697839  1  0.445964  -0.0059  0.046169  0.088801  -0.006703  3.933942  -0.004
C  C65  1  0.37248248  0.49968216  0.81707365  1  0.50465  -0.004225  0.060893  0.120537  -0.004768  3.88855  -0.003
C  C66  1  0.62751114  0.50032401  0.18292969  1  0.504391  -0.004227  0.060868  0.120522  -0.00477  3.888417  -0.003
C  C67  1  0.34467886  0.54381109  0.71249353  1  -0.029992  0.003811  -0.082337  -0.176698  0.001981  3.9422  0.003
C  C68  1  0.65531312  0.45618895  0.28751184  1  -0.029996  0.003811  -0.082385  -0.176811  0.001981  3.942222  0.003
C  C69  1  0.43015511  0.64607075  0.62921714  1  -0.050032  -0.00701  0.00276  0.086358  -0.00768  4.016395  -0.004
C  C70  1  0.56984475  0.35393141  0.37078720  1  -0.050348  -0.007012  0.002705  0.086354  -0.007681  4.016556  -0.004
C  C71  1  0.54587358  0.69523575  0.65566121  1  -0.039913  0.003675  -0.089949  -0.189382  0.001979  3.961228  0.003
C  C72  1  0.45412969  0.30475731  0.34434307  1  -0.040341  0.003676  -0.089923  -0.189338  0.001979  3.961305  0.003
C  C73  1  0.56833096  0.64432518  0.76178733  1  0.427663  -0.004385  0.048961  0.090012  -0.005036  3.943025  -0.003
C  C74  1  0.43167590  0.35566690  0.23821671  1  0.427845  -0.004385  0.049049  0.090117  -0.005036  3.942895  -0.003
C  C75  1  0.06066435  0.35319893  0.33581363  1  0.468448  -1.8e-05  0.041232  0.083958  -2.4e-05  4.003318  0.0
C  C76  1  0.93934773  0.64681165  0.66417471  1  0.468656  -1.8e-05  0.041397  0.084103  -2.4e-05  4.003322  0.0
C  C77  1  0.03294079  0.46455680  0.36939584  1  -0.020742  0.000175  -0.086807  -0.18112  0.000135  3.939699  0.0
C  C78  1  0.96707425  0.53545786  0.63059309  1  -0.020572  0.000175  -0.086862  -0.181298  0.000134  3.940273  0.0
C  C79  1  0.01691459  0.44276887  0.47972457  1  -0.007308  1.4e-05  0.002671  0.087063  -5e-06  3.991133  0.0
C  C80  1  0.98309976  0.55724065  0.52026888  1  -0.049546  1.5e-05  0.002803  0.087358  -5e-06  3.991306  0.0
C  C81  1  0.03246889  0.30669132  0.54993029  1  0.00224  -8.3e-05  -0.087241  -0.178584  -0.000159  3.943599  0.0
C  C82  1  0.96754304  0.69332026  0.45005926  1  0.005361  -8.3e-05  -0.087194  -0.178469  -0.000159  3.943241  0.0
C  C83  1  0.06114650  0.20225242  0.50834016  1  0.472847  3e-05  0.035922  0.085714  -5e-06  4.001512  0.0
C  C84  1  0.93886303  0.79775911  0.49165195  1  0.47408  3e-05  0.035849  0.085614  -5e-06  4.001526  0.0
N  N85  1  0.91780808  0.02093283  0.80173723  1  -1.1858  0.07843  -0.354221  -0.287316  0.044545  3.600631  0.069
N  N86  1  0.08218782  0.97906423  0.19826549  1  -1.185578  0.078424  -0.354269  -0.287385  0.044544  3.600671  0.069
N  N87  1  0.15887349  0.93198419  0.81219732  1  -1.239713  0.002703  -0.251002  0.03559  0.001071  3.786668  0.002
N  N88  1  0.84112251  0.06801292  0.18780244  1  -1.239782  0.002702  -0.250897  0.035647  0.001071  3.786544  0.002
N  N89  1  0.34664971  0.81293921  0.30554955  1  -1.212732  0.070152  -0.322839  -0.207125  0.040087  3.56086  0.063
N  N90  1  0.65334926  0.18706091  0.69445403  1  -1.212689  0.070153  -0.322903  -0.207173  0.040087  3.560921  0.063
N  N91  1  0.48156895  0.54994738  0.84165138  1  -1.201781  0.063902  -0.316975  -0.213235  0.036838  3.544611  0.058
N  N92  1  0.51843204  0.45004567  0.15835176  1  -1.201696  0.063901  -0.316963  -0.213234  0.036837  3.544443  0.058
N  N93  1  0.07551296  0.22335817  0.40282917  1  -1.212244  0.00016  -0.323323  -0.27275  0.000105  3.33461  0.0
N  N94  1  0.92449045  0.77665635  0.59716224  1  -1.212689  0.00016  -0.323419  -0.272869  0.000105  3.334687  0.0
O  O95  1  0.26687031  0.97485831  0.99103696  1  -1.099174  0.061605  -0.360921  -0.449573  0.03454  2.448209  0.055
O  O96  1  0.73312316  0.02514081  0.00896185  1  -1.099194  0.061605  -0.360887  -0.449451  0.03454  2.448247  0.055
O  O97  1  0.59157100  0.67863144  0.96265020  1  -1.428411  0.068211  -0.369606  -0.739077  0.036681  2.393787  0.058
O  O98  1  0.40842154  0.32136457  0.03735332  1  -1.428441  0.068217  -0.369625  -0.739098  0.036685  2.393643  0.058
O  O99  1  0.53663223  0.83953029  0.07264646  1  -1.426109  0.050414  -0.371799  -0.735813  0.026518  2.243647  0.042
O  O100  1  0.46336574  0.16046883  0.92735609  1  -1.426067  0.050409  -0.371769  -0.735832  0.026521  2.243631  0.042
O  O101  1  0.61993365  0.92759120  0.86494888  1  -1.416967  0.077559  -0.377779  -0.731982  0.041665  2.409459  0.066
O  O102  1  0.38006581  0.07240488  0.13505435  1  -1.416906  0.077559  -0.377845  -0.732033  0.041666  2.409373  0.066
O  O103  1  0.03102410  0.75380762  0.04477179  1  -1.357469  0.010215  -0.382189  -0.614156  0.005229  2.194903  0.008
O  O104  1  0.96897167  0.24619151  0.95522741  1  -1.358125  0.010215  -0.382169  -0.614146  0.005229  2.195018  0.008
O  O105  1  0.26861765  0.58960911  0.02484809  1  -1.431129  0.061126  -0.364227  -0.734186  0.032781  2.300647  0.052
O  O106  1  0.73137723  0.41038693  0.97515434  1  -1.431101  0.061134  -0.364217  -0.734201  0.032786  2.300469  0.052
O  O107  1  0.22059094  0.71760200  0.16273423  1  -1.422603  0.052469  -0.362918  -0.718989  0.027565  2.280117  0.043
O  O108  1  0.77939946  0.28240318  0.83726548  1  -1.422661  0.05247  -0.362911  -0.718943  0.027565  2.280188  0.043
