# generated using pymatgen
data_CuH6C15NO8F
_symmetry_space_group_name_H-M   'P 1'
_cell_length_a   10.57770897
_cell_length_b   11.42143484
_cell_length_c   14.32177687
_cell_angle_alpha   90.00403741
_cell_angle_beta   108.77315710
_cell_angle_gamma   89.95058435
_symmetry_Int_Tables_number   1
_chemical_formula_structural   CuH6C15NO8F
_chemical_formula_sum   'Cu4 H24 C60 N4 O32 F4'
_cell_volume   1638.20151602
_cell_formula_units_Z   4
loop_
 _symmetry_equiv_pos_site_id
 _symmetry_equiv_pos_as_xyz
  1  'x, y, z'
loop_
 _atom_site_type_symbol
 _atom_site_label
 _atom_site_symmetry_multiplicity
 _atom_site_fract_x
 _atom_site_fract_y
 _atom_site_fract_z
 _atom_site_occupancy
 _atom_site_pbe_bader_charge
 _atom_site_pbe_bader_spin_density
 _atom_site_pbe_cm5_charge
 _atom_site_pbe_ddec_charge
 _atom_site_pbe_ddec_spin_density
 _atom_site_pbe_ddec_sum_bond_order
 _atom_site_pbe_magmom
Cu  Cu0  1  0.09275642  0.07873919  0.51123451  1  1.076449  -0.546444  0.688868  0.768174  -0.729853  2.404732  -0.544
Cu  Cu1  1  0.90802216  0.57800681  0.98882654  1  1.081458  0.582145  0.691431  0.773295  0.746623  2.401086  0.583
Cu  Cu2  1  0.90728526  0.92130360  0.48876792  1  1.075593  0.54811  0.689195  0.76894  0.700124  2.403687  0.545
Cu  Cu3  1  0.09197961  0.42198083  0.01116992  1  1.082417  0.581381  0.69138  0.773234  0.745582  2.400983  0.582
H  H4  1  0.96500789  0.27784707  0.72151420  1  0.128801  0.000245  0.113228  0.130122  0.000157  1.008331  0.0
H  H5  1  0.03496985  0.77787105  0.77841693  1  0.129123  0.000383  0.113173  0.130331  0.000304  1.008133  0.0
H  H6  1  0.03498389  0.72215196  0.27848129  1  0.128769  0.000359  0.113188  0.13009  0.000307  1.00836  0.0
H  H7  1  0.96502393  0.22212798  0.22158322  1  0.129237  2.5e-05  0.113155  0.130227  -5.6e-05  1.008169  0.0
H  H8  1  0.58972240  0.17635854  0.51046908  1  0.088262  0.000154  0.108916  0.117986  0.000131  0.995947  0.0
H  H9  1  0.41034404  0.67641655  0.98951164  1  0.088926  0.000261  0.108807  0.117873  0.000164  0.996129  0.0
H  H10  1  0.41027437  0.82364487  0.48952619  1  0.088333  -0.000192  0.108927  0.117992  -0.000158  0.995935  0.0
H  H11  1  0.58965272  0.32358423  0.01048433  1  0.088863  0.000268  0.108787  0.117823  0.000171  0.99616  0.0
H  H12  1  0.60197544  0.44098506  0.72912576  1  0.1027  0.000311  0.104902  0.114934  0.00024  1.020317  0.0
H  H13  1  0.39784532  0.94102229  0.77083729  1  0.103409  -0.000267  0.104958  0.115091  -0.000247  1.020157  0.0
H  H14  1  0.39801935  0.55900959  0.27087952  1  0.102862  0.000315  0.104927  0.115012  0.000241  1.020386  0.0
H  H15  1  0.60215544  0.05898550  0.22916662  1  0.10353  0.000257  0.104962  0.115198  0.000232  1.020077  0.0
H  H16  1  0.42917988  0.51740010  0.57269728  1  0.127199  2e-06  0.113684  0.142184  -4e-06  1.003674  0.0
H  H17  1  0.57068392  0.01749554  0.92725795  1  0.128917  3e-06  0.113309  0.141676  2e-06  1.004196  0.0
H  H18  1  0.57081490  0.48259543  0.42730031  1  0.12716  9e-06  0.113708  0.142225  -5e-06  1.003504  0.0
H  H19  1  0.42931785  0.98250174  0.07274200  1  0.129059  -4e-06  0.113282  0.141651  -1.2e-05  1.004183  0.0
H  H20  1  0.39203066  0.13917579  0.56616439  1  0.115268  7.4e-05  0.121506  0.106125  5.4e-05  0.981922  0.0
H  H21  1  0.60815231  0.63924344  0.93387891  1  0.114648  -9.1e-05  0.121453  0.106111  -7.3e-05  0.982256  0.0
H  H22  1  0.60797011  0.86081973  0.43383882  1  0.115333  -8.1e-05  0.121495  0.106132  -6e-05  0.981951  0.0
H  H23  1  0.39184945  0.36075384  0.06612035  1  0.114672  -8.7e-05  0.121437  0.106103  -6.9e-05  0.982261  0.0
H  H24  1  0.04752474  0.34197581  0.47800906  1  0.1333  8.4e-05  0.125502  0.126113  5.4e-05  0.988048  0.0
H  H25  1  0.95247868  0.84182485  0.02198916  1  0.133042  -0.000112  0.125608  0.126368  -6e-05  0.9873  0.0
H  H26  1  0.95247204  0.65801709  0.52199250  1  0.133257  -7.8e-05  0.125489  0.126052  -5.1e-05  0.988078  0.0
H  H27  1  0.04752009  0.15817418  0.97800938  1  0.133121  -0.000118  0.125604  0.126345  -6.4e-05  0.98731  0.0
C  C28  1  0.85796357  0.13576251  0.56725562  1  1.55265  -0.000289  0.215971  0.579449  -0.000479  4.161413  -0.001
C  C29  1  0.14229137  0.63615313  0.93261255  1  1.556096  -0.002013  0.21612  0.579197  0.000448  4.163206  -0.004
C  C30  1  0.14202821  0.86423828  0.43274476  1  1.552729  0.000668  0.216074  0.579582  0.000481  4.161664  0.001
C  C31  1  0.85770641  0.36384502  0.06738995  1  1.55595  -0.001687  0.215956  0.57903  0.000684  4.163371  -0.004
C  C32  1  0.78420489  0.22038482  0.61051519  1  -0.064738  0.001046  -0.013962  -0.018719  0.000627  3.995058  0.001
C  C33  1  0.21590871  0.72046412  0.88934092  1  -0.067558  0.01554  -0.015627  -0.021547  0.010851  3.998545  0.012
C  C34  1  0.21579486  0.77962471  0.38947591  1  -0.064187  0.000754  -0.014  -0.018742  0.000358  3.995149  0.001
C  C35  1  0.78409404  0.27952265  0.11064180  1  -0.06769  0.016575  -0.015457  -0.021249  0.011593  3.998179  0.013
C  C36  1  0.79076839  0.36589653  0.73414304  1  0.034123  0.016845  -0.015975  -0.017999  0.011774  3.977202  0.013
C  C37  1  0.20903633  0.86616291  0.76579666  1  0.032472  0.000432  -0.014135  -0.015153  0.00018  3.970598  0.0
C  C38  1  0.20922542  0.63407886  0.26587248  1  0.03447  0.015419  -0.015929  -0.017755  0.010802  3.976546  0.012
C  C39  1  0.79095945  0.13385187  0.23421165  1  0.03271  0.000623  -0.014036  -0.015027  0.000334  3.970563  0.0
C  C40  1  0.85721874  0.28783498  0.69098618  1  0.020169  0.002001  -0.070571  -0.09617  0.00136  3.902352  0.002
C  C41  1  0.14272282  0.78799971  0.80890481  1  0.020302  0.001754  -0.069973  -0.095723  0.001234  3.900551  0.001
C  C42  1  0.14276605  0.71215880  0.30901393  1  0.019328  -0.000181  -0.070546  -0.096223  -5.4e-05  3.901952  0.0
C  C43  1  0.85726696  0.21199757  0.19108950  1  0.020165  0.004168  -0.070161  -0.095838  0.002741  3.900447  0.003
C  C44  1  0.64526021  0.23089355  0.57265255  1  0.053972  -0.00209  -0.077152  -0.142086  -0.001437  3.924245  -0.002
C  C45  1  0.35483389  0.73092213  0.92727214  1  0.053515  0.002212  -0.076396  -0.140728  0.001557  3.923094  0.001
C  C46  1  0.35473556  0.76911249  0.42733830  1  0.054347  0.000835  -0.077194  -0.142133  0.000496  3.924371  0.001
C  C47  1  0.64516588  0.26906989  0.07272036  1  0.053867  0.002698  -0.076396  -0.140695  0.001874  3.922965  0.002
C  C48  1  0.65258768  0.38065038  0.69400739  1  -0.103173  0.000292  -0.079804  -0.137644  0.000198  3.911614  0.0
C  C49  1  0.34723419  0.88076703  0.80597421  1  -0.099209  0.002896  -0.079677  -0.137637  0.001808  3.910355  0.002
C  C50  1  0.34740513  0.61932939  0.30600580  1  -0.103352  0.001486  -0.079947  -0.138042  0.001019  3.912004  0.001
C  C51  1  0.65275859  0.11924601  0.19403339  1  -0.099394  0.00117  -0.079693  -0.137852  0.000781  3.910282  0.0
C  C52  1  0.57895117  0.31325035  0.61288670  1  -0.009358  0.000243  -0.011824  0.061312  8.7e-05  4.031535  0.0
C  C53  1  0.42104867  0.81329163  0.88706631  1  -0.010264  0.001352  -0.012208  0.060408  0.000881  4.030788  0.001
C  C54  1  0.42104361  0.68674518  0.38711578  1  -0.009704  0.001596  -0.011738  0.061622  0.001032  4.031468  0.001
C  C55  1  0.57894810  0.18671266  0.11293106  1  -0.010345  -0.000177  -0.012212  0.060443  -0.000205  4.030773  0.0
C  C56  1  0.86780928  0.42622396  0.82764136  1  1.559267  -0.001263  0.214624  0.581512  0.001045  4.154745  -0.004
C  C57  1  0.13212472  0.92642273  0.67193157  1  1.56617  0.001048  0.21425  0.580289  0.000819  4.156333  0.001
C  C58  1  0.13218749  0.57377682  0.17235042  1  1.559269  -0.001592  0.214627  0.581256  0.000805  4.154671  -0.004
C  C59  1  0.86786905  0.07357104  0.32806369  1  1.56616  -0.000688  0.214247  0.580167  -0.000841  4.156142  -0.001
C  C60  1  0.43250857  0.32617937  0.57330887  1  -0.008333  -0.000104  -0.001887  0.051239  -0.000102  4.025221  0.0
C  C61  1  0.56749916  0.82622888  0.92663765  1  -0.007304  0.000642  -0.002126  0.051368  0.000419  4.024021  0.0
C  C62  1  0.56748821  0.67381615  0.42669269  1  -0.008362  0.00051  -0.001839  0.051117  0.000343  4.0252  0.0
C  C63  1  0.43250061  0.17376752  0.07336183  1  -0.00736  0.000338  -0.002138  0.051333  0.000196  4.024022  0.0
C  C64  1  0.37116936  0.43670244  0.55777762  1  -0.073654  0.000609  -0.084633  -0.227223  0.00037  3.94862  0.0
C  C65  1  0.62872661  0.93673502  0.94217929  1  -0.077284  -0.000644  -0.084199  -0.226726  -0.000424  3.94696  0.0
C  C66  1  0.62883041  0.56329571  0.44222256  1  -0.073721  -0.000566  -0.084636  -0.227164  -0.000386  3.948639  0.0
C  C67  1  0.37127416  0.06326489  0.05782113  1  -0.077503  -0.000669  -0.084198  -0.226715  -0.000444  3.946965  0.0
C  C68  1  0.34965121  0.22720649  0.55312689  1  0.50905  0.000758  0.039257  0.009767  0.000521  3.936989  0.0
C  C69  1  0.65049663  0.72722131  0.94688924  1  0.511857  -0.000713  0.038995  0.009221  -0.00053  3.937714  0.0
C  C70  1  0.65035056  0.77278991  0.44687516  1  0.509168  -0.000592  0.039205  0.009714  -0.000421  3.937046  0.0
C  C71  1  0.34950414  0.27277684  0.05310977  1  0.511879  -0.000828  0.03904  0.009251  -0.000611  3.937569  -0.001
C  C72  1  0.23275856  0.44086247  0.52226041  1  0.47984  -0.00017  0.099878  0.243657  -0.000141  4.094757  0.0
C  C73  1  0.76715126  0.94074910  0.97772026  1  0.480293  0.000259  0.100131  0.244698  0.000185  4.094094  0.0
C  C74  1  0.76723821  0.55913481  0.47774046  1  0.479877  0.000159  0.099868  0.243638  0.000123  4.094707  0.0
C  C75  1  0.23285051  0.05924818  0.02228109  1  0.480777  0.000259  0.100139  0.244698  0.000191  4.094027  0.0
C  C76  1  0.15632062  0.33922457  0.50420326  1  0.582507  0.00072  0.040814  -0.025346  0.00047  3.929952  0.0
C  C77  1  0.84368405  0.83905083  0.99578166  1  0.584073  -0.000787  0.040432  -0.026  -0.000533  3.930564  0.0
C  C78  1  0.84367815  0.66077358  0.49579808  1  0.582528  -0.000677  0.040821  -0.025284  -0.000458  3.930029  0.0
C  C79  1  0.15631572  0.16094732  0.00421782  1  0.583642  -0.000811  0.040417  -0.026014  -0.000551  3.930585  -0.001
C  C80  1  0.67726020  0.69789359  0.70361326  1  2.130395  4.5e-05  0.362177  0.710218  0.0001  4.136039  0.0
C  C81  1  0.32274558  0.19788926  0.79638640  1  2.131145  -5e-05  0.36213  0.7095  -9.8e-05  4.136444  0.0
C  C82  1  0.32273957  0.30210982  0.29639321  1  2.130202  4.5e-05  0.362274  0.71023  0.000102  4.135785  0.0
C  C83  1  0.67725818  0.80211151  0.20360983  1  2.131099  4.9e-05  0.362002  0.70928  9.2e-05  4.136783  0.0
C  C84  1  0.75901620  0.98825952  0.73964494  1  2.121365  1.4e-05  0.35941  0.713598  3.8e-05  4.144142  0.0
C  C85  1  0.24098241  0.48825340  0.76035104  1  2.121561  -6e-06  0.359356  0.713263  2.3e-05  4.144709  0.0
C  C86  1  0.24098057  0.01174914  0.26036011  1  2.120964  -1.2e-05  0.359492  0.713634  -4.4e-05  4.144186  0.0
C  C87  1  0.75901936  0.51174475  0.23964961  1  2.121839  -8e-06  0.359329  0.713271  2e-05  4.144737  0.0
N  N88  1  0.21608892  0.23403425  0.52065317  1  -1.22179  0.001699  -0.331099  -0.206359  0.000776  3.565516  0.0
N  N89  1  0.78406109  0.73388747  0.97936804  1  -1.224306  -0.00168  -0.329894  -0.205856  -0.000535  3.561519  0.0
N  N90  1  0.78391185  0.76596478  0.47934934  1  -1.221595  -0.001539  -0.331103  -0.206556  -0.00072  3.565339  0.0
N  N91  1  0.21593868  0.26610893  0.02063144  1  -1.22446  -0.0018  -0.329887  -0.205826  -0.000607  3.561445  0.0
O  O92  1  0.97039282  0.17096084  0.56383933  1  -1.100415  -0.080575  -0.30581  -0.512843  -0.054661  2.390513  -0.073
O  O93  1  0.02984383  0.67126385  0.93628969  1  -1.099618  0.090941  -0.306277  -0.513349  0.058372  2.386983  0.083
O  O94  1  0.02960095  0.82904519  0.43615244  1  -1.100457  0.081052  -0.305778  -0.512819  0.052501  2.390723  0.073
O  O95  1  0.97015394  0.32875094  0.06371211  1  -1.099997  0.090785  -0.306233  -0.513336  0.058287  2.387225  0.083
O  O96  1  0.80327745  0.03660731  0.53969530  1  -1.102497  0.087694  -0.312906  -0.517142  0.056865  2.33913  0.079
O  O97  1  0.19666185  0.53676596  0.96037666  1  -1.103357  0.098223  -0.313061  -0.517161  0.063273  2.336203  0.089
O  O98  1  0.19673932  0.96338120  0.46033055  1  -1.102426  -0.087164  -0.312884  -0.517143  -0.059164  2.339257  -0.079
O  O99  1  0.80333593  0.46325409  0.03964469  1  -1.103268  0.098604  -0.313153  -0.517347  0.063508  2.335895  0.09
O  O100  1  0.98061541  0.38115160  0.87437166  1  -1.099504  0.089658  -0.309922  -0.518803  0.057514  2.389248  0.082
O  O101  1  0.01958608  0.88108603  0.62534388  1  -1.109796  0.079831  -0.309214  -0.517655  0.051611  2.392543  0.072
O  O102  1  0.01937537  0.61885093  0.12562569  1  -1.099582  0.089897  -0.309785  -0.518544  0.05766  2.389054  0.082
O  O103  1  0.98041668  0.11892350  0.37465910  1  -1.109929  -0.079466  -0.309298  -0.51774  -0.053809  2.392146  -0.072
O  O104  1  0.81389454  0.51449654  0.85453901  1  -1.113507  0.098533  -0.313763  -0.522223  0.063307  2.36037  0.089
O  O105  1  0.18659006  0.01431466  0.64525115  1  -1.111892  -0.086533  -0.313596  -0.521229  -0.058528  2.36382  -0.078
O  O106  1  0.18612614  0.48554362  0.14543680  1  -1.113165  0.098001  -0.313672  -0.521933  0.062962  2.360527  0.089
O  O107  1  0.81343865  0.98565896  0.35473145  1  -1.112087  0.087043  -0.313597  -0.521163  0.056237  2.363851  0.079
O  O108  1  0.56567156  0.67035261  0.69085124  1  -1.085509  0.000145  -0.179427  -0.360831  8.4e-05  2.190769  0.0
O  O109  1  0.43438604  0.17033031  0.80915219  1  -1.085624  -0.000149  -0.179263  -0.360443  -9.2e-05  2.190976  0.0
O  O110  1  0.43432920  0.32964642  0.30914847  1  -1.085316  0.000151  -0.179413  -0.360836  8e-05  2.190679  0.0
O  O111  1  0.56561772  0.82966784  0.19084474  1  -1.085625  0.000162  -0.179221  -0.360307  8.1e-05  2.191067  0.0
O  O112  1  0.78759660  0.72704688  0.71490881  1  -1.065838  2.4e-05  -0.160411  -0.327407  -2e-06  2.215634  0.0
O  O113  1  0.21235670  0.22706492  0.78506467  1  -1.066444  -2.5e-05  -0.160393  -0.327223  -4e-06  2.216105  0.0
O  O114  1  0.21240318  0.27296265  0.28509975  1  -1.065853  1e-06  -0.160497  -0.32739  -4e-06  2.21542  0.0
O  O115  1  0.78764505  0.77293499  0.21492131  1  -1.066368  2.6e-05  -0.160316  -0.327125  -6e-06  2.216233  0.0
O  O116  1  0.64449754  0.97004750  0.70044851  1  -1.069551  0.000146  -0.186192  -0.36571  9.1e-05  2.168394  0.0
O  O117  1  0.35552652  0.47001115  0.79957065  1  -1.069463  0.000135  -0.186184  -0.365536  9.2e-05  2.169048  0.0
O  O118  1  0.35550024  0.02996291  0.29956166  1  -1.06923  -0.00016  -0.186269  -0.365771  -0.000111  2.168346  0.0
O  O119  1  0.64447326  0.52998525  0.20043023  1  -1.069703  0.000139  -0.186186  -0.365543  8.9e-05  2.168952  0.0
O  O120  1  0.87268990  0.00638210  0.78057237  1  -1.070656  -6.6e-05  -0.166887  -0.333853  -4.9e-05  2.178365  0.0
O  O121  1  0.12727894  0.50639193  0.71939947  1  -1.070942  -8.4e-05  -0.166802  -0.333628  -6e-05  2.178169  0.0
O  O122  1  0.12731187  0.99362393  0.21942967  1  -1.070577  4.4e-05  -0.166887  -0.333846  2.3e-05  2.178505  0.0
O  O123  1  0.87272083  0.49360447  0.28060141  1  -1.070985  -9.3e-05  -0.166784  -0.333636  -6.2e-05  2.178278  0.0
F  F124  1  0.17007502  0.54640066  0.50562539  1  -0.630243  -2.7e-05  -0.088794  -0.129423  -1.6e-05  1.366821  0.0
F  F125  1  0.82973163  0.04624782  0.99433465  1  -0.630565  3.5e-05  -0.088998  -0.130002  2.4e-05  1.367072  0.0
F  F126  1  0.82992276  0.45359486  0.49437431  1  -0.630281  1.1e-05  -0.08878  -0.129404  -1e-06  1.366771  0.0
F  F127  1  0.17026914  0.95374946  0.00566576  1  -0.630585  3.1e-05  -0.089006  -0.129995  1.9e-05  1.367063  0.0
