# generated using pymatgen
data_MgH12C14(O3F)2
_symmetry_space_group_name_H-M   'P 1'
_cell_length_a   6.56919081
_cell_length_b   7.28458338
_cell_length_c   15.94366677
_cell_angle_alpha   109.48437150
_cell_angle_beta   90.00086355
_cell_angle_gamma   89.99950013
_symmetry_Int_Tables_number   1
_chemical_formula_structural   MgH12C14(O3F)2
_chemical_formula_sum   'Mg2 H24 C28 O12 F4'
_cell_volume   719.27221950
_cell_formula_units_Z   2
loop_
 _symmetry_equiv_pos_site_id
 _symmetry_equiv_pos_as_xyz
  1  'x, y, z'
loop_
 _atom_site_type_symbol
 _atom_site_label
 _atom_site_symmetry_multiplicity
 _atom_site_fract_x
 _atom_site_fract_y
 _atom_site_fract_z
 _atom_site_occupancy
 _atom_site_hle17_bader_spin_density
 _atom_site_hle17_ddec_charge
 _atom_site_hle17_ddec_spin_density
 _atom_site_hle17_ddec_sum_bond_order
 _atom_site_hle17_magmom
 _atom_site_hse06_10hf_bader_spin_density
 _atom_site_hse06_10hf_ddec_charge
 _atom_site_hse06_10hf_ddec_spin_density
 _atom_site_hse06_10hf_ddec_sum_bond_order
 _atom_site_hse06_10hf_magmom
 _atom_site_hse06_bader_spin_density
 _atom_site_hse06_ddec_charge
 _atom_site_hse06_ddec_spin_density
 _atom_site_hse06_ddec_sum_bond_order
 _atom_site_hse06_magmom
 _atom_site_pbe_bader_spin_density
 _atom_site_pbe_cm5_charge
 _atom_site_pbe_ddec_charge
 _atom_site_pbe_ddec_spin_density
 _atom_site_pbe_ddec_sum_bond_order
 _atom_site_pbe_magmom
Mg  Mg0  1  0.99999179  0.49999802  0.00000092  1  0  1.516734  0  1.10114  0  0  1.407055  0  1.35532  0  0  1.429743  0  1.320676  0  0  0.809465  1.390974  0  1.379673  0
Mg  Mg1  1  0.49999925  0.99999292  0.99999823  1  0  1.516771  0  1.101086  0  0  1.407045  0  1.355305  0  0  1.42976  0  1.320645  0  0  0.809409  1.390967  0  1.379659  0
H  H2  1  0.92917353  0.14865899  0.73113752  1  0  0.099435  0  0.960047  0  0  0.108506  0  1.0219  0  0  0.111002  0  1.021118  0  0  0.104895  0.106715  0  1.022458  0
H  H3  1  0.42919524  0.35136135  0.26885491  1  0  0.099488  0  0.95966  0  0  0.108471  0  1.021642  0  0  0.110968  0  1.020864  0  0  0.104866  0.106681  0  1.022196  0
H  H4  1  0.07082946  0.85135430  0.26886406  1  0  0.099371  0  0.960032  0  0  0.10844  0  1.021901  0  0  0.110936  0  1.021116  0  0  0.104919  0.106648  0  1.022457  0
H  H5  1  0.57082450  0.64866094  0.73114083  1  0  0.099398  0  0.95984  0  0  0.108455  0  1.021743  0  0  0.110952  0  1.020964  0  0  0.104873  0.106663  0  1.022302  0
H  H6  1  0.82799769  0.98283114  0.57118043  1  0  0.126712  0  0.944085  0  0  0.131955  0  1.007268  0  0  0.136656  0  1.003812  0  0  0.104405  0.128591  0  1.009879  0
H  H7  1  0.32800578  0.51718768  0.42881906  1  0  0.126716  0  0.943857  0  0  0.131953  0  1.007072  0  0  0.136652  0  1.003619  0  0  0.104398  0.128589  0  1.009681  0
H  H8  1  0.17201444  0.01718027  0.42881840  1  0  0.126768  0  0.944061  0  0  0.132031  0  1.007221  0  0  0.136729  0  1.003767  0  0  0.104443  0.128668  0  1.009832  0
H  H9  1  0.67201092  0.48282675  0.57118077  1  0  0.126758  0  0.943882  0  0  0.131957  0  1.007134  0  0  0.136658  0  1.003678  0  0  0.104382  0.128593  0  1.009745  0
H  H10  1  0.23426931  0.86801120  0.65617454  1  0  0.127519  0  0.935581  0  0  0.136811  0  0.992937  0  0  0.140341  0  0.992106  0  0  0.109296  0.134269  0  0.993677  0
H  H11  1  0.73423009  0.63197629  0.34381596  1  0  0.127381  0  0.935104  0  0  0.136648  0  0.99252  0  0  0.140177  0  0.991695  0  0  0.109278  0.13409  0  0.993275  0
H  H12  1  0.76573369  0.13198381  0.34381979  1  0  0.127531  0  0.93549  0  0  0.136822  0  0.992843  0  0  0.140351  0  0.992011  0  0  0.109295  0.134281  0  0.993581  0
H  H13  1  0.26576073  0.36800413  0.65618478  1  0  0.127443  0  0.935139  0  0  0.136715  0  0.992544  0  0  0.140258  0  0.991696  0  0  0.109279  0.134154  0  0.993305  0
H  H14  1  0.33474350  0.03108089  0.81532330  1  0  0.114557  0  0.962633  0  0  0.1231  0  1.022849  0  0  0.126829  0  1.019654  0  0  0.110794  0.120405  0  1.025184  0
H  H15  1  0.83471464  0.46890167  0.18466437  1  0  0.114654  0  0.962403  0  0  0.123098  0  1.022753  0  0  0.126826  0  1.019559  0  0  0.110787  0.120402  0  1.025087  0
H  H16  1  0.66525645  0.96891879  0.18467349  1  0  0.114693  0  0.962614  0  0  0.123199  0  1.022837  0  0  0.126925  0  1.019645  0  0  0.110849  0.120506  0  1.025165  0
H  H17  1  0.16527314  0.53107687  0.81533363  1  0  0.114647  0  0.962528  0  0  0.123135  0  1.022809  0  0  0.126862  0  1.019617  0  0  0.11079  0.12044  0  1.025144  0
H  H18  1  0.35453179  0.58834838  0.97169310  1  0  0.418664  0  0.889091  0  0  0.383801  0  0.961038  0  0  0.395241  0  0.944117  0  0  0.300943  0.375689  0  0.973051  0
H  H19  1  0.85454062  0.91164848  0.02831266  1  0  0.418628  0  0.889169  0  0  0.383764  0  0.961098  0  0  0.395199  0  0.944185  0  0  0.300923  0.375651  0  0.973111  0
H  H20  1  0.64545142  0.41165301  0.02831395  1  0  0.418653  0  0.889129  0  0  0.383786  0  0.961061  0  0  0.395233  0  0.94413  0  0  0.300914  0.375676  0  0.97307  0
H  H21  1  0.14545934  0.08834458  0.97168709  1  0  0.418666  0  0.88913  0  0  0.383803  0  0.961047  0  0  0.395238  0  0.944134  0  0  0.300944  0.37569  0  0.973063  0
H  H22  1  0.37214575  0.35775357  0.93256634  1  0  0.434008  0  0.865469  0  0  0.403378  0  0.927448  0  0  0.413246  0  0.913091  0  0  0.303872  0.39646  0  0.937518  0
H  H23  1  0.87214810  0.14224254  0.06743284  1  0  0.43397  0  0.865517  0  0  0.403357  0  0.92747  0  0  0.413212  0  0.913133  0  0  0.303859  0.396435  0  0.937547  0
H  H24  1  0.62784203  0.64224512  0.06744164  1  0  0.434021  0  0.865448  0  0  0.403379  0  0.927453  0  0  0.413241  0  0.913104  0  0  0.30385  0.396457  0  0.937531  0
H  H25  1  0.12784425  0.85775063  0.93256755  1  0  0.433914  0  0.865588  0  0  0.4033  0  0.927546  0  0  0.413155  0  0.913208  0  0  0.303826  0.396379  0  0.937621  0
C  C26  1  0.63886582  0.10122531  0.78285922  1  0  -0.104735  0  3.756868  0  0  -0.089023  0  4.002765  0  0  -0.100306  0  4.027598  0  0  -0.027669  -0.081723  0  3.985979  0
C  C27  1  0.13887741  0.39876574  0.21712135  1  0  -0.104571  0  3.756857  0  0  -0.088886  0  4.002711  0  0  -0.100181  0  4.027565  0  0  -0.027712  -0.081584  0  3.985927  0
C  C28  1  0.36112652  0.89878457  0.21714760  1  0  -0.10486  0  3.756876  0  0  -0.08916  0  4.002805  0  0  -0.100454  0  4.027643  0  0  -0.027729  -0.081861  0  3.986017  0
C  C29  1  0.86112863  0.60123497  0.78287304  1  0  -0.104712  0  3.756772  0  0  -0.088963  0  4.002598  0  0  -0.100261  0  4.027442  0  0  -0.027698  -0.08166  0  3.98582  0
C  C30  1  0.77775383  0.08687453  0.71409162  1  0  -0.025782  0  3.728747  0  0  -0.047628  0  3.977313  0  0  -0.045547  0  3.999526  0  0  -0.075116  -0.048698  0  3.962119  0
C  C31  1  0.27772984  0.41314200  0.28591048  1  0  -0.025828  0  3.728027  0  0  -0.047588  0  3.976636  0  0  -0.045511  0  3.99886  0  0  -0.075066  -0.048664  0  3.961436  0
C  C32  1  0.22225678  0.91313181  0.28591100  1  0  -0.025481  0  3.729103  0  0  -0.047333  0  3.977699  0  0  -0.04525  0  3.999914  0  0  -0.075032  -0.048405  0  3.962498  0
C  C33  1  0.72226859  0.58686112  0.71408987  1  0  -0.025721  0  3.72834  0  0  -0.047572  0  3.976897  0  0  -0.045494  0  3.999118  0  0  -0.075112  -0.048648  0  3.961706  0
C  C34  1  0.72306274  0.99622288  0.62566009  1  0  -0.194067  0  3.764161  0  0  -0.221926  0  4.030239  0  0  -0.229085  0  4.049877  0  0  -0.102062  -0.217269  0  4.01709  0
C  C35  1  0.22302598  0.50381001  0.37434124  1  0  -0.194419  0  3.764215  0  0  -0.222269  0  4.03034  0  0  -0.229431  0  4.049971  0  0  -0.102193  -0.217608  0  4.0172  0
C  C36  1  0.27694025  0.00378998  0.37433892  1  0  -0.194324  0  3.764468  0  0  -0.222199  0  4.030583  0  0  -0.229358  0  4.05022  0  0  -0.102212  -0.217544  0  4.017431  0
C  C37  1  0.77696636  0.49620795  0.62566279  1  0  -0.194284  0  3.764108  0  0  -0.222087  0  4.030227  0  0  -0.229251  0  4.049868  0  0  -0.102144  -0.217424  0  4.017083  0
C  C38  1  0.52801558  0.91882347  0.60776433  1  0  0.325194  0  3.783045  0  0  0.310581  0  4.066034  0  0  0.323745  0  4.075559  0  0  0.101375  0.301552  0  4.059662  0
C  C39  1  0.02799162  0.58117737  0.39224262  1  0  0.325424  0  3.783821  0  0  0.310765  0  4.066821  0  0  0.323941  0  4.076333  0  0  0.101408  0.301717  0  4.060463  0
C  C40  1  0.47199960  0.08116740  0.39223076  1  0  0.32547  0  3.782816  0  0  0.310823  0  4.065821  0  0  0.323988  0  4.075346  0  0  0.101525  0.301796  0  4.059443  0
C  C41  1  0.97201443  0.41882381  0.60776315  1  0  0.325201  0  3.783455  0  0  0.310514  0  4.066484  0  0  0.323683  0  4.076011  0  0  0.101428  0.30147  0  4.060127  0
C  C42  1  0.38490497  0.93196003  0.67382928  1  0  -0.206678  0  3.755109  0  0  -0.226691  0  4.008859  0  0  -0.234332  0  4.028136  0  0  -0.101187  -0.221631  0  3.995839  0
C  C43  1  0.88491008  0.56801847  0.32615187  1  0  -0.206536  0  3.755112  0  0  -0.226436  0  4.008744  0  0  -0.234084  0  4.028032  0  0  -0.101251  -0.221354  0  3.995722  0
C  C44  1  0.61510260  0.06803704  0.32616027  1  0  -0.206728  0  3.755139  0  0  -0.226712  0  4.008862  0  0  -0.234351  0  4.028136  0  0  -0.101291  -0.221658  0  3.995839  0
C  C45  1  0.11509292  0.43196265  0.67384456  1  0  -0.206566  0  3.755156  0  0  -0.226499  0  4.008854  0  0  -0.234155  0  4.028135  0  0  -0.101275  -0.221416  0  3.99584  0
C  C46  1  0.44188702  0.02408189  0.76217449  1  0  -0.021558  0  3.698594  0  0  -0.045114  0  3.949164  0  0  -0.041936  0  3.967627  0  0  -0.072636  -0.046918  0  3.936498  0
C  C47  1  0.94188366  0.47590977  0.23782175  1  0  -0.021977  0  3.699158  0  0  -0.045475  0  3.949782  0  0  -0.042297  0  3.96826  0  0  -0.072657  -0.04728  0  3.937103  0
C  C48  1  0.55812359  0.97591893  0.23782054  1  0  -0.021729  0  3.698644  0  0  -0.045239  0  3.9492  0  0  -0.042059  0  3.967659  0  0  -0.072619  -0.047043  0  3.936535  0
C  C49  1  0.05812238  0.52408351  0.76217928  1  0  -0.02176  0  3.698961  0  0  -0.045285  0  3.94952  0  0  -0.042107  0  3.967993  0  0  -0.072568  -0.047091  0  3.936849  0
C  C50  1  0.70315028  0.20064704  0.87663977  1  0  0.703292  0  3.829516  0  0  0.646323  0  4.12762  0  0  0.681365  0  4.116768  0  0  0.234052  0.62262  0  4.134447  0
C  C51  1  0.20313693  0.29936736  0.12336119  1  0  0.70329  0  3.830323  0  0  0.646399  0  4.128344  0  0  0.681412  0  4.117505  0  0  0.233966  0.622692  0  4.135169  0
C  C52  1  0.29685119  0.79936323  0.12336081  1  0  0.703348  0  3.829226  0  0  0.646406  0  4.12734  0  0  0.681449  0  4.116476  0  0  0.234018  0.622701  0  4.134166  0
C  C53  1  0.79686150  0.70063140  0.87663863  1  0  0.703166  0  3.829861  0  0  0.646231  0  4.127939  0  0  0.681259  0  4.117079  0  0  0.233885  0.622526  0  4.134765  0
O  O54  1  0.87686462  0.27812078  0.89252676  1  0  -0.673795  0  1.990027  0  0  -0.618035  0  2.228226  0  0  -0.640502  0  2.217409  0  0  -0.33323  -0.602596  0  2.235213  0
O  O55  1  0.37685961  0.22189105  0.10748012  1  0  -0.673918  0  1.9899  0  0  -0.618166  0  2.228039  0  0  -0.640619  0  2.217189  0  0  -0.333211  -0.602733  0  2.235042  0
O  O56  1  0.12312011  0.72188900  0.10747942  1  0  -0.673941  0  1.989746  0  0  -0.618193  0  2.227922  0  0  -0.640668  0  2.217108  0  0  -0.333298  -0.602754  0  2.234911  0
O  O57  1  0.62313121  0.77811094  0.89252197  1  0  -0.673904  0  1.989813  0  0  -0.618142  0  2.227969  0  0  -0.640609  0  2.217132  0  0  -0.333214  -0.602702  0  2.234956  0
O  O58  1  0.57351952  0.20867498  0.93979051  1  0  -0.783648  0  2.106594  0  0  -0.703644  0  2.330322  0  0  -0.729174  0  2.317095  0  0  -0.353408  -0.686049  0  2.339283  0
O  O59  1  0.07354551  0.29130400  0.06020371  1  0  -0.783464  0  2.107046  0  0  -0.703574  0  2.33083  0  0  -0.728992  0  2.317518  0  0  -0.353362  -0.685958  0  2.339767  0
O  O60  1  0.42646978  0.79131776  0.06020732  1  0  -0.783537  0  2.10672  0  0  -0.703571  0  2.330495  0  0  -0.729064  0  2.317232  0  0  -0.353322  -0.685971  0  2.339454  0
O  O61  1  0.92646205  0.70868761  0.93979587  1  0  -0.783372  0  2.106816  0  0  -0.703478  0  2.330625  0  0  -0.728903  0  2.317311  0  0  -0.35331  -0.685865  0  2.339564  0
O  O62  1  0.27954841  0.46798347  0.93690088  1  0  -0.884284  0  1.860532  0  0  -0.83207  0  2.048274  0  0  -0.848771  0  2.015468  0  0  -0.612371  -0.820249  0  2.071111  0
O  O63  1  0.77955519  0.03202072  0.06310354  1  0  -0.884232  0  1.860608  0  0  -0.832011  0  2.048304  0  0  -0.848714  0  2.015518  0  0  -0.612333  -0.820189  0  2.071146  0
O  O64  1  0.72043632  0.53201657  0.06310663  1  0  -0.8843  0  1.860597  0  0  -0.832083  0  2.048327  0  0  -0.848783  0  2.015524  0  0  -0.612324  -0.82026  0  2.07116  0
O  O65  1  0.22044172  0.96797670  0.93689674  1  0  -0.884226  0  1.860621  0  0  -0.83202  0  2.048319  0  0  -0.848722  0  2.015533  0  0  -0.612342  -0.820199  0  2.071161  0
F  F66  1  0.47509436  0.82298524  0.52124376  1  0  -0.213245  0  1.201577  0  0  -0.163852  0  1.368616  0  0  -0.173684  0  1.358128  0  0  -0.096663  -0.156654  0  1.375646  0
F  F67  1  0.97509298  0.67699793  0.47873236  1  0  -0.212942  0  1.202569  0  0  -0.163545  0  1.369635  0  0  -0.173377  0  1.359147  0  0  -0.096404  -0.156346  0  1.376669  0
F  F68  1  0.52492690  0.17701923  0.47875612  1  0  -0.21338  0  1.201373  0  0  -0.163971  0  1.36841  0  0  -0.173803  0  1.357924  0  0  -0.096726  -0.156775  0  1.37544  0
F  F69  1  0.02491459  0.32299553  0.52126115  1  0  -0.212983  0  1.202126  0  0  -0.163568  0  1.369183  0  0  -0.1734  0  1.358699  0  0  -0.096463  -0.156368  0  1.376217  0
