# generated using pymatgen
data_ZnH6C11N5O4
_symmetry_space_group_name_H-M   'P 1'
_cell_length_a   7.27009863
_cell_length_b   8.36684900
_cell_length_c   10.03880940
_cell_angle_alpha   96.67411715
_cell_angle_beta   94.12257775
_cell_angle_gamma   106.53554129
_symmetry_Int_Tables_number   1
_chemical_formula_structural   ZnH6C11N5O4
_chemical_formula_sum   'Zn2 H12 C22 N10 O8'
_cell_volume   577.87389503
_cell_formula_units_Z   2
loop_
 _symmetry_equiv_pos_site_id
 _symmetry_equiv_pos_as_xyz
  1  'x, y, z'
loop_
 _atom_site_type_symbol
 _atom_site_label
 _atom_site_symmetry_multiplicity
 _atom_site_fract_x
 _atom_site_fract_y
 _atom_site_fract_z
 _atom_site_occupancy
 _atom_site_hle17_bader_spin_density
 _atom_site_hle17_ddec_charge
 _atom_site_hle17_ddec_spin_density
 _atom_site_hle17_ddec_sum_bond_order
 _atom_site_hle17_magmom
 _atom_site_hse06_10hf_bader_spin_density
 _atom_site_hse06_10hf_ddec_charge
 _atom_site_hse06_10hf_ddec_spin_density
 _atom_site_hse06_10hf_ddec_sum_bond_order
 _atom_site_hse06_10hf_magmom
 _atom_site_hse06_bader_spin_density
 _atom_site_hse06_ddec_charge
 _atom_site_hse06_ddec_spin_density
 _atom_site_hse06_ddec_sum_bond_order
 _atom_site_hse06_magmom
 _atom_site_pbe_bader_spin_density
 _atom_site_pbe_cm5_charge
 _atom_site_pbe_ddec_charge
 _atom_site_pbe_ddec_spin_density
 _atom_site_pbe_ddec_sum_bond_order
 _atom_site_pbe_magmom
Zn  Zn0  1  0.20792822  0.01706378  0.08586874  1  0  1.091088  0  1.802436  0  0  0.90925  0  2.276154  0  0  0.956019  0  2.217725  0  0  0.71174  0.875804  0  2.31701  0
Zn  Zn1  1  0.79207372  0.98293638  0.91413139  1  0  1.091046  0  1.802497  0  0  0.909206  0  2.276234  0  0  0.955972  0  2.217804  0  0  0.711723  0.87576  0  2.317091  0
H  H2  1  0.24986477  0.46423727  0.67930397  1  0  0.122123  0  0.955551  0  0  0.127776  0  1.021401  0  0  0.131297  0  1.018171  0  0  0.113064  0.124603  0  1.024917  0
H  H3  1  0.75013303  0.53576289  0.32069596  1  0  0.122068  0  0.955558  0  0  0.127752  0  1.021385  0  0  0.131274  0  1.018153  0  0  0.11305  0.124574  0  1.024903  0
H  H4  1  0.25105711  0.75300638  0.78831446  1  0  0.126215  0  0.94456  0  0  0.13384  0  1.004538  0  0  0.136874  0  1.003844  0  0  0.115539  0.131593  0  1.005307  0
H  H5  1  0.74894112  0.24699505  0.21168562  1  0  0.12618  0  0.944581  0  0  0.133806  0  1.004564  0  0  0.13684  0  1.00387  0  0  0.115527  0.131558  0  1.005332  0
H  H6  1  0.24425875  0.97346089  0.63882419  1  0  0.1137  0  0.909829  0  0  0.121151  0  0.971447  0  0  0.124362  0  0.968279  0  0  0.13584  0.118606  0  0.974038  0
H  H7  1  0.75574265  0.02654180  0.36117517  1  0  0.113702  0  0.909817  0  0  0.12113  0  0.971469  0  0  0.124354  0  0.968279  0  0  0.135838  0.118584  0  0.974059  0
H  H8  1  0.24519060  0.65065083  0.29368998  1  0  0.120648  0  0.93465  0  0  0.12585  0  1.00012  0  0  0.129021  0  0.996805  0  0  0.135459  0.12336  0  1.002733  0
H  H9  1  0.75480635  0.34934681  0.70631065  1  0  0.120649  0  0.934637  0  0  0.125858  0  1.000102  0  0  0.129028  0  0.996792  0  0  0.135472  0.123373  0  1.002716  0
H  H10  1  0.19979094  0.58444211  0.00386414  1  0  0.111865  0  0.930713  0  0  0.123668  0  0.987798  0  0  0.127243  0  0.985836  0  0  0.110631  0.121016  0  0.989377  0
H  H11  1  0.80020781  0.41555679  0.99613472  1  0  0.111793  0  0.930723  0  0  0.123598  0  0.987822  0  0  0.127174  0  0.985857  0  0  0.110584  0.120945  0  0.989405  0
H  H12  1  0.24343375  0.91253646  0.40960301  1  0  0.278355  0  0.948186  0  0  0.243499  0  1.033048  0  0  0.253865  0  1.024646  0  0  0.309696  0.236238  0  1.03885  0
H  H13  1  0.75656638  0.08746244  0.59039690  1  0  0.278361  0  0.948164  0  0  0.2435  0  1.033032  0  0  0.253865  0  1.024632  0  0  0.30969  0.236238  0  1.038838  0
C  C14  1  0.25417886  0.37070308  0.41131034  1  0  0.228903  0  3.835236  0  0  0.213872  0  4.107323  0  0  0.219993  0  4.127498  0  0  0.203512  0.210146  0  4.093365  0
C  C15  1  0.74582309  0.62929707  0.58869079  1  0  0.228798  0  3.835356  0  0  0.21389  0  4.107274  0  0  0.220003  0  4.127458  0  0  0.20352  0.210167  0  4.093316  0
C  C16  1  0.25244369  0.53416324  0.47865159  1  0  -0.028049  0  3.770164  0  0  -0.008309  0  4.00601  0  0  -0.014422  0  4.028781  0  0  0.012181  -0.004764  0  3.990579  0
C  C17  1  0.74755506  0.46583566  0.52134827  1  0  -0.028015  0  3.770113  0  0  -0.008291  0  4.005913  0  0  -0.014393  0  4.028685  0  0  0.012186  -0.00475  0  3.990483  0
C  C18  1  0.25296938  0.56561756  0.61936186  1  0  -0.008092  0  3.610185  0  0  -0.038509  0  3.859142  0  0  -0.033439  0  3.875421  0  0  -0.04713  -0.041399  0  3.848317  0
C  C19  1  0.74702937  0.43438135  0.38063700  1  0  -0.008034  0  3.610171  0  0  -0.038477  0  3.859123  0  0  -0.033415  0  3.875406  0  0  -0.047114  -0.041365  0  3.848293  0
C  C20  1  0.25021017  0.72324634  0.67994552  1  0  -0.094156  0  3.690624  0  0  -0.110939  0  3.957707  0  0  -0.118883  0  3.978677  0  0  -0.070677  -0.106042  0  3.943632  0
C  C21  1  0.74978944  0.27675508  0.32005463  1  0  -0.094147  0  3.690702  0  0  -0.110927  0  3.957805  0  0  -0.118873  0  3.978781  0  0  -0.07068  -0.106031  0  3.943722  0
C  C22  1  0.24681438  0.84713462  0.60011195  1  0  0.150849  0  3.569067  0  0  0.102045  0  3.831487  0  0  0.111709  0  3.845602  0  0  0.070266  0.096013  0  3.821817  0
C  C23  1  0.75318755  0.15286554  0.39988718  1  0  0.150891  0  3.568994  0  0  0.102081  0  3.831455  0  0  0.111743  0  3.845564  0  0  0.070266  0.096051  0  3.821779  0
C  C24  1  0.24757291  0.66290124  0.40285664  1  0  0.137311  0  3.536678  0  0  0.087967  0  3.78432  0  0  0.097076  0  3.797576  0  0  0.081107  0.082185  0  3.77559  0
C  C25  1  0.75242584  0.33709767  0.59714221  1  0  0.137308  0  3.536666  0  0  0.087944  0  3.784322  0  0  0.097046  0  3.797578  0  0  0.081096  0.082158  0  3.775597  0
C  C26  1  0.12642169  0.25773985  0.89640557  1  0  0.660401  0  3.89734  0  0  0.606076  0  4.198687  0  0  0.638889  0  4.191265  0  0  0.211335  0.583549  0  4.202863  0
C  C27  1  0.87357928  0.74226158  0.10359265  1  0  0.660453  0  3.89754  0  0  0.606083  0  4.198918  0  0  0.638896  0  4.191507  0  0  0.211352  0.583555  0  4.203092  0
C  C28  1  0.49263483  0.15838759  0.90331936  1  0  0.670885  0  3.880372  0  0  0.616593  0  4.174878  0  0  0.652037  0  4.165052  0  0  0.218414  0.592323  0  4.181167  0
C  C29  1  0.50736710  0.84161257  0.09668077  1  0  0.670727  0  3.880659  0  0  0.616474  0  4.175115  0  0  0.651916  0  4.16529  0  0  0.218353  0.592199  0  4.181404  0
C  C30  1  0.33055214  0.54543286  0.00147242  1  0  -0.068854  0  3.692389  0  0  -0.104285  0  3.948411  0  0  -0.103513  0  3.964788  0  0  -0.075492  -0.104645  0  3.937518  0
C  C31  1  0.66944609  0.45456856  0.99852766  1  0  -0.068723  0  3.692357  0  0  -0.104173  0  3.948351  0  0  -0.103401  0  3.964734  0  0  -0.0754  -0.104529  0  3.937457  0
C  C32  1  0.32010857  0.37986090  0.95266614  1  0  -0.046995  0  3.720933  0  0  -0.03349  0  3.959364  0  0  -0.035502  0  3.976804  0  0  -0.004985  -0.032344  0  3.948127  0
C  C33  1  0.67989240  0.62014054  0.04733108  1  0  -0.047054  0  3.720941  0  0  -0.033495  0  3.95933  0  0  -0.035507  0  3.976767  0  0  -0.004976  -0.03235  0  3.948089  0
C  C34  1  0.49213761  0.33434202  0.95153899  1  0  -0.087159  0  3.741015  0  0  -0.075884  0  3.982411  0  0  -0.081026  0  4.001363  0  0  -0.015023  -0.072748  0  3.970396  0
C  C35  1  0.50786199  0.66565940  0.04846016  1  0  -0.087064  0  3.740943  0  0  -0.075823  0  3.982325  0  0  -0.080958  0  4.001261  0  0  -0.014965  -0.072681  0  3.970306  0
N  N36  1  0.23570264  0.32912746  0.27618728  1  0  -0.260685  0  2.934329  0  0  -0.248358  0  3.205347  0  0  -0.256852  0  3.224355  0  0  -0.207248  -0.242469  0  3.192639  0
N  N37  1  0.76429655  0.67087270  0.72381372  1  0  -0.260619  0  2.934314  0  0  -0.248322  0  3.205292  0  0  -0.256815  0  3.224304  0  0  -0.207213  -0.242432  0  3.192587  0
N  N38  1  0.24152606  0.17088093  0.25930266  1  0  -0.15159  0  3.307904  0  0  -0.090891  0  3.628096  0  0  -0.103022  0  3.641954  0  0  -0.123984  -0.082514  0  3.618857  0
N  N39  1  0.75847355  0.82912050  0.74069748  1  0  -0.15156  0  3.307985  0  0  -0.090875  0  3.628194  0  0  -0.103005  0  3.642052  0  0  -0.123985  -0.082498  0  3.618957  0
N  N40  1  0.26298924  0.11759436  0.37842851  1  0  -0.086882  0  3.08503  0  0  -0.065796  0  3.373975  0  0  -0.067463  0  3.388494  0  0  -0.087551  -0.064075  0  3.363687  0
N  N41  1  0.73700994  0.88240580  0.62157248  1  0  -0.086915  0  3.085154  0  0  -0.06582  0  3.374103  0  0  -0.067485  0  3.388624  0  0  -0.087551  -0.064096  0  3.363815  0
N  N42  1  0.27127809  0.24119991  0.47608779  1  0  -0.275139  0  2.913749  0  0  -0.264553  0  3.197341  0  0  -0.272144  0  3.210732  0  0  -0.213525  -0.259529  0  3.189232  0
N  N43  1  0.72872067  0.75879899  0.52391305  1  0  -0.275119  0  2.913784  0  0  -0.264575  0  3.19734  0  0  -0.272165  0  3.210734  0  0  -0.213553  -0.259549  0  3.189228  0
N  N44  1  0.24469578  0.81267874  0.46542697  1  0  -0.189006  0  3.489238  0  0  -0.114449  0  3.720775  0  0  -0.130205  0  3.736634  0  0  -0.330089  -0.104148  0  3.709985  0
N  N45  1  0.75530478  0.18732142  0.53457309  1  0  -0.189029  0  3.489213  0  0  -0.114453  0  3.720757  0  0  -0.130209  0  3.736621  0  0  -0.330081  -0.104153  0  3.709967  0
O  O46  1  0.34888255  0.03477617  0.91982505  1  0  -0.6426  0  2.087247  0  0  -0.567896  0  2.35181  0  0  -0.595409  0  2.337481  0  0  -0.316231  -0.548571  0  2.361132  0
O  O47  1  0.65111663  0.96522400  0.08017395  1  0  -0.642506  0  2.087451  0  0  -0.567808  0  2.351976  0  0  -0.595321  0  2.337649  0  0  -0.316187  -0.548483  0  2.361298  0
O  O48  1  0.63902849  0.14065451  0.84870751  1  0  -0.62954  0  2.063447  0  0  -0.568252  0  2.337721  0  0  -0.593995  0  2.322587  0  0  -0.31301  -0.550112  0  2.34751  0
O  O49  1  0.36097439  0.85934439  0.15129154  1  0  -0.629511  0  2.06349  0  0  -0.568217  0  2.337715  0  0  -0.59396  0  2.322582  0  0  -0.313015  -0.550079  0  2.347503  0
O  O50  1  0.03703185  0.16448717  0.98182008  1  0  -0.678149  0  2.13337  0  0  -0.592536  0  2.419809  0  0  -0.623182  0  2.40175  0  0  -0.326856  -0.570303  0  2.431581  0
O  O51  1  0.96297008  0.83551299  0.01818006  1  0  -0.67818  0  2.133467  0  0  -0.592533  0  2.419896  0  0  -0.623189  0  2.401846  0  0  -0.326853  -0.570304  0  2.431671  0
O  O52  1  0.06178420  0.25466328  0.77834629  1  0  -0.565462  0  1.92185  0  0  -0.527471  0  2.149497  0  0  -0.549356  0  2.142372  0  0  -0.297012  -0.511807  0  2.154742  0
O  O53  1  0.93821411  0.74533437  0.22165142  1  0  -0.565485  0  1.921941  0  0  -0.527504  0  2.149627  0  0  -0.549387  0  2.142505  0  0  -0.297057  -0.51183  0  2.154848  0
