# generated using pymatgen
data_AgH9C13S6N2O3
_symmetry_space_group_name_H-M   'P 1'
_cell_length_a   7.15732149
_cell_length_b   8.49527148
_cell_length_c   14.48098120
_cell_angle_alpha   74.63208006
_cell_angle_beta   80.74407566
_cell_angle_gamma   82.17843720
_symmetry_Int_Tables_number   1
_chemical_formula_structural   AgH9C13S6N2O3
_chemical_formula_sum   'Ag2 H18 C26 S12 N4 O6'
_cell_volume   833.90483483
_cell_formula_units_Z   2
loop_
 _symmetry_equiv_pos_site_id
 _symmetry_equiv_pos_as_xyz
  1  'x, y, z'
loop_
 _atom_site_type_symbol
 _atom_site_label
 _atom_site_symmetry_multiplicity
 _atom_site_fract_x
 _atom_site_fract_y
 _atom_site_fract_z
 _atom_site_occupancy
 _atom_site_hle17_bader_spin_density
 _atom_site_hle17_ddec_charge
 _atom_site_hle17_ddec_spin_density
 _atom_site_hle17_ddec_sum_bond_order
 _atom_site_hle17_magmom
 _atom_site_hse06_10hf_bader_spin_density
 _atom_site_hse06_10hf_ddec_charge
 _atom_site_hse06_10hf_ddec_spin_density
 _atom_site_hse06_10hf_ddec_sum_bond_order
 _atom_site_hse06_10hf_magmom
 _atom_site_hse06_bader_spin_density
 _atom_site_hse06_ddec_charge
 _atom_site_hse06_ddec_spin_density
 _atom_site_hse06_ddec_sum_bond_order
 _atom_site_hse06_magmom
 _atom_site_pbe_bader_spin_density
 _atom_site_pbe_cm5_charge
 _atom_site_pbe_ddec_charge
 _atom_site_pbe_ddec_spin_density
 _atom_site_pbe_ddec_sum_bond_order
 _atom_site_pbe_magmom
Ag  Ag0  1  0.90310725  0.04805885  0.13844094  1  0  0.420659  0  1.572879  0  0  0.28226  0  2.041782  0  0  0.308252  0  1.996505  0  0  0.402614  0.264438  0  2.073162  0
Ag  Ag1  1  0.09688713  0.95193422  0.86155977  1  0  0.420636  0  1.572945  0  0  0.282206  0  2.041859  0  0  0.308197  0  1.996583  0  0  0.402595  0.264389  0  2.073244  0
H  H2  1  0.74799774  0.51591228  0.26981311  1  0  0.150272  0  0.975106  0  0  0.159603  0  1.036322  0  0  0.162359  0  1.034221  0  0  0.114879  0.157663  0  1.037845  0
H  H3  1  0.25200994  0.48409034  0.73018514  1  0  0.150327  0  0.975037  0  0  0.159669  0  1.036217  0  0  0.162426  0  1.034114  0  0  0.114909  0.157734  0  1.037737  0
H  H4  1  0.08986810  0.51720103  0.39769742  1  0  0.09327  0  0.988696  0  0  0.100724  0  1.06088  0  0  0.104612  0  1.058541  0  0  0.088222  0.09778  0  1.063024  0
H  H5  1  0.91014410  0.48279556  0.60230569  1  0  0.093282  0  0.988769  0  0  0.100737  0  1.060946  0  0  0.104625  0  1.058604  0  0  0.088229  0.097796  0  1.063086  0
H  H6  1  0.56336628  0.70880586  0.18846394  1  0  0.112221  0  0.994886  0  0  0.11441  0  1.070064  0  0  0.119123  0  1.066353  0  0  0.100782  0.110933  0  1.073002  0
H  H7  1  0.43663252  0.29120062  0.81153493  1  0  0.112224  0  0.994808  0  0  0.11444  0  1.069958  0  0  0.119154  0  1.066247  0  0  0.100809  0.110963  0  1.072901  0
H  H8  1  0.32953688  0.91482003  0.10381059  1  0  0.083535  0  0.938109  0  0  0.095473  0  0.998915  0  0  0.097873  0  0.996163  0  0  0.113939  0.093644  0  1.001075  0
H  H9  1  0.67045904  0.08518305  0.89619457  1  0  0.083548  0  0.938095  0  0  0.095494  0  0.998901  0  0  0.097894  0  0.996149  0  0  0.113948  0.093663  0  1.001061  0
H  H10  1  0.57029720  0.82903362  0.93178296  1  0  0.109101  0  0.94595  0  0  0.124561  0  1.00616  0  0  0.125118  0  1.007134  0  0  0.104258  0.124117  0  1.005567  0
H  H11  1  0.42969339  0.17097050  0.06821546  1  0  0.109129  0  0.945894  0  0  0.124586  0  1.006102  0  0  0.125143  0  1.007078  0  0  0.104228  0.124138  0  1.005513  0
H  H12  1  0.45929936  0.64486864  0.98131043  1  0  0.118388  0  0.92121  0  0  0.139968  0  0.971333  0  0  0.140366  0  0.972702  0  0  0.112914  0.139621  0  0.970517  0
H  H13  1  0.54068891  0.35513174  0.01868600  1  0  0.118393  0  0.921199  0  0  0.139982  0  0.971311  0  0  0.140384  0  0.972677  0  0  0.112962  0.139635  0  0.970496  0
H  H14  1  0.68166979  0.50763576  0.86522468  1  0  0.095379  0  0.956245  0  0  0.109858  0  1.019377  0  0  0.110072  0  1.021203  0  0  0.095123  0.109746  0  1.018146  0
H  H15  1  0.31832416  0.49236104  0.13477681  1  0  0.095366  0  0.956163  0  0  0.109828  0  1.019356  0  0  0.110042  0  1.021185  0  0  0.095118  0.109721  0  1.018131  0
H  H16  1  0.81002136  0.56940446  0.94172080  1  0  0.12432  0  0.940421  0  0  0.134642  0  1.007389  0  0  0.136208  0  1.006482  0  0  0.108149  0.133482  0  1.008168  0
H  H17  1  0.18997190  0.43059973  0.05828020  1  0  0.124294  0  0.940415  0  0  0.134691  0  1.007325  0  0  0.136261  0  1.006403  0  0  0.108136  0.133533  0  1.008111  0
H  H18  1  0.87892816  0.73343188  0.30425651  1  0  0.056941  0  0.991188  0  0  0.061737  0  1.070361  0  0  0.064273  0  1.067354  0  0  0.094938  0.059815  0  1.072682  0
H  H19  1  0.12107156  0.26655116  0.69574207  1  0  0.056955  0  0.991216  0  0  0.061741  0  1.07039  0  0  0.06428  0  1.067377  0  0  0.094956  0.05982  0  1.072714  0
C  C20  1  0.61053963  0.10710844  0.57648330  1  0  -0.091076  0  3.786534  0  0  -0.079957  0  4.075128  0  0  -0.0779  0  4.093214  0  0  -0.044493  -0.081178  0  4.062531  0
C  C21  1  0.38946485  0.89289678  0.42351680  1  0  -0.091135  0  3.786829  0  0  -0.080092  0  4.075513  0  0  -0.078026  0  4.093584  0  0  -0.044539  -0.081313  0  4.062916  0
C  C22  1  0.66906233  0.44875382  0.33607145  1  0  -0.186987  0  3.733336  0  0  -0.210325  0  4.014756  0  0  -0.208534  0  4.031398  0  0  -0.094146  -0.211374  0  4.003148  0
C  C23  1  0.33094238  0.55125125  0.66392520  1  0  -0.187108  0  3.733542  0  0  -0.210432  0  4.014972  0  0  -0.20865  0  4.031618  0  0  -0.094268  -0.211476  0  4.003364  0
C  C24  1  0.47743974  0.47193412  0.35905662  1  0  -0.016857  0  3.794037  0  0  -0.007149  0  4.057379  0  0  -0.009747  0  4.079995  0  0  -0.022215  -0.005414  0  4.041947  0
C  C25  1  0.52256432  0.52807483  0.64094427  1  0  -0.016991  0  3.794159  0  0  -0.007299  0  4.057557  0  0  -0.009886  0  4.080166  0  0  -0.022194  -0.005574  0  4.042138  0
C  C26  1  0.71705744  0.86286131  0.71450260  1  0  -0.083527  0  3.835704  0  0  -0.071119  0  4.122013  0  0  -0.067419  0  4.141723  0  0  -0.03175  -0.073479  0  4.108175  0
C  C27  1  0.28293836  0.13714648  0.28549694  1  0  -0.083454  0  3.835511  0  0  -0.07107  0  4.121849  0  0  -0.06737  0  4.141562  0  0  -0.031738  -0.073427  0  4.108015  0
C  C28  1  0.52402911  0.88201567  0.73098602  1  0  -0.118759  0  3.843685  0  0  -0.104449  0  4.123395  0  0  -0.105202  0  4.145878  0  0  -0.04682  -0.103992  0  4.107918  0
C  C29  1  0.47597007  0.11798942  0.26900891  1  0  -0.118949  0  3.843806  0  0  -0.104566  0  4.123379  0  0  -0.105321  0  4.145865  0  0  -0.046843  -0.104131  0  4.107932  0
C  C30  1  0.34889294  0.59387530  0.30346160  1  0  0.116025  0  3.786213  0  0  0.127545  0  4.017755  0  0  0.134385  0  4.038252  0  0  0.002721  0.122813  0  4.004125  0
C  C31  1  0.65112181  0.40612489  0.69654006  1  0  0.116251  0  3.786298  0  0  0.127741  0  4.017926  0  0  0.134579  0  4.038419  0  0  0.002852  0.123014  0  4.004297  0
C  C32  1  0.59993499  0.23271172  0.49596237  1  0  -0.111751  0  3.80493  0  0  -0.101031  0  4.091884  0  0  -0.097395  0  4.109291  0  0  -0.048325  -0.10318  0  4.079618  0
C  C33  1  0.40007535  0.76728980  0.50404004  1  0  -0.111832  0  3.804862  0  0  -0.101043  0  4.091744  0  0  -0.097408  0  4.109154  0  0  -0.048333  -0.103195  0  4.079474  0
C  C34  1  0.15162346  0.60292530  0.33333858  1  0  -0.172561  0  3.726122  0  0  -0.192235  0  3.975589  0  0  -0.19931  0  3.993823  0  0  -0.100443  -0.187857  0  3.963875  0
C  C35  1  0.84838649  0.39706866  0.66665959  1  0  -0.172582  0  3.726186  0  0  -0.192248  0  3.975617  0  0  -0.199322  0  3.993848  0  0  -0.100435  -0.18787  0  3.963902  0
C  C36  1  0.41360084  0.70928406  0.21828615  1  0  -0.158644  0  3.679747  0  0  -0.175246  0  3.929068  0  0  -0.182589  0  3.947285  0  0  -0.090178  -0.170731  0  3.917539  0
C  C37  1  0.58640684  0.29072087  0.78170826  1  0  -0.158678  0  3.679833  0  0  -0.175313  0  3.929222  0  0  -0.182657  0  3.94744  0  0  -0.090294  -0.170797  0  3.917689  0
C  C38  1  0.28337592  0.82520539  0.17005351  1  0  0.125453  0  3.692098  0  0  0.091912  0  3.947477  0  0  0.100087  0  3.964706  0  0  0.034537  0.086292  0  3.936149  0
C  C39  1  0.71662080  0.17479256  0.82994692  1  0  0.125407  0  3.692058  0  0  0.091841  0  3.947454  0  0  0.100015  0  3.964686  0  0  0.034542  0.086223  0  3.936123  0
C  C40  1  0.53984479  0.71643189  0.91636904  1  0  -0.129792  0  3.609296  0  0  -0.171013  0  3.869126  0  0  -0.170783  0  3.881998  0  0  -0.142633  -0.171099  0  3.860218  0
C  C41  1  0.46014618  0.28356853  0.08362928  1  0  -0.129717  0  3.609144  0  0  -0.170939  0  3.868979  0  0  -0.170721  0  3.881871  0  0  -0.14261  -0.171023  0  3.860082  0
C  C42  1  0.71818345  0.61506931  0.88448214  1  0  -0.134733  0  3.615394  0  0  -0.169694  0  3.875655  0  0  -0.16933  0  3.886645  0  0  -0.149239  -0.169903  0  3.86808  0
C  C43  1  0.28181177  0.38493103  0.11551592  1  0  -0.134671  0  3.615259  0  0  -0.169716  0  3.875527  0  0  -0.169348  0  3.886517  0  0  -0.149198  -0.169932  0  3.867946  0
C  C44  1  0.03172786  0.72378761  0.28108183  1  0  0.116469  0  3.753737  0  0  0.084594  0  4.009173  0  0  0.093202  0  4.025417  0  0  0.027435  0.078807  0  3.998399  0
C  C45  1  0.96827952  0.27620044  0.71892164  1  0  0.116377  0  3.75388  0  0  0.084552  0  4.009276  0  0  0.093161  0  4.025517  0  0  0.027386  0.078766  0  3.998505  0
S  S46  1  0.38141174  0.34120016  0.46762635  1  0  0.070079  0  2.555248  0  0  0.06713  0  2.907381  0  0  0.062774  0  2.913543  0  0  0.044343  0.070167  0  2.903521  0
S  S47  1  0.61860043  0.65881121  0.53237637  1  0  0.070143  0  2.555182  0  0  0.067186  0  2.9073  0  0  0.062863  0  2.913376  0  0  0.044323  0.0702  0  2.903501  0
S  S48  1  0.40527812  0.04582451  0.65460534  1  0  0.07451  0  2.649246  0  0  0.066869  0  3.025681  0  0  0.06368  0  3.027124  0  0  0.045515  0.069162  0  3.025201  0
S  S49  1  0.59472201  0.95418432  0.34539098  1  0  0.074646  0  2.649364  0  0  0.066978  0  3.025823  0  0  0.063786  0  3.027259  0  0  0.045555  0.069281  0  3.025348  0
S  S50  1  0.79727750  0.30040601  0.41307457  1  0  0.115703  0  2.726199  0  0  0.114674  0  3.101644  0  0  0.108464  0  3.106985  0  0  0.061554  0.119023  0  3.098242  0
S  S51  1  0.20272851  0.69961039  0.58692839  1  0  0.115779  0  2.726184  0  0  0.114723  0  3.10162  0  0  0.108513  0  3.106964  0  0  0.061571  0.119074  0  3.098219  0
S  S52  1  0.82458574  0.00128913  0.61359846  1  0  0.081272  0  2.610023  0  0  0.070683  0  2.973604  0  0  0.067103  0  2.978394  0  0  0.045226  0.073307  0  2.970466  0
S  S53  1  0.17542534  0.99871858  0.38640494  1  0  0.081324  0  2.610119  0  0  0.070781  0  2.973667  0  0  0.067202  0  2.978444  0  0  0.045288  0.073391  0  2.970558  0
S  S54  1  0.87573708  0.72481907  0.78333604  1  0  0.064327  0  2.532388  0  0  0.068323  0  2.915684  0  0  0.064261  0  2.913152  0  0  0.030999  0.071381  0  2.917571  0
S  S55  1  0.12425972  0.27517999  0.21666144  1  0  0.064271  0  2.532334  0  0  0.068241  0  2.915725  0  0  0.064191  0  2.913155  0  0  0.030962  0.071302  0  2.917616  0
S  S56  1  0.37831388  0.76498203  0.82561964  1  0  0.109745  0  2.777709  0  0  0.134231  0  3.190249  0  0  0.13014  0  3.183822  0  0  0.02334  0.137057  0  3.194649  0
S  S57  1  0.62167594  0.23501593  0.17437847  1  0  0.109685  0  2.777841  0  0  0.13418  0  3.19032  0  0  0.13009  0  3.1839  0  0  0.023249  0.137008  0  3.194728  0
N  N58  1  0.09439458  0.83519197  0.20082468  1  0  -0.301982  0  3.342628  0  0  -0.221237  0  3.628448  0  0  -0.240102  0  3.644841  0  0  -0.357063  -0.2085  0  3.617168  0
N  N59  1  0.90560367  0.16480473  0.79917586  1  0  -0.301905  0  3.34285  0  0  -0.221151  0  3.628611  0  0  -0.240015  0  3.644998  0  0  -0.357025  -0.208414  0  3.617331  0
N  N60  1  0.10525504  0.27239051  0.94435404  1  0  0.688949  0  4.143525  0  0  0.716953  0  4.438927  0  0  0.745264  0  4.446017  0  0  0.086143  0.699286  0  4.433213  0
N  N61  1  0.89473685  0.72759776  0.05564901  1  0  0.688859  0  4.143086  0  0  0.716911  0  4.43844  0  0  0.745232  0  4.445532  0  0  0.086215  0.699253  0  4.432735  0
O  O62  1  0.21608865  0.14001794  0.95835733  1  0  -0.492321  0  1.764443  0  0  -0.471377  0  2.003215  0  0  -0.48597  0  1.991542  0  0  -0.212013  -0.461755  0  2.011182  0
O  O63  1  0.78390153  0.85996822  0.04165379  1  0  -0.492336  0  1.764308  0  0  -0.471425  0  2.003069  0  0  -0.48602  0  1.991391  0  0  -0.21211  -0.461815  0  2.011041  0
O  O64  1  0.94326304  0.27866444  0.99581150  1  0  -0.471183  0  1.832596  0  0  -0.448064  0  2.084129  0  0  -0.4656  0  2.075542  0  0  -0.207328  -0.436385  0  2.089853  0
O  O65  1  0.05672119  0.72133357  0.00418559  1  0  -0.471114  0  1.832622  0  0  -0.447929  0  2.084038  0  0  -0.465468  0  2.075457  0  0  -0.207288  -0.436261  0  2.089765  0
O  O66  1  0.15331258  0.39794104  0.88017134  1  0  -0.456448  0  1.765195  0  0  -0.443273  0  1.983931  0  0  -0.457783  0  1.979486  0  0  -0.19096  -0.4337  0  1.986884  0
O  O67  1  0.84669066  0.60203343  0.11982983  1  0  -0.456416  0  1.764923  0  0  -0.443265  0  1.983601  0  0  -0.45778  0  1.979154  0  0  -0.190985  -0.433664  0  1.986517  0
