# generated using pymatgen
data_Cu2H14C20Br3N4
_symmetry_space_group_name_H-M   'P 1'
_cell_length_a   8.76708214
_cell_length_b   9.08664673
_cell_length_c   13.75372428
_cell_angle_alpha   72.21190222
_cell_angle_beta   74.25314042
_cell_angle_gamma   84.89160883
_symmetry_Int_Tables_number   1
_chemical_formula_structural   Cu2H14C20Br3N4
_chemical_formula_sum   'Cu4 H28 C40 Br6 N8'
_cell_volume   1004.11046180
_cell_formula_units_Z   2
loop_
 _symmetry_equiv_pos_site_id
 _symmetry_equiv_pos_as_xyz
  1  'x, y, z'
loop_
 _atom_site_type_symbol
 _atom_site_label
 _atom_site_symmetry_multiplicity
 _atom_site_fract_x
 _atom_site_fract_y
 _atom_site_fract_z
 _atom_site_occupancy
 _atom_site_pbe_cm5_charge
 _atom_site_pbe_ddec_charge
 _atom_site_pbe_ddec_spin_density
 _atom_site_pbe_ddec_sum_bond_order
 _atom_site_pbe_magmom
Cu  Cu0  1  0.17637397  0.61888766  0.36872908  1  0.600914  0.546974  -0.607076  2.530651  -0.471
Cu  Cu1  1  0.82387105  0.38143619  0.63130941  1  0.603827  0.549591  0.628683  2.530664  0.474
Cu  Cu2  1  0.44926757  0.85584860  0.05811726  1  0.315976  0.306791  -0.123075  2.615882  -0.101
Cu  Cu3  1  0.55065491  0.14421450  0.94208711  1  0.315285  0.30542  -0.11014  2.614701  -0.091
H  H4  1  0.06911750  0.25935037  0.18181157  1  0.099317  0.115533  -0.000635  1.057849  -0.001
H  H5  1  0.93076514  0.74045248  0.81849030  1  0.099424  0.115887  0.000636  1.057828  0.001
H  H6  1  0.76044144  0.66047020  0.17179287  1  0.099437  0.121909  -0.000627  1.049353  -0.001
H  H7  1  0.23956908  0.33937168  0.82845821  1  0.099497  0.122081  0.000627  1.049386  0.001
H  H8  1  0.41006174  0.39066032  0.47846866  1  0.105331  0.08892  -0.001106  1.027874  -0.002
H  H9  1  0.58940260  0.60837282  0.52212972  1  0.105625  0.089335  0.001196  1.027396  0.002
H  H10  1  0.53003077  0.13508556  0.46915112  1  0.101429  0.109909  -0.000254  1.034294  0.0
H  H11  1  0.47003455  0.86430522  0.53083723  1  0.101396  0.110372  0.000298  1.034343  0.0
H  H12  1  0.75127655  0.89292162  0.19273445  1  0.101731  0.1257  -0.000644  1.027497  -0.001
H  H13  1  0.24940515  0.10736239  0.80669344  1  0.101776  0.125548  0.000711  1.027685  0.001
H  H14  1  0.25992789  0.13692431  0.24846319  1  0.098136  0.116298  -0.000628  1.042077  -0.001
H  H15  1  0.74036250  0.86327005  0.75123300  1  0.098368  0.116239  0.000704  1.040959  0.001
H  H16  1  0.06153848  0.91169459  0.43862007  1  0.105962  0.080382  -0.001151  1.031583  -0.001
H  H17  1  0.93732072  0.08811669  0.56194543  1  0.106518  0.081497  0.001234  1.031258  0.001
H  H18  1  0.44526186  0.00062154  0.35387344  1  0.100285  0.105605  6e-05  1.022251  0.0
H  H19  1  0.55497161  0.99927986  0.64576933  1  0.100426  0.105786  -5.8e-05  1.02199  0.0
H  H20  1  0.86754257  0.12895698  0.39230464  1  0.088258  0.104647  0.000185  1.072323  -0.001
H  H21  1  0.13179795  0.87110346  0.60772316  1  0.08832  0.104665  -0.000163  1.072582  0.001
H  H22  1  0.71465725  0.11879072  0.26437968  1  0.105183  0.101881  9.2e-05  1.018261  0.0
H  H23  1  0.28547316  0.88134253  0.73519712  1  0.104974  0.101846  -7.6e-05  1.016993  0.0
H  H24  1  0.58488797  0.49097877  0.16710922  1  0.10107  0.120257  -1.4e-05  1.02711  0.0
H  H25  1  0.41512066  0.50907512  0.83302190  1  0.100861  0.119913  3e-06  1.027841  0.0
H  H26  1  0.86986135  0.15647710  0.95382809  1  0.100962  0.081451  -0.000243  1.027222  0.0
H  H27  1  0.13007672  0.84395375  0.04597102  1  0.101045  0.081611  -0.000174  1.027656  0.0
H  H28  1  0.02228683  0.27531868  0.03672188  1  0.089589  0.1123  -0.00013  1.066749  0.0
H  H29  1  0.97767706  0.72460925  0.96335720  1  0.089584  0.112326  -3.7e-05  1.06677  0.0
H  H30  1  0.45110535  0.35926664  0.07812785  1  0.105999  0.079332  -0.000166  1.023752  0.0
H  H31  1  0.54891675  0.64110758  0.92182861  1  0.105892  0.078901  -0.000138  1.023835  0.0
C  C32  1  0.11269871  0.42080537  0.25747766  1  0.120249  0.186548  -0.000224  4.002063  0.001
C  C33  1  0.88766953  0.57936527  0.74239669  1  0.120183  0.186293  0.000459  4.002908  -0.001
C  C34  1  0.92365452  0.78402553  0.27966752  1  0.120147  0.170867  -0.00163  3.954226  -0.002
C  C35  1  0.07644302  0.21607152  0.72025251  1  0.120402  0.172071  0.001944  3.952854  0.002
C  C36  1  0.23108621  0.33283660  0.31111761  1  0.11793  0.168445  -0.001714  3.952848  -0.002
C  C37  1  0.76902682  0.66705053  0.68893868  1  0.11794  0.168145  0.002019  3.952097  0.002
C  C38  1  0.03421120  0.36857477  0.19898455  1  -0.073801  -0.187346  -0.002104  3.872759  -0.003
C  C39  1  0.96583592  0.63137499  0.80113211  1  -0.07374  -0.187607  0.002746  3.872518  0.003
C  C40  1  0.86196848  0.59277866  0.19302300  1  -0.068098  -0.171529  -0.002236  3.841713  -0.003
C  C41  1  0.13820641  0.40717105  0.80704026  1  -0.067658  -0.170935  0.002556  3.841362  0.003
C  C42  1  0.37859775  0.32986310  0.42950688  1  0.051118  0.113302  0.001188  3.911788  0.002
C  C43  1  0.62112227  0.66951450  0.57080171  1  0.052115  0.115301  -0.001012  3.910667  -0.002
C  C44  1  0.44382629  0.18593896  0.42412072  1  -0.083592  -0.122632  -0.00237  3.947473  -0.003
C  C45  1  0.55617523  0.81362013  0.57588468  1  -0.083088  -0.122576  0.002652  3.947983  0.003
C  C46  1  0.90523915  0.45423090  0.16724425  1  0.013328  0.118765  0.003278  3.948978  0.003
C  C47  1  0.09481153  0.54571037  0.83283930  1  0.0138  0.11912  -0.00286  3.94784  -0.003
C  C48  1  0.81757685  0.90092935  0.24744970  1  -0.075953  -0.138119  -0.001933  3.897075  -0.002
C  C49  1  0.18270897  0.09924482  0.75221913  1  -0.075645  -0.13789  0.001981  3.89562  0.002
C  C50  1  0.95217737  0.64293496  0.24616581  1  0.125909  0.188469  0.00021  3.995626  0.001
C  C51  1  0.04821559  0.35725312  0.75365535  1  0.125884  0.18758  0.000323  3.998801  -0.001
C  C52  1  0.29227870  0.18904553  0.30175096  1  -0.078186  -0.146001  -0.001808  3.91769  -0.002
C  C53  1  0.70788328  0.81093056  0.69808967  1  -0.077904  -0.145322  0.00195  3.916139  0.002
C  C54  1  0.98922609  0.91351715  0.38500416  1  0.048635  0.105416  0.000923  3.932347  0.002
C  C55  1  0.01008494  0.08637638  0.61528686  1  0.048404  0.104633  -0.000771  3.934053  -0.002
C  C56  1  0.81711653  0.39329993  0.11084796  1  0.00461  0.089037  0.000629  3.97332  0.0
C  C57  1  0.18289803  0.60668655  0.88926106  1  0.004552  0.089169  0.001247  3.972605  0.001
C  C58  1  0.39881481  0.11380356  0.36018469  1  -0.068527  -0.031068  0.002297  3.958652  0.002
C  C59  1  0.60128185  0.88598472  0.63963518  1  -0.068395  -0.031483  -0.002273  3.958428  -0.002
C  C60  1  0.88273090  0.03279060  0.35838938  1  -0.087262  -0.128327  -0.002257  3.951876  -0.003
C  C61  1  0.11678702  0.96721755  0.64162709  1  -0.086121  -0.127155  0.002572  3.953266  0.003
C  C62  1  0.79703117  0.02640223  0.28789496  1  -0.065804  -0.014783  0.002194  3.943663  0.002
C  C63  1  0.20293069  0.97367429  0.71184664  1  -0.065551  -0.014613  -0.002075  3.942484  -0.002
C  C64  1  0.65395101  0.41872244  0.11999690  1  -0.083392  -0.164112  0.000123  3.914003  0.0
C  C65  1  0.34605339  0.58133961  0.88007151  1  -0.083166  -0.163747  -0.000825  3.914876  -0.001
C  C66  1  0.81190369  0.23264279  0.00086173  1  0.033084  0.094954  0.000294  3.929557  0.0
C  C67  1  0.18803365  0.76765005  0.99904128  1  0.033199  0.095186  0.000594  3.929301  0.001
C  C68  1  0.89555703  0.29894269  0.04849168  1  -0.089703  -0.172677  1.2e-05  3.960394  0.0
C  C69  1  0.10440391  0.70110469  0.95154369  1  -0.0897  -0.173047  -0.000709  3.959606  -0.001
C  C70  1  0.57828072  0.34622999  0.07041425  1  0.035958  0.08363  0.000413  3.938626  0.0
C  C71  1  0.42170079  0.65404521  0.92952575  1  0.036013  0.084138  0.000734  3.938761  0.001
Br  Br72  1  0.27298855  0.10235580  0.04733362  1  -0.268907  -0.451239  -0.017763  1.599122  -0.017
Br  Br73  1  0.72681283  0.89740770  0.95299846  1  -0.268606  -0.450706  -0.019531  1.598965  -0.019
Br  Br74  1  0.44311904  0.76325220  0.24168704  1  -0.293582  -0.481331  -0.008812  1.605332  -0.01
Br  Br75  1  0.55705594  0.23680224  0.75832251  1  -0.295297  -0.483945  -0.003884  1.601992  -0.003
Br  Br76  1  0.23164796  0.64727676  0.52309351  1  -0.278541  -0.47023  -0.08612  1.337435  -0.084
Br  Br77  1  0.76923401  0.35338455  0.47649084  1  -0.279632  -0.472202  0.085831  1.334327  0.081
N  N78  1  0.07418467  0.55790595  0.27593240  1  -0.352009  -0.280506  -0.05664  3.660465  -0.074
N  N79  1  0.92667167  0.44259307  0.72358348  1  -0.352409  -0.280526  0.059507  3.666205  0.075
N  N80  1  0.27340642  0.40057546  0.37544837  1  -0.331399  -0.242153  -0.04907  3.562031  -0.064
N  N81  1  0.72621853  0.59894193  0.62496203  1  -0.331445  -0.241334  0.053149  3.563573  0.067
N  N82  1  0.00923536  0.79219404  0.34687024  1  -0.332473  -0.242655  -0.050377  3.574082  -0.066
N  N83  1  0.99023581  0.20759493  0.65347981  1  -0.332167  -0.242163  0.053577  3.574605  0.068
N  N84  1  0.65443816  0.25365750  0.01166411  1  -0.362193  -0.195015  -0.003615  3.640376  -0.005
N  N85  1  0.34549566  0.74672089  0.98816474  1  -0.361911  -0.195008  -0.003647  3.638795  -0.005
