# generated using pymatgen
data_AgH5(C2N)2
_symmetry_space_group_name_H-M   'P 1'
_cell_length_a   11.23961099
_cell_length_b   11.98474630
_cell_length_c   19.56570865
_cell_angle_alpha   89.99930867
_cell_angle_beta   90.00054229
_cell_angle_gamma   103.20501570
_symmetry_Int_Tables_number   1
_chemical_formula_structural   AgH5(C2N)2
_chemical_formula_sum   'Ag16 H80 C64 N32'
_cell_volume   2565.88946007
_cell_formula_units_Z   16
loop_
 _symmetry_equiv_pos_site_id
 _symmetry_equiv_pos_as_xyz
  1  'x, y, z'
loop_
 _atom_site_type_symbol
 _atom_site_label
 _atom_site_symmetry_multiplicity
 _atom_site_fract_x
 _atom_site_fract_y
 _atom_site_fract_z
 _atom_site_occupancy
 _atom_site_pbe_bader_charge
 _atom_site_pbe_bader_spin_density
 _atom_site_pbe_cm5_charge
 _atom_site_pbe_ddec_charge
 _atom_site_pbe_ddec_spin_density
 _atom_site_pbe_ddec_sum_bond_order
 _atom_site_pbe_magmom
Ag  Ag0  1  0.63722800  0.65851679  0.04989115  1  0.457985  0  0.453196  0.26213  0  2.065937  0
Ag  Ag1  1  0.76542893  0.24516201  0.18422194  1  0.46843  0  0.449641  0.272762  0  2.113391  0
Ag  Ag2  1  0.86541299  0.83260545  0.03564528  1  0.457908  0  0.454492  0.256493  0  2.085154  0
Ag  Ag3  1  0.48909443  0.75496863  0.76102486  1  0.467987  0  0.45423  0.263432  0  2.153548  0
Ag  Ag4  1  0.86276776  0.34148087  0.54988200  1  0.457563  0  0.453151  0.262059  0  2.065727  0
Ag  Ag5  1  0.73457308  0.75482656  0.68421615  1  0.468407  0  0.449679  0.272779  0  2.113302  0
Ag  Ag6  1  0.63458829  0.16737534  0.53564539  1  0.457871  0  0.454485  0.256517  0  2.084875  0
Ag  Ag7  1  0.01091327  0.24502936  0.26101751  1  0.467985  0  0.454253  0.263323  0  2.153574  0
Ag  Ag8  1  0.36277448  0.34148887  0.95011403  1  0.457894  0  0.453245  0.262182  0  2.065947  0
Ag  Ag9  1  0.23457156  0.75484278  0.81578426  1  0.468754  0  0.449673  0.272793  0  2.113381  0
Ag  Ag10  1  0.13458395  0.16738819  0.96435735  1  0.458014  0  0.454469  0.256504  0  2.084978  0
Ag  Ag11  1  0.51091772  0.24502165  0.23897776  1  0.467875  0  0.454316  0.263377  0  2.153723  0
Ag  Ag12  1  0.13722596  0.65851790  0.45011654  1  0.457805  0  0.453235  0.262232  0  2.065948  0
Ag  Ag13  1  0.26543242  0.24517311  0.31577881  1  0.4685  0  0.449658  0.272801  0  2.113302  0
Ag  Ag14  1  0.36541393  0.83261062  0.46435519  1  0.457993  0  0.454459  0.256515  0  2.084937  0
Ag  Ag15  1  0.98909833  0.75496606  0.73898051  1  0.467957  0  0.454223  0.263364  0  2.153436  0
H  H16  1  0.67136937  0.65547406  0.21717730  1  0.05872  0  0.107726  0.102242  0  1.021623  0
H  H17  1  0.73912984  0.47187344  0.28013423  1  0.097589  0  0.106202  0.106777  0  1.041449  0
H  H18  1  0.72593561  0.46799834  0.00662815  1  0.040154  0  0.086826  0.128141  0  1.035808  0
H  H19  1  0.82132157  0.38214149  0.04166912  1  0.047822  0  0.088706  0.131311  0  1.030127  0
H  H20  1  0.66002454  0.33052345  0.04062981  1  0.073029  0  0.091081  0.141035  0  1.034636  0
H  H21  1  0.79130715  0.01161720  0.27379286  1  0.087442  0  0.10526  0.103612  0  1.038871  0
H  H22  1  0.84759304  0.82770725  0.20509681  1  0.096984  0  0.108192  0.102768  0  1.023087  0
H  H23  1  0.75236107  0.16436852  0.04915171  1  0.052605  0  0.088483  0.134362  0  1.039533  0
H  H24  1  0.87828838  0.11310928  0.01776979  1  0.030848  0  0.082508  0.121762  0  1.052239  0
H  H25  1  0.72693918  0.02935728  0.00719507  1  0.023449  0  0.08723  0.128226  0  1.03301  0
H  H26  1  0.44362753  0.59318281  0.50928746  1  0.0793  0  0.110428  0.109524  0  1.015397  0
H  H27  1  0.48789839  0.55286879  0.64613583  1  0.100686  0  0.111119  0.111296  0  1.010488  0
H  H28  1  0.36407066  0.94881264  0.58940108  1  0.049372  0  0.088295  0.132443  0  1.026917  0
H  H29  1  0.44575894  0.95131857  0.66769542  1  0.073503  0  0.090953  0.139279  0  1.029745  0
H  H30  1  0.28865187  0.87954106  0.66295124  1  0.068789  0  0.089458  0.133651  0  1.0322  0
H  H31  1  0.53131905  0.89135066  0.01861537  1  0.086787  0  0.110843  0.109323  0  1.010745  0
H  H32  1  0.47911878  0.94318973  0.88470684  1  0.085083  0  0.10927  0.107673  0  1.018235  0
H  H33  1  0.60092793  0.59981307  0.82389032  1  0.035986  0  0.08818  0.131956  0  1.031237  0
H  H34  1  0.55262309  0.52953647  0.90221831  1  0.057131  0  0.081591  0.119719  0  1.055506  0
H  H35  1  0.70693569  0.60722722  0.89268390  1  0.085116  0  0.090823  0.139237  0  1.037056  0
H  H36  1  0.82859826  0.34450612  0.71717561  1  0.058553  0  0.107772  0.102303  0  1.021544  0
H  H37  1  0.76086712  0.52812463  0.78012671  1  0.097829  0  0.106198  0.106816  0  1.04117  0
H  H38  1  0.77406230  0.53198892  0.50662220  1  0.040042  0  0.086778  0.128076  0  1.035722  0
H  H39  1  0.67867622  0.61785032  0.54165382  1  0.047945  0  0.08871  0.131276  0  1.030094  0
H  H40  1  0.83998036  0.66946841  0.54061807  1  0.072949  0  0.09103  0.140873  0  1.034682  0
H  H41  1  0.70870954  0.98835965  0.77380408  1  0.087228  0  0.105236  0.103548  0  1.038945  0
H  H42  1  0.65240505  0.17227839  0.70511385  1  0.097051  0  0.108215  0.102815  0  1.023038  0
H  H43  1  0.74764811  0.83563691  0.54914641  1  0.052609  0  0.088511  0.13435  0  1.039336  0
H  H44  1  0.62171055  0.88690006  0.51777772  1  0.030967  0  0.082545  0.121861  0  1.052173  0
H  H45  1  0.77305687  0.97066678  0.50720473  1  0.023404  0  0.087242  0.128212  0  1.032929  0
H  H46  1  0.05635419  0.40681673  0.00928273  1  0.079061  0  0.11044  0.10945  0  1.015496  0
H  H47  1  0.01208426  0.44713274  0.14612902  1  0.100696  0  0.111112  0.111286  0  1.010405  0
H  H48  1  0.13592012  0.05119330  0.08939025  1  0.049412  0  0.088291  0.132428  0  1.026788  0
H  H49  1  0.05424645  0.04868355  0.16769131  1  0.073573  0  0.090985  0.139337  0  1.029791  0
H  H50  1  0.21135037  0.12045942  0.16294337  1  0.0689  0  0.089476  0.133702  0  1.032202  0
H  H51  1  0.96867762  0.10866038  0.51860701  1  0.08707  0  0.110866  0.109461  0  1.010738  0
H  H52  1  0.02090353  0.05681994  0.38470710  1  0.085093  0  0.109278  0.107683  0  1.018101  0
H  H53  1  0.89906724  0.40018940  0.32387320  1  0.035589  0  0.088229  0.132097  0  1.031175  0
H  H54  1  0.94736736  0.47047066  0.40219785  1  0.057155  0  0.081699  0.119725  0  1.055613  0
H  H55  1  0.79305759  0.39276638  0.39266472  1  0.085317  0  0.090832  0.139183  0  1.036958  0
H  H56  1  0.32858818  0.34451857  0.78282533  1  0.058919  0  0.107713  0.102195  0  1.02175  0
H  H57  1  0.26084237  0.52813209  0.71987146  1  0.097665  0  0.106182  0.106816  0  1.041094  0
H  H58  1  0.27407955  0.53200822  0.99338061  1  0.040339  0  0.086815  0.128085  0  1.035674  0
H  H59  1  0.17868844  0.61786591  0.95834220  1  0.048002  0  0.088718  0.131303  0  1.030073  0
H  H60  1  0.33998993  0.66948397  0.95937588  1  0.072853  0  0.091054  0.141116  0  1.034437  0
H  H61  1  0.20868307  0.98838926  0.72620005  1  0.087292  0  0.105173  0.103453  0  1.038935  0
H  H62  1  0.15238944  0.17229661  0.79490172  1  0.096798  0  0.108159  0.102773  0  1.023061  0
H  H63  1  0.24764367  0.83563543  0.95084989  1  0.05265  0  0.088502  0.134381  0  1.039457  0
H  H64  1  0.12171486  0.88689210  0.98222670  1  0.030867  0  0.082551  0.121852  0  1.052179  0
H  H65  1  0.27306351  0.97066036  0.99279375  1  0.023518  0  0.087289  0.128284  0  1.032837  0
H  H66  1  0.55637606  0.40680144  0.49071414  1  0.079403  0  0.110455  0.109469  0  1.015531  0
H  H67  1  0.51211869  0.44713093  0.35386730  1  0.100784  0  0.11118  0.111333  0  1.010486  0
H  H68  1  0.63591752  0.05117412  0.41059899  1  0.049413  0  0.088331  0.132483  0  1.026752  0
H  H69  1  0.55424164  0.04867167  0.33230159  1  0.073329  0  0.090963  0.139277  0  1.029943  0
H  H70  1  0.71134603  0.12044917  0.33704883  1  0.068847  0  0.089483  0.133692  0  1.032168  0
H  H71  1  0.46870932  0.10867394  0.98138214  1  0.08731  0  0.110824  0.109506  0  1.010577  0
H  H72  1  0.52092891  0.05682638  0.11528556  1  0.08452  0  0.10932  0.107743  0  1.018  0
H  H73  1  0.39905415  0.40017795  0.17611945  1  0.036055  0  0.088254  0.132132  0  1.031206  0
H  H74  1  0.44736063  0.47046140  0.09779198  1  0.057378  0  0.081633  0.119769  0  1.055337  0
H  H75  1  0.29304729  0.39275267  0.10732230  1  0.084526  0  0.090842  0.139207  0  1.036881  0
H  H76  1  0.17140402  0.65549868  0.28282906  1  0.058689  0  0.107791  0.102357  0  1.021524  0
H  H77  1  0.23916063  0.47189739  0.21987183  1  0.097673  0  0.106142  0.106741  0  1.041344  0
H  H78  1  0.22592924  0.46798587  0.49337992  1  0.040344  0  0.086811  0.128143  0  1.035754  0
H  H79  1  0.32131429  0.38213132  0.45833756  1  0.048133  0  0.088728  0.13136  0  1.030146  0
H  H80  1  0.16001939  0.33051840  0.45936717  1  0.072906  0  0.091108  0.141154  0  1.034672  0
H  H81  1  0.29127795  0.01162796  0.22620058  1  0.087398  0  0.105194  0.103433  0  1.039048  0
H  H82  1  0.34758182  0.82771779  0.29489031  1  0.097096  0  0.108275  0.10283  0  1.023105  0
H  H83  1  0.25236609  0.16436194  0.45085366  1  0.053001  0  0.08848  0.134375  0  1.039286  0
H  H84  1  0.37829188  0.11308676  0.48222797  1  0.030645  0  0.082508  0.121781  0  1.052293  0
H  H85  1  0.22694747  0.02933546  0.49279738  1  0.023372  0  0.087273  0.128235  0  1.033115  0
H  H86  1  0.94363302  0.59318458  0.99071990  1  0.079072  0  0.110425  0.109508  0  1.015448  0
H  H87  1  0.98789028  0.55285654  0.85387411  1  0.100613  0  0.111082  0.111234  0  1.01036  0
H  H88  1  0.86404619  0.94880622  0.91059858  1  0.049571  0  0.08828  0.13244  0  1.026923  0
H  H89  1  0.94574159  0.95131006  0.83230416  1  0.073616  0  0.090977  0.139396  0  1.029629  0
H  H90  1  0.78863671  0.87952649  0.83704648  1  0.068597  0  0.089446  0.133677  0  1.032207  0
H  H91  1  0.03133472  0.89136416  0.48139101  1  0.086529  0  0.110869  0.109306  0  1.010885  0
H  H92  1  0.97913471  0.94320127  0.61529808  1  0.085275  0  0.109308  0.107646  0  1.018257  0
H  H93  1  0.10092196  0.59981278  0.67611665  1  0.035724  0  0.088242  0.132083  0  1.031162  0
H  H94  1  0.05263253  0.52953156  0.59778790  1  0.057172  0  0.081611  0.1197  0  1.055507  0
H  H95  1  0.20694606  0.60723671  0.60733126  1  0.085227  0  0.090783  0.139086  0  1.036906  0
C  C96  1  0.72628756  0.46127400  0.11566946  1  0.978998  0  0.184796  0.36142  0  3.971237  0
C  C97  1  0.69470634  0.58015483  0.19528270  1  0.389939  0  -0.034802  -0.07862  0  4.07183  0
C  C98  1  0.72896210  0.48945542  0.22643764  1  0.334515  0  -0.034783  -0.07655  0  4.075727  0
C  C99  1  0.73386034  0.40757032  0.04763790  1  -0.084208  0  -0.245332  -0.465222  0  3.955369  0
C  C100  1  0.79685579  0.03104888  0.10946142  1  0.975247  0  0.185382  0.363067  0  3.966047  0
C  C101  1  0.79904521  0.99718326  0.21948755  1  0.363302  0  -0.034491  -0.082072  0  4.084423  0
C  C102  1  0.82725409  0.90592685  0.18556331  1  0.311357  0  -0.030356  -0.073881  0  4.075369  0
C  C103  1  0.78806145  0.08731922  0.04234325  1  -0.022433  0  -0.246643  -0.460716  0  3.962619  0
C  C104  1  0.40930804  0.79015270  0.61469350  1  0.982025  0  0.190706  0.370459  0  3.965649  0
C  C105  1  0.43884452  0.64456543  0.55436970  1  0.334004  0  -0.031578  -0.085571  0  4.075462  0
C  C106  1  0.45983706  0.62423348  0.62210058  1  0.344258  0  -0.029137  -0.074773  0  4.073625  0
C  C107  1  0.37564979  0.89855919  0.63476229  1  -0.087455  0  -0.242027  -0.459808  0  3.941602  0
C  C108  1  0.57676125  0.71233770  0.90400602  1  0.986457  0  0.189732  0.371034  0  3.964674  0
C  C109  1  0.53920735  0.84667975  0.97121995  1  0.323477  0  -0.028446  -0.075788  0  4.069692  0
C  C110  1  0.51381608  0.87260416  0.90497583  1  0.331157  0  -0.030047  -0.078585  0  4.068804  0
C  C111  1  0.61166880  0.60674295  0.87963735  1  -0.086209  0  -0.243872  -0.457571  0  3.940297  0
C  C112  1  0.77371066  0.53871829  0.61566141  1  0.979068  0  0.185024  0.361837  0  3.970995  0
C  C113  1  0.80527957  0.41983264  0.69527725  1  0.390341  0  -0.034752  -0.078553  0  4.071636  0
C  C114  1  0.77102940  0.51053840  0.72642826  1  0.333757  0  -0.034925  -0.076708  0  4.075565  0
C  C115  1  0.76614424  0.59241970  0.54762941  1  -0.084317  0  -0.245193  -0.464947  0  3.955066  0
C  C116  1  0.70314777  0.96895123  0.60947429  1  0.97665  0  0.185211  0.362629  0  3.966379  0
C  C117  1  0.70096382  0.00279876  0.71949795  1  0.363485  0  -0.034451  -0.081944  0  4.084422  0
C  C118  1  0.67275109  0.09406000  0.68557082  1  0.311441  0  -0.030373  -0.074155  0  4.075498  0
C  C119  1  0.71193703  0.91269399  0.54235199  1  -0.023161  0  -0.24668  -0.460728  0  3.962421  0
C  C120  1  0.09068888  0.20985113  0.11469247  1  0.981512  0  0.190652  0.370405  0  3.965831  0
C  C121  1  0.06114481  0.35543681  0.05436180  1  0.334158  0  -0.031555  -0.085471  0  4.075773  0
C  C122  1  0.04015366  0.37576249  0.12209497  1  0.344411  0  -0.029129  -0.074814  0  4.073805  0
C  C123  1  0.12434505  0.10144943  0.13476329  1  -0.087423  0  -0.242104  -0.459986  0  3.94176  0
C  C124  1  0.92324593  0.28766861  0.40398987  1  0.987076  0  0.189632  0.370721  0  3.964967  0
C  C125  1  0.96079237  0.15332797  0.47121421  1  0.323375  0  -0.028521  -0.076062  0  4.07034  0
C  C126  1  0.98619337  0.12741156  0.40496889  1  0.331406  0  -0.030081  -0.078726  0  4.069327  0
C  C127  1  0.88833658  0.39326119  0.37961459  1  -0.086224  0  -0.244059  -0.457575  0  3.940279  0
C  C128  1  0.27371760  0.53873167  0.88433828  1  0.979246  0  0.184894  0.361663  0  3.971127  0
C  C129  1  0.30527340  0.41984132  0.80472401  1  0.390377  0  -0.034653  -0.078502  0  4.071936  0
C  C130  1  0.27101743  0.51055100  0.77357418  1  0.333986  0  -0.034976  -0.076713  0  4.075638  0
C  C131  1  0.26615153  0.59243366  0.95236983  1  -0.084554  0  -0.245342  -0.465302  0  3.955008  0
C  C132  1  0.20313636  0.96895074  0.89052996  1  0.97632  0  0.185337  0.362952  0  3.966285  0
C  C133  1  0.20094083  0.00282062  0.78050690  1  0.363358  0  -0.034558  -0.08203  0  4.084189  0
C  C134  1  0.17273531  0.09407618  0.81443574  1  0.311205  0  -0.030296  -0.074023  0  4.075425  0
C  C135  1  0.21193590  0.91268727  0.95764966  1  -0.023286  0  -0.246703  -0.460855  0  3.962511  0
C  C136  1  0.59068877  0.20983667  0.38530453  1  0.982045  0  0.190674  0.370223  0  3.965769  0
C  C137  1  0.56116168  0.35542226  0.44563292  1  0.334438  0  -0.031591  -0.085456  0  4.07574  0
C  C138  1  0.54017591  0.37576023  0.37790102  1  0.343612  0  -0.029224  -0.075003  0  4.073694  0
C  C139  1  0.62434195  0.10142759  0.36523215  1  -0.087539  0  -0.242034  -0.459808  0  3.941695  0
C  C140  1  0.42324719  0.28765942  0.09599915  1  0.986213  0  0.189769  0.371038  0  3.965263  0
C  C141  1  0.46082047  0.15333886  0.02877756  1  0.322315  0  -0.028421  -0.07605  0  4.069759  0
C  C142  1  0.48621620  0.12741446  0.09502322  1  0.331578  0  -0.030157  -0.078698  0  4.069124  0
C  C143  1  0.38832760  0.39324470  0.12037498  1  -0.085911  0  -0.244072  -0.457858  0  3.940298  0
C  C144  1  0.22629066  0.46127880  0.38433610  1  0.979191  0  0.184971  0.361663  0  3.971084  0
C  C145  1  0.19472757  0.58017389  0.30472435  1  0.390283  0  -0.034778  -0.078659  0  4.071724  0
C  C146  1  0.22898692  0.48947673  0.27356976  1  0.334109  0  -0.034819  -0.076576  0  4.075397  0
C  C147  1  0.23385634  0.40755941  0.45236657  1  -0.08476  0  -0.245368  -0.465419  0  3.955439  0
C  C148  1  0.29685876  0.03105273  0.39053191  1  0.976443  0  0.185247  0.362732  0  3.966303  0
C  C149  1  0.29902538  0.99719229  0.28050672  1  0.362974  0  -0.034392  -0.081808  0  4.08474  0
C  C150  1  0.32724119  0.90593277  0.31442822  1  0.311206  0  -0.030436  -0.074113  0  4.075529  0
C  C151  1  0.28807211  0.08730228  0.45765626  1  -0.023228  0  -0.246657  -0.460656  0  3.96256  0
C  C152  1  0.90929491  0.79014332  0.88530504  1  0.981599  0  0.19063  0.37036  0  3.965871  0
C  C153  1  0.93884486  0.64456366  0.94564082  1  0.334624  0  -0.031504  -0.085426  0  4.075667  0
C  C154  1  0.95982807  0.62423452  0.87790663  1  0.34403  0  -0.029185  -0.074974  0  4.073796  0
C  C155  1  0.87563477  0.89854329  0.86523371  1  -0.087447  0  -0.242083  -0.460096  0  3.94196  0
C  C156  1  0.07675977  0.71234306  0.59599997  1  0.986644  0  0.18986  0.371111  0  3.964697  0
C  C157  1  0.03922175  0.84669657  0.52878483  1  0.323029  0  -0.028511  -0.075867  0  4.069899  0
C  C158  1  0.01383760  0.87261648  0.59502913  1  0.331582  0  -0.030146  -0.078507  0  4.069033  0
C  C159  1  0.11166296  0.60674702  0.62037372  1  -0.086053  0  -0.243955  -0.457541  0  3.940206  0
N  N160  1  0.69326332  0.56188199  0.12544528  1  -1.218554  0  -0.406908  -0.303813  0  3.66698  0
N  N161  1  0.74915263  0.41498696  0.17604369  1  -1.183163  0  -0.405878  -0.31539  0  3.638126  0
N  N162  1  0.77948387  0.07550991  0.17131841  1  -1.176944  0  -0.402761  -0.312031  0  3.637118  0
N  N163  1  0.82569911  0.92799485  0.11633138  1  -1.214156  0  -0.410847  -0.307652  0  3.682065  0
N  N164  1  0.40738597  0.74937103  0.55014602  1  -1.19844  0  -0.407559  -0.306007  0  3.6775  0
N  N165  1  0.44117470  0.71654513  0.65964240  1  -1.199762  0  -0.407528  -0.314929  0  3.653839  0
N  N166  1  0.53787138  0.78753379  0.86295116  1  -1.190063  0  -0.40349  -0.311999  0  3.650737  0
N  N167  1  0.57872973  0.74553077  0.97015889  1  -1.176054  0  -0.408885  -0.314173  0  3.67582  0
N  N168  1  0.80672879  0.43811010  0.62543868  1  -1.218613  0  -0.407032  -0.304069  0  3.667197  0
N  N169  1  0.75084935  0.58500946  0.67603312  1  -1.1827  0  -0.405962  -0.315619  0  3.638186  0
N  N170  1  0.72052347  0.92448319  0.67132455  1  -1.177614  0  -0.402603  -0.311682  0  3.637171  0
N  N171  1  0.67430378  0.07199830  0.61634367  1  -1.214187  0  -0.410853  -0.307392  0  3.682044  0
N  N172  1  0.09260447  0.25063985  0.05014521  1  -1.19805  0  -0.40754  -0.305983  0  3.677776  0
N  N173  1  0.05882346  0.28345709  0.15963604  1  -1.199968  0  -0.40749  -0.314735  0  3.65408  0
N  N174  1  0.96214022  0.21247151  0.36294447  1  -1.190388  0  -0.403448  -0.311774  0  3.651204  0
N  N175  1  0.92127032  0.25447098  0.47014502  1  -1.17635  0  -0.408729  -0.31379  0  3.675884  0
N  N176  1  0.30673458  0.43811937  0.87456092  1  -1.219056  0  -0.406913  -0.303841  0  3.667148  0
N  N177  1  0.25084574  0.58502382  0.82396507  1  -1.1832  0  -0.405886  -0.315544  0  3.638345  0
N  N178  1  0.22050560  0.92448970  0.82867859  1  -1.176704  0  -0.402624  -0.311756  0  3.637064  0
N  N179  1  0.17429481  0.07200478  0.88366613  1  -1.214323  0  -0.410836  -0.307548  0  3.68198  0
N  N180  1  0.59260892  0.25061404  0.44985558  1  -1.198484  0  -0.407557  -0.305934  0  3.677568  0
N  N181  1  0.55883334  0.28345027  0.34035512  1  -1.199465  0  -0.407583  -0.314693  0  3.653881  0
N  N182  1  0.46214748  0.21246594  0.13705096  1  -1.189359  0  -0.403465  -0.3119  0  3.651042  0
N  N183  1  0.42128351  0.25448264  0.02984476  1  -1.175778  0  -0.40893  -0.31413  0  3.676287  0
N  N184  1  0.19326739  0.56188782  0.37456037  1  -1.218631  0  -0.407002  -0.304053  0  3.667253  0
N  N185  1  0.24916423  0.41499795  0.32396388  1  -1.183078  0  -0.405941  -0.315451  0  3.637959  0
N  N186  1  0.27947649  0.07551561  0.32867858  1  -1.177087  0  -0.402708  -0.311848  0  3.637153  0
N  N187  1  0.32569974  0.92800051  0.38365946  1  -1.214128  0  -0.410802  -0.307514  0  3.681837  0
N  N188  1  0.90738363  0.74936147  0.94985690  1  -1.198112  0  -0.407489  -0.305898  0  3.677722  0
N  N189  1  0.94115676  0.71653735  0.84036300  1  -1.199806  0  -0.407404  -0.31457  0  3.653941  0
N  N190  1  0.03788041  0.78753935  0.63705815  1  -1.190435  0  -0.403489  -0.311984  0  3.650653  0
N  N191  1  0.07873593  0.74553555  0.52984329  1  -1.175853  0  -0.408967  -0.314278  0  3.675686  0
