# generated using pymatgen
data_CdH7C7NO7
_symmetry_space_group_name_H-M   'P 1'
_cell_length_a   8.52998317
_cell_length_b   11.42547971
_cell_length_c   11.04927157
_cell_angle_alpha   87.47275590
_cell_angle_beta   76.81037891
_cell_angle_gamma   79.79906862
_symmetry_Int_Tables_number   1
_chemical_formula_structural   CdH7C7NO7
_chemical_formula_sum   'Cd4 H28 C28 N4 O28'
_cell_volume   1031.86482024
_cell_formula_units_Z   4
loop_
 _symmetry_equiv_pos_site_id
 _symmetry_equiv_pos_as_xyz
  1  'x, y, z'
loop_
 _atom_site_type_symbol
 _atom_site_label
 _atom_site_symmetry_multiplicity
 _atom_site_fract_x
 _atom_site_fract_y
 _atom_site_fract_z
 _atom_site_occupancy
 _atom_site_hle17_bader_spin_density
 _atom_site_hle17_ddec_charge
 _atom_site_hle17_ddec_spin_density
 _atom_site_hle17_ddec_sum_bond_order
 _atom_site_hle17_magmom
 _atom_site_hse06_10hf_bader_spin_density
 _atom_site_hse06_10hf_ddec_charge
 _atom_site_hse06_10hf_ddec_spin_density
 _atom_site_hse06_10hf_ddec_sum_bond_order
 _atom_site_hse06_10hf_magmom
 _atom_site_hse06_bader_spin_density
 _atom_site_hse06_ddec_charge
 _atom_site_hse06_ddec_spin_density
 _atom_site_hse06_ddec_sum_bond_order
 _atom_site_hse06_magmom
 _atom_site_pbe_bader_spin_density
 _atom_site_pbe_cm5_charge
 _atom_site_pbe_ddec_charge
 _atom_site_pbe_ddec_spin_density
 _atom_site_pbe_ddec_sum_bond_order
 _atom_site_pbe_magmom
Cd  Cd0  1  0.52295634  0.42297643  0.34042004  1  0  1.246917  0  1.583568  0  0  1.067664  0  2.021199  0  0  1.123318  0  1.965351  0  0  0.779766  1.027043  0  2.060179  0
Cd  Cd1  1  0.47704521  0.57702615  0.65958023  1  0  1.246907  0  1.583564  0  0  1.06765  0  2.021199  0  0  1.123302  0  1.965351  0  0  0.779767  1.027022  0  2.060184  0
Cd  Cd2  1  0.63973977  0.07101647  0.36231038  1  0  1.222711  0  1.630342  0  0  1.045532  0  2.075363  0  0  1.101568  0  2.018847  0  0  0.770831  1.005223  0  2.114587  0
Cd  Cd3  1  0.36026077  0.92898439  0.63768654  1  0  1.222718  0  1.630332  0  0  1.045543  0  2.07534  0  0  1.101574  0  2.018824  0  0  0.77083  1.005242  0  2.114559  0
H  H4  1  0.04843923  0.78143384  0.99107071  1  0  0.382051  0  0.917647  0  0  0.351219  0  0.995713  0  0  0.36439  0  0.982949  0  0  0.292581  0.34206  0  1.00439  0
H  H5  1  0.95155405  0.21856627  0.00892318  1  0  0.381955  0  0.917835  0  0  0.35116  0  0.995832  0  0  0.364328  0  0.98308  0  0  0.292578  0.342002  0  1.004507  0
H  H6  1  0.29768143  0.55607145  0.21453431  1  0  0.43151  0  0.870733  0  0  0.399652  0  0.935797  0  0  0.410707  0  0.919761  0  0  0.289362  0.3918  0  0.947177  0
H  H7  1  0.70232554  0.44393373  0.78546386  1  0  0.431552  0  0.870678  0  0  0.399667  0  0.935794  0  0  0.410725  0  0.919756  0  0  0.289349  0.391811  0  0.947183  0
H  H8  1  0.30529490  0.63259569  0.32385414  1  0  0.42705  0  0.868329  0  0  0.397837  0  0.928637  0  0  0.408223  0  0.913428  0  0  0.292489  0.390324  0  0.939657  0
H  H9  1  0.69470450  0.36741135  0.67614639  1  0  0.426975  0  0.868459  0  0  0.397755  0  0.928773  0  0  0.408143  0  0.913561  0  0  0.292431  0.390243  0  0.939794  0
H  H10  1  0.36547679  0.21714125  0.28230165  1  0  0.434905  0  0.853376  0  0  0.404188  0  0.914213  0  0  0.415615  0  0.897536  0  0  0.305517  0.396388  0  0.925572  0
H  H11  1  0.63452233  0.78285069  0.71770226  1  0  0.434938  0  0.853329  0  0  0.404201  0  0.914202  0  0  0.41563  0  0.897522  0  0  0.305509  0.396397  0  0.92557  0
H  H12  1  0.32469427  0.24872637  0.43259262  1  0  0.419853  0  0.89356  0  0  0.383102  0  0.965123  0  0  0.395911  0  0.946836  0  0  0.285269  0.374119  0  0.977898  0
H  H13  1  0.67530681  0.75127352  0.56741147  1  0  0.419761  0  0.893689  0  0  0.383027  0  0.965226  0  0  0.395837  0  0.946939  0  0  0.285236  0.374043  0  0.978002  0
H  H14  1  0.71696360  0.25222469  0.49634638  1  0  0.428126  0  0.876425  0  0  0.391716  0  0.947003  0  0  0.404606  0  0.928512  0  0  0.290985  0.38261  0  0.960044  0
H  H15  1  0.28303262  0.74778144  0.50366026  1  0  0.428213  0  0.876319  0  0  0.391775  0  0.946941  0  0  0.404665  0  0.928448  0  0  0.291025  0.382664  0  0.959986  0
H  H16  1  0.83144334  0.25829149  0.35508076  1  0  0.450893  0  0.788035  0  0  0.433549  0  0.83567  0  0  0.442759  0  0.82574  0  0  0.334915  0.426866  0  0.84301  0
H  H17  1  0.16856529  0.74171441  0.64493063  1  0  0.450838  0  0.788304  0  0  0.433496  0  0.835914  0  0  0.4427  0  0.825996  0  0  0.33489  0.426817  0  0.843248  0
H  H18  1  0.52933050  0.72447867  0.89569234  1  0  0.396425  0  0.903355  0  0  0.364263  0  0.980082  0  0  0.377122  0  0.967301  0  0  0.300277  0.355235  0  0.988865  0
H  H19  1  0.47068131  0.27550960  0.10430644  1  0  0.396545  0  0.903145  0  0  0.364373  0  0.979889  0  0  0.37723  0  0.967108  0  0  0.300317  0.355342  0  0.988682  0
H  H20  1  0.84716268  0.85298278  0.41206111  1  0  0.435642  0  0.857625  0  0  0.402894  0  0.923345  0  0  0.41392  0  0.90717  0  0  0.294653  0.394909  0  0.935072  0
H  H21  1  0.15284029  0.14702422  0.58793779  1  0  0.43559  0  0.857665  0  0  0.402855  0  0.923371  0  0  0.413882  0  0.907192  0  0  0.29464  0.394869  0  0.935098  0
H  H22  1  0.84188137  0.94726161  0.51140765  1  0  0.419902  0  0.827924  0  0  0.403259  0  0.881305  0  0  0.411428  0  0.87225  0  0  0.314726  0.39731  0  0.88802  0
H  H23  1  0.15809825  0.05274298  0.48860058  1  0  0.420008  0  0.82774  0  0  0.403361  0  0.881133  0  0  0.411531  0  0.872075  0  0  0.314788  0.397413  0  0.887848  0
H  H24  1  0.93252089  0.74131313  0.20815958  1  0  0.145589  0  0.92142  0  0  0.158532  0  0.972928  0  0  0.162947  0  0.970631  0  0  0.120154  0.155347  0  0.974759  0
H  H25  1  0.06747724  0.25869225  0.79183221  1  0  0.145611  0  0.921427  0  0  0.158526  0  0.97296  0  0  0.16294  0  0.970663  0  0  0.120142  0.15534  0  0.974792  0
H  H26  1  0.84752527  0.55534653  0.90281292  1  0  0.137173  0  0.922661  0  0  0.147906  0  0.977814  0  0  0.152311  0  0.975277  0  0  0.117825  0.144737  0  0.979788  0
H  H27  1  0.15247516  0.44464901  0.09718333  1  0  0.137174  0  0.922677  0  0  0.147906  0  0.977825  0  0  0.152316  0  0.975286  0  0  0.117816  0.144737  0  0.979801  0
H  H28  1  0.78935687  0.94821919  0.89241027  1  0  0.147122  0  0.912372  0  0  0.156166  0  0.968926  0  0  0.161032  0  0.965525  0  0  0.119893  0.152621  0  0.971592  0
H  H29  1  0.21064443  0.05177362  0.10759225  1  0  0.147066  0  0.912392  0  0  0.156163  0  0.968907  0  0  0.161038  0  0.965503  0  0  0.119879  0.152612  0  0.97157  0
H  H30  1  0.43073675  0.75301323  0.11372207  1  0  0.152188  0  0.963885  0  0  0.153704  0  1.032877  0  0  0.159475  0  1.028465  0  0  0.114412  0.149539  0  1.036182  0
H  H31  1  0.56926746  0.24697605  0.88627458  1  0  0.152209  0  0.963862  0  0  0.153632  0  1.032969  0  0  0.159403  0  1.028558  0  0  0.114381  0.149466  0  1.036271  0
C  C32  1  0.77226546  0.61118375  0.25159746  1  0  0.116318  0  3.786084  0  0  0.117073  0  4.037754  0  0  0.120275  0  4.057275  0  0  0.103601  0.114801  0  4.024532  0
C  C33  1  0.22773274  0.38882246  0.74839972  1  0  0.116312  0  3.78601  0  0  0.117002  0  4.037785  0  0  0.120203  0  4.057299  0  0  0.103504  0.114734  0  4.024554  0
C  C34  1  0.87649439  0.67615602  0.17176502  1  0  -0.232886  0  3.634532  0  0  -0.267004  0  3.890773  0  0  -0.275231  0  3.908442  0  0  -0.089843  -0.261439  0  3.87892  0
C  C35  1  0.12350403  0.32384845  0.82822856  1  0  -0.232821  0  3.6344  0  0  -0.266938  0  3.89059  0  0  -0.275164  0  3.908261  0  0  -0.089739  -0.26137  0  3.878728  0
C  C36  1  0.90624130  0.65688108  0.04236018  1  0  0.396248  0  3.841603  0  0  0.383553  0  4.1088  0  0  0.400828  0  4.120856  0  0  0.10505  0.371922  0  4.100256  0
C  C37  1  0.09375852  0.34311715  0.95763518  1  0  0.396291  0  3.841531  0  0  0.383793  0  4.108467  0  0  0.401069  0  4.120522  0  0  0.105116  0.372161  0  4.099925  0
C  C38  1  0.82868402  0.57195109  0.00165390  1  0  -0.214464  0  3.663753  0  0  -0.246305  0  3.919539  0  0  -0.253709  0  3.935501  0  0  -0.086518  -0.241464  0  3.908956  0
C  C39  1  0.17132094  0.42804615  0.99834318  1  0  -0.214503  0  3.663765  0  0  -0.246407  0  3.919518  0  0  -0.253818  0  3.935484  0  0  -0.086541  -0.241569  0  3.908938  0
C  C40  1  0.73110116  0.50904395  0.08806139  1  0  0.126263  0  3.792517  0  0  0.123985  0  4.044586  0  0  0.128659  0  4.061922  0  0  0.106865  0.120645  0  4.033042  0
C  C41  1  0.26890384  0.49095413  0.91194018  1  0  0.126233  0  3.792445  0  0  0.123951  0  4.044525  0  0  0.12862  0  4.061861  0  0  0.106868  0.120609  0  4.032979  0
C  C42  1  0.72169962  0.63489575  0.38975151  1  0  0.657738  0  3.84655  0  0  0.601542  0  4.142373  0  0  0.636203  0  4.133841  0  0  0.224207  0.577982  0  4.147211  0
C  C43  1  0.27829937  0.36511223  0.61024453  1  0  0.657646  0  3.846409  0  0  0.601445  0  4.142288  0  0  0.636115  0  4.133738  0  0  0.224201  0.577882  0  4.147126  0
C  C44  1  0.65128229  0.41539036  0.04615283  1  0  0.650064  0  3.882112  0  0  0.590474  0  4.188867  0  0  0.624385  0  4.179506  0  0  0.221261  0.56747  0  4.19453  0
C  C45  1  0.34872098  0.58460506  0.95385190  1  0  0.650186  0  3.881917  0  0  0.590588  0  4.188686  0  0  0.624514  0  4.179297  0  0  0.221296  0.567589  0  4.194343  0
C  C46  1  0.70997477  0.98690352  0.08767852  1  0  0.129224  0  3.771067  0  0  0.128688  0  4.019976  0  0  0.133006  0  4.03733  0  0  0.111424  0.125738  0  4.008169  0
C  C47  1  0.29002226  0.01309202  0.91232294  1  0  0.129231  0  3.770856  0  0  0.12867  0  4.019833  0  0  0.132988  0  4.037195  0  0  0.111449  0.125716  0  4.00803  0
C  C48  1  0.71049580  0.92819501  0.98028504  1  0  -0.207956  0  3.640862  0  0  -0.24286  0  3.901541  0  0  -0.249167  0  3.916836  0  0  -0.082826  -0.238691  0  3.891324  0
C  C49  1  0.28950802  0.07179690  0.01971521  1  0  -0.207709  0  3.640759  0  0  -0.242692  0  3.901494  0  0  -0.249002  0  3.916778  0  0  -0.082707  -0.238514  0  3.891266  0
C  C50  1  0.60948012  0.84234841  0.98844606  1  0  0.398232  0  3.802106  0  0  0.384323  0  4.069054  0  0  0.399903  0  4.081769  0  0  0.105264  0.373698  0  4.060121  0
C  C51  1  0.39052605  0.15764433  0.01155639  1  0  0.398144  0  3.802259  0  0  0.384235  0  4.069192  0  0  0.399811  0  4.081912  0  0  0.105185  0.37361  0  4.060254  0
C  C52  1  0.51079297  0.81902482  0.10508788  1  0  -0.231839  0  3.630563  0  0  -0.26345  0  3.889876  0  0  -0.271117  0  3.9077  0  0  -0.089684  -0.258154  0  3.877851  0
C  C53  1  0.48920568  0.18096891  0.89491424  1  0  -0.23181  0  3.630707  0  0  -0.263328  0  3.890044  0  0  -0.271002  0  3.907852  0  0  -0.089574  -0.258031  0  3.878015  0
C  C54  1  0.51984307  0.88138791  0.20782296  1  0  0.118497  0  3.774681  0  0  0.117658  0  4.027085  0  0  0.119811  0  4.0472  0  0  0.103478  0.115992  0  4.013464  0
C  C55  1  0.48015860  0.11860846  0.79217753  1  0  0.11846  0  3.774645  0  0  0.117599  0  4.027083  0  0  0.119783  0  4.047155  0  0  0.103421  0.115932  0  4.013464  0
C  C56  1  0.81306570  0.08237782  0.08669409  1  0  0.627492  0  3.885549  0  0  0.573731  0  4.188511  0  0  0.607688  0  4.18052  0  0  0.211671  0.550821  0  4.193016  0
C  C57  1  0.18692659  0.91762226  0.91330452  1  0  0.627351  0  3.88544  0  0  0.573629  0  4.18836  0  0  0.607584  0  4.180374  0  0  0.211662  0.550719  0  4.192864  0
C  C58  1  0.42517156  0.85980217  0.33821601  1  0  0.646048  0  3.857924  0  0  0.591005  0  4.15525  0  0  0.625423  0  4.14715  0  0  0.220443  0.56761  0  4.15993  0
C  C59  1  0.57482184  0.14019342  0.66178618  1  0  0.646173  0  3.85759  0  0  0.591024  0  4.15512  0  0  0.625435  0  4.147018  0  0  0.220539  0.567628  0  4.159799  0
N  N60  1  0.70288362  0.52797988  0.21103892  1  0  -0.406499  0  3.309483  0  0  -0.346684  0  3.568889  0  0  -0.366506  0  3.588351  0  0  -0.34164  -0.332908  0  3.555479  0
N  N61  1  0.29711672  0.47202272  0.78896160  1  0  -0.406429  0  3.30933  0  0  -0.346561  0  3.568719  0  0  -0.366385  0  3.588184  0  0  -0.341583  -0.332788  0  3.555306  0
N  N62  1  0.61741695  0.96340252  0.19861042  1  0  -0.407834  0  3.337854  0  0  -0.345841  0  3.596157  0  0  -0.365609  0  3.617011  0  0  -0.344906  -0.332196  0  3.581873  0
N  N63  1  0.38258105  0.03659391  0.80138991  1  0  -0.407791  0  3.337688  0  0  -0.345774  0  3.595986  0  0  -0.365553  0  3.61683  0  0  -0.344921  -0.332131  0  3.581707  0
O  O64  1  0.77819047  0.71540451  0.43355360  1  0  -0.624788  0  2.004195  0  0  -0.560481  0  2.215952  0  0  -0.585955  0  2.203369  0  0  -0.306352  -0.542533  0  2.224143  0
O  O65  1  0.22181100  0.28460259  0.56643927  1  0  -0.624749  0  2.004099  0  0  -0.560449  0  2.21588  0  0  -0.585927  0  2.203292  0  0  -0.30636  -0.5425  0  2.224071  0
O  O66  1  0.61942145  0.57415997  0.45352111  1  0  -0.661493  0  2.085663  0  0  -0.583494  0  2.348389  0  0  -0.615581  0  2.336656  0  0  -0.318434  -0.560428  0  2.355315  0
O  O67  1  0.38057591  0.42584981  0.54647428  1  0  -0.661395  0  2.085488  0  0  -0.583399  0  2.348229  0  0  -0.615486  0  2.336488  0  0  -0.318401  -0.560339  0  2.355168  0
O  O68  1  0.00119712  0.71265166  0.95692391  1  0  -0.51088  0  2.16217  0  0  -0.461613  0  2.382944  0  0  -0.484013  0  2.374946  0  0  -0.333026  -0.446021  0  2.387775  0
O  O69  1  0.99880179  0.28734482  0.04306989  1  0  -0.510842  0  2.162144  0  0  -0.461686  0  2.382869  0  0  -0.484095  0  2.374891  0  0  -0.333079  -0.446093  0  2.387697  0
O  O70  1  0.67010141  0.39674198  0.93271998  1  0  -0.598815  0  2.001294  0  0  -0.544324  0  2.226999  0  0  -0.567646  0  2.217229  0  0  -0.300322  -0.52809  0  2.233446  0
O  O71  1  0.32989735  0.60326241  0.06728078  1  0  -0.598898  0  2.001351  0  0  -0.544427  0  2.227052  0  0  -0.567753  0  2.217274  0  0  -0.30033  -0.528199  0  2.233497  0
O  O72  1  0.56570571  0.35884985  0.13287729  1  0  -0.646755  0  2.114836  0  0  -0.574882  0  2.36358  0  0  -0.605151  0  2.353564  0  0  -0.318806  -0.553473  0  2.369668  0
O  O73  1  0.43430886  0.64114279  0.86712256  1  0  -0.646754  0  2.114688  0  0  -0.574891  0  2.363443  0  0  -0.605168  0  2.35342  0  0  -0.318849  -0.553485  0  2.369525  0
O  O74  1  0.29240923  0.55143051  0.30567994  1  0  -0.837377  0  1.797856  0  0  -0.780503  0  1.970743  0  0  -0.80231  0  1.937096  0  0  -0.597225  -0.764893  0  1.994454  0
O  O75  1  0.70759581  0.44857205  0.69431691  1  0  -0.837368  0  1.797937  0  0  -0.780467  0  1.970817  0  0  -0.802274  0  1.937168  0  0  -0.59717  -0.764855  0  1.994531  0
O  O76  1  0.41289912  0.22869857  0.35336606  1  0  -0.86334  0  1.923537  0  0  -0.788789  0  2.137429  0  0  -0.814886  0  2.099481  0  0  -0.57695  -0.770303  0  2.163312  0
O  O77  1  0.58710108  0.77129956  0.64663737  1  0  -0.863245  0  1.923545  0  0  -0.788714  0  2.137444  0  0  -0.814795  0  2.099462  0  0  -0.576895  -0.770225  0  2.163329  0
O  O78  1  0.71984354  0.26527173  0.40425606  1  0  -0.844351  0  1.911203  0  0  -0.773446  0  2.124162  0  0  -0.798312  0  2.089853  0  0  -0.561059  -0.755565  0  2.147963  0
O  O79  1  0.28015645  0.73473348  0.59574895  1  0  -0.844352  0  1.911384  0  0  -0.773438  0  2.124439  0  0  -0.798302  0  2.090126  0  0  -0.561047  -0.75555  0  2.148255  0
O  O80  1  0.87897363  0.12097511  0.98118585  1  0  -0.571502  0  1.960184  0  0  -0.524128  0  2.177762  0  0  -0.548765  0  2.170007  0  0  -0.310262  -0.507125  0  2.182559  0
O  O81  1  0.12100882  0.87902597  0.01881470  1  0  -0.571466  0  1.960068  0  0  -0.524089  0  2.177649  0  0  -0.548731  0  2.169898  0  0  -0.310256  -0.507084  0  2.182439  0
O  O82  1  0.82496060  0.11918677  0.19048504  1  0  -0.633339  0  2.004093  0  0  -0.574564  0  2.253307  0  0  -0.603045  0  2.242058  0  0  -0.333547  -0.554524  0  2.260326  0
O  O83  1  0.17503755  0.88080878  0.80951438  1  0  -0.633328  0  2.004151  0  0  -0.574561  0  2.25333  0  0  -0.60304  0  2.242082  0  0  -0.33355  -0.554521  0  2.260346  0
O  O84  1  0.61156116  0.78502131  0.88523232  1  0  -0.545981  0  2.168115  0  0  -0.4828  0  2.384038  0  0  -0.505819  0  2.373888  0  0  -0.338419  -0.466617  0  2.39031  0
O  O85  1  0.38844784  0.21496961  0.11477054  1  0  -0.546162  0  2.168003  0  0  -0.482957  0  2.38389  0  0  -0.505961  0  2.373727  0  0  -0.338496  -0.466781  0  2.390171  0
O  O86  1  0.33983000  0.77805886  0.35779954  1  0  -0.601752  0  1.99202  0  0  -0.538215  0  2.201093  0  0  -0.563067  0  2.189443  0  0  -0.297163  -0.52115  0  2.208994  0
O  O87  1  0.66016740  0.22194642  0.64220237  1  0  -0.601832  0  1.991525  0  0  -0.538258  0  2.200635  0  0  -0.563117  0  2.188994  0  0  -0.297218  -0.521191  0  2.208533  0
O  O88  1  0.43993582  0.92791572  0.42290404  1  0  -0.693015  0  2.116484  0  0  -0.616867  0  2.385947  0  0  -0.649129  0  2.373506  0  0  -0.330823  -0.594094  0  2.393609  0
O  O89  1  0.56006063  0.07208783  0.57709541  1  0  -0.693066  0  2.116703  0  0  -0.616874  0  2.386206  0  0  -0.649135  0  2.373765  0  0  -0.330854  -0.594102  0  2.393867  0
O  O90  1  0.86350945  0.93570952  0.42189566  1  0  -0.809387  0  1.789166  0  0  -0.756988  0  1.957729  0  0  -0.776526  0  1.928561  0  0  -0.579153  -0.743155  0  1.978654  0
O  O91  1  0.13648817  0.06429571  0.57811073  1  0  -0.809491  0  1.789063  0  0  -0.757093  0  1.957612  0  0  -0.77663  0  1.928439  0  0  -0.579209  -0.743262  0  1.978539  0
