# generated using pymatgen
data_TbH7C8SO7
_symmetry_space_group_name_H-M   'P 1'
_cell_length_a   7.71414451
_cell_length_b   9.82017398
_cell_length_c   14.28618084
_cell_angle_alpha   90.00000219
_cell_angle_beta   90.00006615
_cell_angle_gamma   102.35342892
_symmetry_Int_Tables_number   1
_chemical_formula_structural   TbH7C8SO7
_chemical_formula_sum   'Tb4 H28 C32 S4 O28'
_cell_volume   1057.18116972
_cell_formula_units_Z   4
loop_
 _symmetry_equiv_pos_site_id
 _symmetry_equiv_pos_as_xyz
  1  'x, y, z'
loop_
 _atom_site_type_symbol
 _atom_site_label
 _atom_site_symmetry_multiplicity
 _atom_site_fract_x
 _atom_site_fract_y
 _atom_site_fract_z
 _atom_site_occupancy
 _atom_site_hle17_bader_spin_density
 _atom_site_hle17_ddec_charge
 _atom_site_hle17_ddec_spin_density
 _atom_site_hle17_ddec_sum_bond_order
 _atom_site_hle17_magmom
 _atom_site_hse06_10hf_bader_spin_density
 _atom_site_hse06_10hf_ddec_charge
 _atom_site_hse06_10hf_ddec_spin_density
 _atom_site_hse06_10hf_ddec_sum_bond_order
 _atom_site_hse06_10hf_magmom
 _atom_site_hse06_bader_spin_density
 _atom_site_hse06_ddec_charge
 _atom_site_hse06_ddec_spin_density
 _atom_site_hse06_ddec_sum_bond_order
 _atom_site_hse06_magmom
 _atom_site_pbe_bader_spin_density
 _atom_site_pbe_cm5_charge
 _atom_site_pbe_ddec_charge
 _atom_site_pbe_ddec_spin_density
 _atom_site_pbe_ddec_sum_bond_order
 _atom_site_pbe_magmom
Tb  Tb0  1  0.59927244  0.09559547  0.11360718  1  0  2.296884  0  1.658307  0  0  2.152438  0  2.12159  0  0  2.26777  0  1.951041  0  0  1.528436  2.11761  0  2.15309  0
Tb  Tb1  1  0.90072515  0.90440658  0.61360796  1  0  2.296804  0  1.658363  0  0  2.15234  0  2.121682  0  0  2.267685  0  1.951108  0  0  1.528378  2.117512  0  2.153197  0
Tb  Tb2  1  0.40071849  0.90440939  0.88639310  1  0  2.29675  0  1.658399  0  0  2.152253  0  2.121733  0  0  2.267614  0  1.951154  0  0  1.528402  2.117428  0  2.153243  0
Tb  Tb3  1  0.09928048  0.09559082  0.38639301  1  0  2.296811  0  1.658278  0  0  2.152359  0  2.121563  0  0  2.267694  0  1.951026  0  0  1.528396  2.117533  0  2.153069  0
H  H4  1  0.64373374  0.49473595  0.12777894  1  0  0.116672  0  0.933505  0  0  0.126373  0  0.994687  0  0  0.130089  0  0.991638  0  0  0.114619  0.123636  0  0.997094  0
H  H5  1  0.85626885  0.50526082  0.62777827  1  0  0.116609  0  0.933466  0  0  0.126296  0  0.994664  0  0  0.130014  0  0.991612  0  0  0.114581  0.123558  0  0.997068  0
H  H6  1  0.35627258  0.50525934  0.87222204  1  0  0.1166  0  0.933481  0  0  0.126309  0  0.994661  0  0  0.130028  0  0.991606  0  0  0.114572  0.123573  0  0.99707  0
H  H7  1  0.14372873  0.49473561  0.37222060  1  0  0.116634  0  0.933492  0  0  0.126326  0  0.99468  0  0  0.130044  0  0.991627  0  0  0.114588  0.12359  0  0.997087  0
H  H8  1  0.83015646  0.73681637  0.19677925  1  0  0.122093  0  0.949762  0  0  0.131194  0  1.011861  0  0  0.134447  0  1.010058  0  0  0.11275  0.128925  0  1.012959  0
H  H9  1  0.66983237  0.26318162  0.69678476  1  0  0.122074  0  0.949814  0  0  0.131188  0  1.011892  0  0  0.134435  0  1.010102  0  0  0.11271  0.128922  0  1.012991  0
H  H10  1  0.16984698  0.26317791  0.80321473  1  0  0.122094  0  0.949847  0  0  0.131162  0  1.011965  0  0  0.134411  0  1.010171  0  0  0.112734  0.128893  0  1.01306  0
H  H11  1  0.33015387  0.73681598  0.30321902  1  0  0.122124  0  0.949774  0  0  0.131233  0  1.011848  0  0  0.134484  0  1.01005  0  0  0.112744  0.128966  0  1.012946  0
H  H12  1  0.99454067  0.79264672  0.00901813  1  0  0.155816  0  0.95791  0  0  0.168799  0  1.024867  0  0  0.171719  0  1.023887  0  0  0.104151  0.166605  0  1.025734  0
H  H13  1  0.50545002  0.20735013  0.50901654  1  0  0.155761  0  0.958038  0  0  0.168781  0  1.024952  0  0  0.171701  0  1.023972  0  0  0.104127  0.166585  0  1.025815  0
H  H14  1  0.00544140  0.20734987  0.99098144  1  0  0.15574  0  0.957989  0  0  0.168717  0  1.024955  0  0  0.171638  0  1.023969  0  0  0.104096  0.166525  0  1.02581  0
H  H15  1  0.49456259  0.79265346  0.49098584  1  0  0.155789  0  0.957931  0  0  0.168725  0  1.024965  0  0  0.171646  0  1.023977  0  0  0.1041  0.166531  0  1.025821  0
H  H16  1  0.81569278  0.74973384  0.92593983  1  0  0.144207  0  0.967187  0  0  0.15914  0  1.031624  0  0  0.16212  0  1.029956  0  0  0.098968  0.157155  0  1.03226  0
H  H17  1  0.68429219  0.25025801  0.42593561  1  0  0.144227  0  0.967319  0  0  0.159154  0  1.031748  0  0  0.162129  0  1.030088  0  0  0.098964  0.157173  0  1.032373  0
H  H18  1  0.18428649  0.25025755  0.07406184  1  0  0.144304  0  0.967332  0  0  0.159192  0  1.031778  0  0  0.16218  0  1.030098  0  0  0.098972  0.157207  0  1.032414  0
H  H19  1  0.31571534  0.74974145  0.57406607  1  0  0.14423  0  0.967378  0  0  0.15915  0  1.031807  0  0  0.162134  0  1.030131  0  0  0.098963  0.157163  0  1.032448  0
H  H20  1  0.78922434  0.68397088  0.04108542  1  0  0.138049  0  0.951614  0  0  0.158948  0  1.013042  0  0  0.160544  0  1.012812  0  0  0.103713  0.157817  0  1.013057  0
H  H21  1  0.71076167  0.31603649  0.54107695  1  0  0.138145  0  0.951532  0  0  0.159038  0  1.012957  0  0  0.160633  0  1.012725  0  0  0.103757  0.157905  0  1.012975  0
H  H22  1  0.21075892  0.31602988  0.95891906  1  0  0.138075  0  0.95169  0  0  0.158954  0  1.013108  0  0  0.16056  0  1.012867  0  0  0.103715  0.157825  0  1.01312  0
H  H23  1  0.28924727  0.68397237  0.45892052  1  0  0.138133  0  0.95161  0  0  0.159035  0  1.013006  0  0  0.160632  0  1.012773  0  0  0.10376  0.15791  0  1.013012  0
H  H24  1  0.52586618  0.00704619  0.32037200  1  0  0.462977  0  0.817806  0  0  0.435184  0  0.873769  0  0  0.446331  0  0.857573  0  0  0.312293  0.427459  0  0.885094  0
H  H25  1  0.97412970  0.99295282  0.82037073  1  0  0.463005  0  0.817779  0  0  0.435201  0  0.87376  0  0  0.446349  0  0.857563  0  0  0.312318  0.427478  0  0.885085  0
H  H26  1  0.47413152  0.99295965  0.67963528  1  0  0.462842  0  0.817975  0  0  0.435026  0  0.87398  0  0  0.446181  0  0.857773  0  0  0.312241  0.427301  0  0.885307  0
H  H27  1  0.02586210  0.00704158  0.17963164  1  0  0.462904  0  0.817924  0  0  0.435112  0  0.873877  0  0  0.446261  0  0.85768  0  0  0.312274  0.427388  0  0.885201  0
H  H28  1  0.72071025  0.10769516  0.30887284  1  0  0.426021  0  0.877484  0  0  0.393962  0  0.943963  0  0  0.404286  0  0.929232  0  0  0.305173  0.386204  0  0.955403  0
H  H29  1  0.77928520  0.89230699  0.80887215  1  0  0.426055  0  0.877438  0  0  0.393999  0  0.943915  0  0  0.404322  0  0.929186  0  0  0.305179  0.386241  0  0.955354  0
H  H30  1  0.27928973  0.89230961  0.69112674  1  0  0.426088  0  0.877382  0  0  0.39403  0  0.943864  0  0  0.404355  0  0.929132  0  0  0.305216  0.386269  0  0.955311  0
H  H31  1  0.22070621  0.10769055  0.19112323  1  0  0.426082  0  0.877395  0  0  0.394022  0  0.943869  0  0  0.404345  0  0.929138  0  0  0.305205  0.386263  0  0.955309  0
C  C32  1  0.43324250  0.30628633  0.25977216  1  0  0.729761  0  3.884054  0  0  0.681369  0  4.174036  0  0  0.718061  0  4.166112  0  0  0.231553  0.656654  0  4.181205  0
C  C33  1  0.06676760  0.69370848  0.75977203  1  0  0.729677  0  3.884317  0  0  0.681234  0  4.17436  0  0  0.717926  0  4.166441  0  0  0.23144  0.65652  0  4.18153  0
C  C34  1  0.56675240  0.69371431  0.74023092  1  0  0.729865  0  3.883842  0  0  0.681423  0  4.17389  0  0  0.718117  0  4.165966  0  0  0.231591  0.656719  0  4.181048  0
C  C35  1  0.93324458  0.30628466  0.24022755  1  0  0.729833  0  3.88393  0  0  0.681361  0  4.174027  0  0  0.718071  0  4.166075  0  0  0.231562  0.656647  0  4.181196  0
C  C36  1  0.55345108  0.44344212  0.26978117  1  0  -0.165752  0  3.711226  0  0  -0.147651  0  3.976795  0  0  -0.155737  0  3.996833  0  0  -0.02235  -0.142068  0  3.962294  0
C  C37  1  0.94656247  0.55655564  0.76978196  1  0  -0.165847  0  3.711288  0  0  -0.147739  0  3.976874  0  0  -0.155827  0  3.996914  0  0  -0.02238  -0.142157  0  3.962375  0
C  C38  1  0.44656101  0.55655520  0.73021840  1  0  -0.165912  0  3.711495  0  0  -0.147782  0  3.977065  0  0  -0.15587  0  3.997104  0  0  -0.022378  -0.14221  0  3.962578  0
C  C39  1  0.05345031  0.44343959  0.23021691  1  0  -0.165866  0  3.711119  0  0  -0.147728  0  3.976693  0  0  -0.155821  0  3.996727  0  0  -0.022394  -0.142148  0  3.962203  0
C  C40  1  0.64734899  0.52756447  0.20064516  1  0  -0.070487  0  3.740577  0  0  -0.106146  0  4.013541  0  0  -0.104704  0  4.031256  0  0  -0.089643  -0.106977  0  4.001154  0
C  C41  1  0.85265734  0.47243125  0.70064869  1  0  -0.070437  0  3.740454  0  0  -0.106072  0  4.013379  0  0  -0.104628  0  4.031094  0  0  -0.089632  -0.106899  0  4.000983  0
C  C42  1  0.35265992  0.47243080  0.79935372  1  0  -0.070385  0  3.740393  0  0  -0.106047  0  4.01331  0  0  -0.1046  0  4.031019  0  0  -0.089586  -0.106879  0  4.000928  0
C  C43  1  0.14734799  0.52756510  0.29935158  1  0  -0.070493  0  3.740488  0  0  -0.106135  0  4.013412  0  0  -0.104691  0  4.031125  0  0  -0.089628  -0.106966  0  4.001027  0
C  C44  1  0.74606772  0.65404396  0.23667862  1  0  -0.064928  0  3.71959  0  0  -0.097124  0  3.986271  0  0  -0.097105  0  4.005133  0  0  -0.088477  -0.096628  0  3.972689  0
C  C45  1  0.75393133  0.34594872  0.73668208  1  0  -0.064827  0  3.719515  0  0  -0.09703  0  3.986189  0  0  -0.097013  0  4.005046  0  0  -0.088417  -0.096538  0  3.972616  0
C  C46  1  0.25394028  0.34594818  0.76331886  1  0  -0.064882  0  3.719538  0  0  -0.097042  0  3.986228  0  0  -0.097025  0  4.005085  0  0  -0.088442  -0.096543  0  3.97265  0
C  C47  1  0.24606913  0.65404873  0.26331819  1  0  -0.06489  0  3.71961  0  0  -0.097094  0  3.986293  0  0  -0.097075  0  4.005148  0  0  -0.088476  -0.096595  0  3.972717  0
C  C48  1  0.72836965  0.66403836  0.33296047  1  0  -0.143324  0  3.677879  0  0  -0.124877  0  3.939926  0  0  -0.130863  0  3.957485  0  0  -0.016788  -0.120697  0  3.927032  0
C  C49  1  0.77163918  0.33596053  0.83296114  1  0  -0.143259  0  3.677627  0  0  -0.124793  0  3.939732  0  0  -0.130779  0  3.957287  0  0  -0.016764  -0.120614  0  3.92684  0
C  C50  1  0.27163955  0.33595795  0.66703911  1  0  -0.143275  0  3.677526  0  0  -0.12484  0  3.939655  0  0  -0.130827  0  3.957209  0  0  -0.016828  -0.12066  0  3.926751  0
C  C51  1  0.22836615  0.66403582  0.16703983  1  0  -0.143282  0  3.677707  0  0  -0.124844  0  3.939816  0  0  -0.130831  0  3.957375  0  0  -0.016749  -0.120668  0  3.926927  0
C  C52  1  0.82034463  0.77911071  0.39373741  1  0  0.728005  0  3.887034  0  0  0.683431  0  4.175635  0  0  0.720057  0  4.166343  0  0  0.229207  0.659056  0  4.183593  0
C  C53  1  0.67965112  0.22088729  0.89373943  1  0  0.728003  0  3.886767  0  0  0.683315  0  4.175589  0  0  0.719949  0  4.166286  0  0  0.22917  0.658943  0  4.183541  0
C  C54  1  0.17966290  0.22088876  0.60625726  1  0  0.728358  0  3.886293  0  0  0.683695  0  4.175058  0  0  0.720331  0  4.165745  0  0  0.229333  0.659329  0  4.183007  0
C  C55  1  0.32033413  0.77911136  0.10625875  1  0  0.728203  0  3.886753  0  0  0.683573  0  4.175465  0  0  0.720204  0  4.166163  0  0  0.229272  0.659199  0  4.183424  0
C  C56  1  0.77812047  0.89638491  0.03104565  1  0  0.810482  0  3.772938  0  0  0.771781  0  4.059145  0  0  0.806251  0  4.05474  0  0  0.225249  0.748023  0  4.066078  0
C  C57  1  0.72187684  0.10362130  0.53104698  1  0  0.810446  0  3.772961  0  0  0.771842  0  4.059062  0  0  0.806311  0  4.054657  0  0  0.225334  0.748081  0  4.065993  0
C  C58  1  0.22186438  0.10361689  0.96895253  1  0  0.810343  0  3.773091  0  0  0.771739  0  4.059169  0  0  0.806205  0  4.054772  0  0  0.225217  0.747977  0  4.066107  0
C  C59  1  0.27813696  0.89638647  0.46895609  1  0  0.810479  0  3.772739  0  0  0.771803  0  4.058931  0  0  0.80627  0  4.054527  0  0  0.225246  0.748038  0  4.065878  0
C  C60  1  0.85088169  0.77516984  0.99892016  1  0  -0.467003  0  3.631398  0  0  -0.545116  0  3.864902  0  0  -0.551534  0  3.864589  0  0  -0.244513  -0.539877  0  3.863678  0
C  C61  1  0.64911192  0.22483345  0.49891661  1  0  -0.46713  0  3.631599  0  0  -0.545277  0  3.865005  0  0  -0.551695  0  3.864701  0  0  -0.244589  -0.540035  0  3.863782  0
C  C62  1  0.14910675  0.22483087  0.00108362  1  0  -0.467071  0  3.631724  0  0  -0.545111  0  3.865083  0  0  -0.551568  0  3.864797  0  0  -0.244475  -0.539871  0  3.863853  0
C  C63  1  0.35089900  0.77517330  0.50108576  1  0  -0.467139  0  3.631601  0  0  -0.545172  0  3.865011  0  0  -0.551619  0  3.864748  0  0  -0.244508  -0.539933  0  3.863779  0
S  S64  1  0.58746860  0.52009452  0.37867523  1  0  0.197413  0  2.641493  0  0  0.197307  0  2.96532  0  0  0.197351  0  2.973685  0  0  0.128558  0.197416  0  2.959127  0
S  S65  1  0.91254529  0.47989910  0.87867600  1  0  0.197399  0  2.641451  0  0  0.197292  0  2.965287  0  0  0.197332  0  2.973652  0  0  0.128577  0.197404  0  2.959093  0
S  S66  1  0.41254409  0.47990489  0.62132435  1  0  0.19746  0  2.641542  0  0  0.197359  0  2.965367  0  0  0.197403  0  2.973733  0  0  0.128633  0.197471  0  2.959174  0
S  S67  1  0.08746909  0.52009715  0.12132148  1  0  0.197455  0  2.641365  0  0  0.197351  0  2.965194  0  0  0.197393  0  2.97356  0  0  0.128608  0.197462  0  2.959007  0
O  O68  1  0.42984600  0.24113405  0.18116052  1  0  -0.767192  0  2.044727  0  0  -0.70514  0  2.292942  0  0  -0.740875  0  2.277554  0  0  -0.399149  -0.686967  0  2.301535  0
O  O69  1  0.07015358  0.75886084  0.68115970  1  0  -0.767134  0  2.044574  0  0  -0.705064  0  2.292808  0  0  -0.740802  0  2.277418  0  0  -0.3991  -0.686894  0  2.301416  0
O  O70  1  0.57013856  0.75886670  0.81884045  1  0  -0.767221  0  2.04467  0  0  -0.705142  0  2.292907  0  0  -0.740889  0  2.277526  0  0  -0.399193  -0.686971  0  2.301496  0
O  O71  1  0.92985602  0.24113233  0.31883708  1  0  -0.767134  0  2.044668  0  0  -0.705048  0  2.292906  0  0  -0.740792  0  2.277515  0  0  -0.399107  -0.686884  0  2.301515  0
O  O72  1  0.33758868  0.25946047  0.32964594  1  0  -0.721138  0  2.05419  0  0  -0.671893  0  2.319506  0  0  -0.706216  0  2.305184  0  0  -0.397422  -0.654583  0  2.326465  0
O  O73  1  0.16241968  0.74053230  0.82964238  1  0  -0.721027  0  2.05439  0  0  -0.671727  0  2.319669  0  0  -0.706058  0  2.305349  0  0  -0.397297  -0.654418  0  2.326632  0
O  O74  1  0.66241130  0.74054430  0.67035503  1  0  -0.721202  0  2.053996  0  0  -0.671926  0  2.319299  0  0  -0.70625  0  2.304969  0  0  -0.397459  -0.654618  0  2.326257  0
O  O75  1  0.83758573  0.25945987  0.17035370  1  0  -0.721187  0  2.054092  0  0  -0.671911  0  2.319421  0  0  -0.706237  0  2.305083  0  0  -0.397462  -0.654601  0  2.326383  0
O  O76  1  0.92072355  0.88097028  0.35256269  1  0  -0.709544  0  2.03714  0  0  -0.657178  0  2.288075  0  0  -0.692044  0  2.275101  0  0  -0.397692  -0.639454  0  2.294523  0
O  O77  1  0.57927399  0.11902978  0.85256394  1  0  -0.709546  0  2.037169  0  0  -0.657134  0  2.288165  0  0  -0.692008  0  2.275194  0  0  -0.397667  -0.639414  0  2.294612  0
O  O78  1  0.07927880  0.11902924  0.64743198  1  0  -0.709821  0  2.036928  0  0  -0.657383  0  2.287854  0  0  -0.692254  0  2.274869  0  0  -0.397779  -0.639665  0  2.294308  0
O  O79  1  0.42071823  0.88097507  0.14743214  1  0  -0.709757  0  2.037011  0  0  -0.65736  0  2.287957  0  0  -0.692227  0  2.274977  0  0  -0.397763  -0.639634  0  2.294406  0
O  O80  1  0.79294332  0.76711808  0.48201432  1  0  -0.742618  0  2.006594  0  0  -0.696951  0  2.261183  0  0  -0.729843  0  2.244525  0  0  -0.397784  -0.680688  0  2.27016  0
O  O81  1  0.70705184  0.23288623  0.98201775  1  0  -0.742667  0  2.006535  0  0  -0.69696  0  2.261173  0  0  -0.729852  0  2.244509  0  0  -0.397821  -0.680697  0  2.270147  0
O  O82  1  0.20705985  0.23288875  0.51798315  1  0  -0.742696  0  2.006505  0  0  -0.697013  0  2.261161  0  0  -0.729908  0  2.244501  0  0  -0.397801  -0.680754  0  2.270138  0
O  O83  1  0.29293271  0.76711451  0.01798532  1  0  -0.742643  0  2.006718  0  0  -0.696959  0  2.261349  0  0  -0.729854  0  2.244686  0  0  -0.397796  -0.680695  0  2.270324  0
O  O84  1  0.83910550  0.96732168  0.10324411  1  0  -0.709018  0  1.946692  0  0  -0.649039  0  2.173484  0  0  -0.681793  0  2.161521  0  0  -0.354474  -0.631289  0  2.180427  0
O  O85  1  0.66089547  0.03268765  0.60324540  1  0  -0.708947  0  1.946728  0  0  -0.649029  0  2.173499  0  0  -0.681786  0  2.161534  0  0  -0.354477  -0.631265  0  2.180435  0
O  O86  1  0.16087996  0.03268220  0.89675546  1  0  -0.708947  0  1.946866  0  0  -0.649011  0  2.173658  0  0  -0.681761  0  2.161686  0  0  -0.35443  -0.63126  0  2.180606  0
O  O87  1  0.33912191  0.96731903  0.39675767  1  0  -0.709014  0  1.946774  0  0  -0.649059  0  2.173594  0  0  -0.681811  0  2.161632  0  0  -0.354449  -0.631301  0  2.180538  0
O  O88  1  0.64684450  0.92878601  0.98755387  1  0  -0.84995  0  2.167503  0  0  -0.787677  0  2.421586  0  0  -0.830728  0  2.409891  0  0  -0.441453  -0.768728  0  2.42781  0
O  O89  1  0.85315705  0.07122242  0.48755744  1  0  -0.849919  0  2.16751  0  0  -0.787672  0  2.421536  0  0  -0.830719  0  2.409841  0  0  -0.441475  -0.768724  0  2.427763  0
O  O90  1  0.35314484  0.07121782  0.01244430  1  0  -0.849842  0  2.167473  0  0  -0.787613  0  2.421517  0  0  -0.830658  0  2.409826  0  0  -0.441469  -0.768658  0  2.427736  0
O  O91  1  0.14685736  0.92878743  0.51244914  1  0  -0.849889  0  2.16722  0  0  -0.787649  0  2.421339  0  0  -0.830692  0  2.40964  0  0  -0.441474  -0.768701  0  2.427575  0
O  O92  1  0.62145175  0.04684808  0.27584368  1  0  -0.917402  0  1.878532  0  0  -0.871112  0  2.078566  0  0  -0.897558  0  2.040427  0  0  -0.644904  -0.858591  0  2.102088  0
O  O93  1  0.87854234  0.95315407  0.77584376  1  0  -0.91742  0  1.878437  0  0  -0.871131  0  2.078468  0  0  -0.897574  0  2.040317  0  0  -0.644921  -0.858606  0  2.101991  0
O  O94  1  0.37853849  0.95315888  0.72415799  1  0  -0.917324  0  1.878598  0  0  -0.87102  0  2.078635  0  0  -0.897472  0  2.040473  0  0  -0.644893  -0.858492  0  2.102158  0
O  O95  1  0.12145653  0.04684235  0.22415442  1  0  -0.917393  0  1.878543  0  0  -0.871094  0  2.078614  0  0  -0.897544  0  2.040474  0  0  -0.64492  -0.858571  0  2.102138  0
