# generated using pymatgen
data_ZnH6(C3N2)2
_symmetry_space_group_name_H-M   'P 1'
_cell_length_a   9.34919352
_cell_length_b   10.41373640
_cell_length_c   12.81009844
_cell_angle_alpha   80.56677962
_cell_angle_beta   68.59742489
_cell_angle_gamma   63.33235006
_symmetry_Int_Tables_number   1
_chemical_formula_structural   ZnH6(C3N2)2
_chemical_formula_sum   'Zn4 H24 C24 N16'
_cell_volume   1037.66349798
_cell_formula_units_Z   4
loop_
 _symmetry_equiv_pos_site_id
 _symmetry_equiv_pos_as_xyz
  1  'x, y, z'
loop_
 _atom_site_type_symbol
 _atom_site_label
 _atom_site_symmetry_multiplicity
 _atom_site_fract_x
 _atom_site_fract_y
 _atom_site_fract_z
 _atom_site_occupancy
 _atom_site_pbe_bader_spin_density
 _atom_site_pbe_cm5_charge
 _atom_site_pbe_ddec_charge
 _atom_site_pbe_ddec_spin_density
 _atom_site_pbe_ddec_sum_bond_order
 _atom_site_pbe_magmom
Zn  Zn0  1  0.56188987  0.09213864  0.37034346  1  0  0.714775  0.622614  0  2.568901  0
Zn  Zn1  1  0.02434186  0.90785661  0.62964714  1  0  0.71484  0.622276  0  2.567565  0
Zn  Zn2  1  0.40401368  0.40788983  0.87034943  1  0  0.715271  0.622483  0  2.567918  0
Zn  Zn3  1  0.68225751  0.59210876  0.12964519  1  0  0.714888  0.623223  0  2.568791  0
H  H4  1  0.69899215  0.99689102  0.57304629  1  0  0.118673  0.072805  0  1.057046  0
H  H5  1  0.26890126  0.00313066  0.42691199  1  0  0.11821  0.072443  0  1.057627  0
H  H6  1  0.44583984  0.50322820  0.07301034  1  0  0.118543  0.072825  0  1.056879  0
H  H7  1  0.02208037  0.49689007  0.92696783  1  0  0.118602  0.073174  0  1.056232  0
H  H8  1  0.19650663  0.87700492  0.34705879  1  0  0.108026  0.097478  0  1.045003  0
H  H9  1  0.42056925  0.12297763  0.65291624  1  0  0.107517  0.096929  0  1.044086  0
H  H10  1  0.82368196  0.62291909  0.84700462  1  0  0.107939  0.097152  0  1.044313  0
H  H11  1  0.29356145  0.37702167  0.15299871  1  0  0.108219  0.098042  0  1.045267  0
H  H12  1  0.97482358  0.96083836  0.22747561  1  0  0.112257  0.103617  0  1.009759  0
H  H13  1  0.16312771  0.03911830  0.77248665  1  0  0.111864  0.103307  0  1.010311  0
H  H14  1  0.68574555  0.53914598  0.72743380  1  0  0.111926  0.103527  0  1.010293  0
H  H15  1  0.95229319  0.46080543  0.27254507  1  0  0.112123  0.103471  0  1.0095  0
H  H16  1  0.74476589  0.77500163  0.27083235  1  0  0.123076  0.080582  0  1.01227  0
H  H17  1  0.79060046  0.22498640  0.72917269  1  0  0.122805  0.080283  0  1.012458  0
H  H18  1  0.26966749  0.72498338  0.77076296  1  0  0.12275  0.079398  0  1.013379  0
H  H19  1  0.76533156  0.27509693  0.22918157  1  0  0.122612  0.079826  0  1.011847  0
H  H20  1  0.40022812  0.90914556  0.09367197  1  0  0.112469  0.105041  0  1.006854  0
H  H21  1  0.40308946  0.09079197  0.90642766  1  0  0.112239  0.105054  0  1.007048  0
H  H22  1  0.05932867  0.59075992  0.59362506  1  0  0.112711  0.105595  0  1.005632  0
H  H23  1  0.24369040  0.40919682  0.40642889  1  0  0.112634  0.105098  0  1.007107  0
H  H24  1  0.35195283  0.14464706  0.19903290  1  0  0.105236  0.09391  0  1.055181  0
H  H25  1  0.69560198  0.85532630  0.80098065  1  0  0.10508  0.093217  0  1.056412  0
H  H26  1  0.24651808  0.35526901  0.69905156  1  0  0.105374  0.093864  0  1.05556  0
H  H27  1  0.30075666  0.64473109  0.30098383  1  0  0.105402  0.093451  0  1.055879  0
C  C28  1  0.80418181  0.97547867  0.49496337  1  0  0.110251  0.130825  0  4.008312  0
C  C29  1  0.27460189  0.02453251  0.50499883  1  0  0.110224  0.130818  0  4.00926  0
C  C30  1  0.52965497  0.52461256  0.99492585  1  0  0.109713  0.129352  0  4.009052  0
C  C31  1  0.04917998  0.47546620  0.00505663  1  0  0.109077  0.128968  0  4.010358  0
C  C32  1  0.05995211  0.91368083  0.37714103  1  0  -0.022952  -0.06412  0  4.050163  0
C  C33  1  0.35076367  0.08631258  0.62282934  1  0  -0.023074  -0.063948  0  4.047525  0
C  C34  1  0.72374668  0.58629371  0.87709089  1  0  -0.022601  -0.063591  0  4.047239  0
C  C35  1  0.18709974  0.41368156  0.12290299  1  0  -0.023158  -0.065017  0  4.049419  0
C  C36  1  0.94966076  0.95616616  0.31730573  1  0  -0.025455  -0.06945  0  4.048354  0
C  C37  1  0.22311605  0.04382417  0.68265153  1  0  -0.024522  -0.068486  0  4.049489  0
C  C38  1  0.65589637  0.54384518  0.81726931  1  0  -0.025605  -0.070212  0  4.046601  0
C  C39  1  0.01698615  0.45613106  0.18271529  1  0  -0.024131  -0.067405  0  4.047371  0
C  C40  1  0.64371568  0.84376246  0.23723830  1  0  0.112626  0.129587  0  4.013548  0
C  C41  1  0.72471942  0.15622086  0.76279864  1  0  0.112216  0.128804  0  4.016512  0
C  C42  1  0.23737298  0.65619708  0.73719990  1  0  0.113103  0.130807  0  4.012168  0
C  C43  1  0.63069212  0.34384950  0.26277881  1  0  0.112483  0.129881  0  4.016735  0
C  C44  1  0.46363801  0.91585635  0.14719356  1  0  -0.020851  -0.058152  0  4.042629  0
C  C45  1  0.52672122  0.08408457  0.85289050  1  0  -0.021378  -0.060417  0  4.04156  0
C  C46  1  0.12942800  0.58404923  0.64716552  1  0  -0.021155  -0.05973  0  4.039214  0
C  C47  1  0.36059716  0.41594529  0.35285560  1  0  -0.02126  -0.059955  0  4.04158  0
C  C48  1  0.44088454  0.03296211  0.19887437  1  0  -0.023921  -0.062333  0  4.037966  0
C  C49  1  0.67271535  0.96700214  0.80116479  1  0  -0.023346  -0.059648  0  4.033562  0
C  C50  1  0.22374766  0.46698141  0.69887307  1  0  -0.024225  -0.062369  0  4.035921  0
C  C51  1  0.38952500  0.53303859  0.30113896  1  0  -0.023637  -0.060158  0  4.035129  0
N  N52  1  0.78727389  0.99515465  0.39290624  1  0  -0.381713  -0.294089  0  3.627132  0
N  N53  1  0.17531508  0.00485499  0.60705228  1  0  -0.381483  -0.293403  0  3.629281  0
N  N54  1  0.53240380  0.50494929  0.89287994  1  0  -0.380733  -0.29156  0  3.627119  0
N  N55  1  0.93020876  0.49510775  0.10710288  1  0  -0.381985  -0.294581  0  3.630113  0
N  N56  1  0.96648441  0.92616689  0.49004004  1  0  -0.379021  -0.29117  0  3.605556  0
N  N57  1  0.38268253  0.07384035  0.50993178  1  0  -0.37952  -0.292759  0  3.608167  0
N  N58  1  0.64273521  0.57384823  0.98999840  1  0  -0.380012  -0.292334  0  3.604589  0
N  N59  1  0.20655232  0.42618362  0.00999292  1  0  -0.379488  -0.291664  0  3.607945  0
N  N60  1  0.55588736  0.98631406  0.25580062  1  0  -0.381526  -0.30023  0  3.629389  0
N  N61  1  0.79799048  0.01367834  0.74419934  1  0  -0.381395  -0.300553  0  3.626236  0
N  N62  1  0.29206836  0.51364473  0.75582237  1  0  -0.381562  -0.300016  0  3.627952  0
N  N63  1  0.56145463  0.48639696  0.24415951  1  0  -0.381254  -0.300996  0  3.6292  0
N  N64  1  0.59251846  0.79618594  0.17197723  1  0  -0.381536  -0.296431  0  3.640244  0
N  N65  1  0.56071727  0.20377994  0.82811257  1  0  -0.380596  -0.294579  0  3.639943  0
N  N66  1  0.13862369  0.70375192  0.67192878  1  0  -0.38141  -0.295375  0  3.637383  0
N  N67  1  0.51425553  0.29626648  0.32807279  1  0  -0.381249  -0.294995  0  3.640427  0
