# generated using pymatgen
data_CuH4C6S5IO
_symmetry_space_group_name_H-M   'P 1'
_cell_length_a   4.34898723
_cell_length_b   12.68777172
_cell_length_c   20.57037446
_cell_angle_alpha   89.99983377
_cell_angle_beta   89.99996534
_cell_angle_gamma   89.99981117
_symmetry_Int_Tables_number   1
_chemical_formula_structural   CuH4C6S5IO
_chemical_formula_sum   'Cu4 H16 C24 S20 I4 O4'
_cell_volume   1135.05181149
_cell_formula_units_Z   4
loop_
 _symmetry_equiv_pos_site_id
 _symmetry_equiv_pos_as_xyz
  1  'x, y, z'
loop_
 _atom_site_type_symbol
 _atom_site_label
 _atom_site_symmetry_multiplicity
 _atom_site_fract_x
 _atom_site_fract_y
 _atom_site_fract_z
 _atom_site_occupancy
 _atom_site_hle17_bader_spin_density
 _atom_site_hle17_ddec_charge
 _atom_site_hle17_ddec_spin_density
 _atom_site_hle17_ddec_sum_bond_order
 _atom_site_hle17_magmom
 _atom_site_hse06_10hf_bader_spin_density
 _atom_site_hse06_10hf_ddec_charge
 _atom_site_hse06_10hf_ddec_spin_density
 _atom_site_hse06_10hf_ddec_sum_bond_order
 _atom_site_hse06_10hf_magmom
 _atom_site_hse06_bader_spin_density
 _atom_site_hse06_ddec_charge
 _atom_site_hse06_ddec_spin_density
 _atom_site_hse06_ddec_sum_bond_order
 _atom_site_hse06_magmom
 _atom_site_pbe_bader_spin_density
 _atom_site_pbe_cm5_charge
 _atom_site_pbe_ddec_charge
 _atom_site_pbe_ddec_spin_density
 _atom_site_pbe_ddec_sum_bond_order
 _atom_site_pbe_magmom
Cu  Cu0  1  0.65151765  0.06424975  0.98084982  1  0  0.220637  0  2.283121  0  0  0.164372  0  2.765148  0  0  0.175784  0  2.711004  0  0  0.187304  0.157945  0  2.801624  0
Cu  Cu1  1  0.15148827  0.93574495  0.01915339  1  0  0.220556  0  2.283263  0  0  0.164307  0  2.765262  0  0  0.175653  0  2.71112  0  0  0.187269  0.157881  0  2.801728  0
Cu  Cu2  1  0.65151830  0.56424879  0.51914800  1  0  0.220558  0  2.283207  0  0  0.164289  0  2.76525  0  0  0.175711  0  2.711102  0  0  0.187287  0.15785  0  2.801746  0
Cu  Cu3  1  0.15148762  0.43574433  0.48084549  1  0  0.220575  0  2.283197  0  0  0.164326  0  2.765208  0  0  0.175666  0  2.711068  0  0  0.187282  0.157893  0  2.801683  0
H  H4  1  0.38174321  0.93251191  0.63912314  1  0  0.122052  0  0.96659  0  0  0.126753  0  1.041327  0  0  0.129488  0  1.040341  0  0  0.092877  0.124734  0  1.042222  0
H  H5  1  0.88173313  0.06749041  0.36087519  1  0  0.122043  0  0.966636  0  0  0.126736  0  1.041391  0  0  0.129473  0  1.040401  0  0  0.092877  0.124713  0  1.042287  0
H  H6  1  0.38175674  0.43251028  0.86087453  1  0  0.122049  0  0.966786  0  0  0.126781  0  1.041537  0  0  0.129519  0  1.040551  0  0  0.092895  0.12476  0  1.042429  0
H  H7  1  0.88175180  0.56749283  0.13912330  1  0  0.122067  0  0.966514  0  0  0.126739  0  1.041305  0  0  0.129472  0  1.040319  0  0  0.092858  0.124716  0  1.042199  0
H  H8  1  0.42071950  0.10955663  0.58537182  1  0  0.134956  0  0.957697  0  0  0.140746  0  1.027206  0  0  0.143553  0  1.026431  0  0  0.098808  0.138668  0  1.027893  0
H  H9  1  0.92073822  0.89044564  0.41463380  1  0  0.134896  0  0.957704  0  0  0.140737  0  1.027146  0  0  0.143543  0  1.026391  0  0  0.09886  0.138678  0  1.027809  0
H  H10  1  0.42074420  0.60956328  0.91462497  1  0  0.134939  0  0.957597  0  0  0.14075  0  1.027064  0  0  0.143554  0  1.026333  0  0  0.098844  0.138687  0  1.027739  0
H  H11  1  0.92073652  0.39044845  0.08536897  1  0  0.134924  0  0.957833  0  0  0.140788  0  1.027238  0  0  0.143591  0  1.026482  0  0  0.098894  0.138732  0  1.027896  0
H  H12  1  0.09834082  0.16015998  0.54049755  1  0  0.145888  0  0.913447  0  0  0.158932  0  0.970898  0  0  0.162086  0  0.968849  0  0  0.106006  0.156533  0  0.972599  0
H  H13  1  0.59835989  0.83984267  0.45950908  1  0  0.145919  0  0.913355  0  0  0.158956  0  0.970825  0  0  0.1621  0  0.968786  0  0  0.106025  0.156562  0  0.972523  0
H  H14  1  0.09835848  0.66016248  0.95950016  1  0  0.145943  0  0.913448  0  0  0.158969  0  0.970903  0  0  0.162125  0  0.968858  0  0  0.106013  0.15658  0  0.972595  0
H  H15  1  0.59837212  0.33984490  0.04049333  1  0  0.145938  0  0.913346  0  0  0.15897  0  0.970839  0  0  0.162118  0  0.968786  0  0  0.105994  0.156573  0  0.972547  0
H  H16  1  0.06702210  0.84885995  0.61403910  1  0  0.132989  0  0.948932  0  0  0.14459  0  1.012333  0  0  0.146851  0  1.011933  0  0  0.098203  0.142923  0  1.012739  0
H  H17  1  0.56701804  0.15114036  0.38596218  1  0  0.132969  0  0.948994  0  0  0.144598  0  1.012384  0  0  0.14686  0  1.011982  0  0  0.098193  0.14293  0  1.012787  0
H  H18  1  0.06704474  0.34886135  0.88596265  1  0  0.132984  0  0.948905  0  0  0.144619  0  1.012318  0  0  0.146883  0  1.011916  0  0  0.098204  0.14295  0  1.012723  0
H  H19  1  0.56701150  0.65114211  0.11403863  1  0  0.133021  0  0.94892  0  0  0.144654  0  1.012296  0  0  0.146913  0  1.011894  0  0  0.098211  0.142986  0  1.012702  0
C  C20  1  0.48993049  0.13738754  0.83128710  1  0  -0.015579  0  3.747574  0  0  -0.004496  0  4.051999  0  0  0.009044  0  4.068736  0  0  0.001544  -0.01296  0  4.03995  0
C  C21  1  0.98991347  0.86261229  0.16871753  1  0  -0.01539  0  3.74741  0  0  -0.004317  0  4.051836  0  0  0.009221  0  4.068573  0  0  0.001611  -0.012783  0  4.039789  0
C  C22  1  0.48991688  0.63738667  0.66871012  1  0  -0.015458  0  3.747427  0  0  -0.004402  0  4.051898  0  0  0.009138  0  4.068636  0  0  0.001579  -0.012871  0  4.039857  0
C  C23  1  0.98992708  0.36260764  0.33128479  1  0  -0.01544  0  3.747523  0  0  -0.004338  0  4.051926  0  0  0.009199  0  4.068662  0  0  0.001618  -0.012807  0  4.039886  0
C  C24  1  0.14819635  0.04164221  0.74563976  1  0  -0.089076  0  3.815399  0  0  -0.077756  0  4.104187  0  0  -0.076745  0  4.124289  0  0  -0.029894  -0.0784  0  4.090399  0
C  C25  1  0.64818734  0.95835802  0.25436394  1  0  -0.088966  0  3.815415  0  0  -0.077626  0  4.104071  0  0  -0.076612  0  4.12417  0  0  -0.02991  -0.078268  0  4.090285  0
C  C26  1  0.14819166  0.54164488  0.75436059  1  0  -0.089006  0  3.815512  0  0  -0.077641  0  4.104213  0  0  -0.07663  0  4.124313  0  0  -0.029845  -0.078285  0  4.090431  0
C  C27  1  0.64820122  0.45835141  0.24563582  1  0  -0.088925  0  3.815327  0  0  -0.077538  0  4.104015  0  0  -0.076525  0  4.124117  0  0  -0.029848  -0.078181  0  4.090229  0
C  C28  1  0.19988612  0.13973275  0.71995807  1  0  -0.089777  0  3.823223  0  0  -0.07809  0  4.111735  0  0  -0.076321  0  4.131043  0  0  -0.030717  -0.07931  0  4.098499  0
C  C29  1  0.69988026  0.86027215  0.28004708  1  0  -0.090185  0  3.823604  0  0  -0.078287  0  4.111669  0  0  -0.076518  0  4.130966  0  0  -0.030746  -0.079509  0  4.098438  0
C  C30  1  0.19988365  0.63973293  0.78004015  1  0  -0.08992  0  3.823489  0  0  -0.078247  0  4.112008  0  0  -0.076477  0  4.13131  0  0  -0.030799  -0.079469  0  4.098779  0
C  C31  1  0.69988963  0.36026329  0.21995480  1  0  -0.090049  0  3.8234  0  0  -0.078291  0  4.111659  0  0  -0.076523  0  4.130964  0  0  -0.030787  -0.079514  0  4.09843  0
C  C32  1  0.13314054  0.92758449  0.63125310  1  0  -0.276179  0  3.589468  0  0  -0.308423  0  3.830929  0  0  -0.311526  0  3.83642  0  0  -0.154603  -0.306303  0  3.827477  0
C  C33  1  0.63313729  0.07241732  0.36874622  1  0  -0.276209  0  3.589433  0  0  -0.308514  0  3.830981  0  0  -0.311616  0  3.836463  0  0  -0.154669  -0.306388  0  3.827527  0
C  C34  1  0.13316554  0.42758282  0.86874655  1  0  -0.27608  0  3.589258  0  0  -0.308542  0  3.831015  0  0  -0.311652  0  3.836515  0  0  -0.154654  -0.30642  0  3.827556  0
C  C35  1  0.63313989  0.57241663  0.13125374  1  0  -0.276276  0  3.589545  0  0  -0.308558  0  3.831088  0  0  -0.31165  0  3.836555  0  0  -0.154658  -0.306431  0  3.827634  0
C  C36  1  0.01072337  0.01021791  0.58503018  1  0  0.51944  0  3.63446  0  0  0.501436  0  3.910601  0  0  0.522846  0  3.911469  0  0  0.160826  0.486654  0  3.91002  0
C  C37  1  0.51074574  0.98978247  0.41497402  1  0  0.519358  0  3.634178  0  0  0.501363  0  3.910337  0  0  0.522773  0  3.911184  0  0  0.160754  0.486569  0  3.90978  0
C  C38  1  0.01075266  0.51021904  0.91497024  1  0  0.51925  0  3.634644  0  0  0.501281  0  3.910797  0  0  0.5227  0  3.911661  0  0  0.160811  0.486502  0  3.910212  0
C  C39  1  0.51076243  0.48978685  0.08502958  1  0  0.519424  0  3.633992  0  0  0.501447  0  3.910145  0  0  0.522851  0  3.910997  0  0  0.160744  0.486653  0  3.909596  0
C  C40  1  0.16970241  0.11591566  0.58379383  1  0  -0.273035  0  3.583956  0  0  -0.306516  0  3.828783  0  0  -0.309797  0  3.834149  0  0  -0.153653  -0.304184  0  3.825422  0
C  C41  1  0.66972349  0.88409005  0.41621181  1  0  -0.272977  0  3.583694  0  0  -0.306564  0  3.828694  0  0  -0.309838  0  3.834036  0  0  -0.15368  -0.304243  0  3.825341  0
C  C42  1  0.16971331  0.61591679  0.91620347  1  0  -0.273037  0  3.583888  0  0  -0.306463  0  3.828612  0  0  -0.309781  0  3.834009  0  0  -0.153653  -0.304148  0  3.825261  0
C  C43  1  0.66973098  0.38408814  0.08379002  1  0  -0.273021  0  3.583744  0  0  -0.306672  0  3.828824  0  0  -0.309935  0  3.834162  0  0  -0.153648  -0.304355  0  3.825473  0
S  S44  1  0.69565857  0.17505819  0.89550951  1  0  -0.196143  0  2.451866  0  0  -0.19175  0  2.846963  0  0  -0.20187  0  2.837419  0  0  -0.174816  -0.185533  0  2.853151  0
S  S45  1  0.19564607  0.82493961  0.10449564  1  0  -0.19624  0  2.452063  0  0  -0.191863  0  2.847179  0  0  -0.201962  0  2.837613  0  0  -0.174851  -0.185647  0  2.853363  0
S  S46  1  0.69564516  0.67505762  0.60448859  1  0  -0.196149  0  2.451845  0  0  -0.191748  0  2.846953  0  0  -0.20187  0  2.837409  0  0  -0.174803  -0.185523  0  2.853148  0
S  S47  1  0.19564338  0.32493309  0.39550878  1  0  -0.196144  0  2.451972  0  0  -0.191785  0  2.847118  0  0  -0.201885  0  2.837553  0  0  -0.174814  -0.185561  0  2.853297  0
S  S48  1  0.31996738  0.01501708  0.82053583  1  0  0.179521  0  2.650335  0  0  0.172057  0  3.010899  0  0  0.174219  0  3.012873  0  0  0.10306  0.169222  0  3.010253  0
S  S49  1  0.81994686  0.98498373  0.17946785  1  0  0.179455  0  2.650313  0  0  0.171952  0  3.0109  0  0  0.174118  0  3.012872  0  0  0.103033  0.169117  0  3.010249  0
S  S50  1  0.31995833  0.51501459  0.67946406  1  0  0.17944  0  2.650309  0  0  0.171977  0  3.010857  0  0  0.174139  0  3.012833  0  0  0.10305  0.16915  0  3.010216  0
S  S51  1  0.81995131  0.48497519  0.32053330  1  0  0.179447  0  2.650468  0  0  0.171943  0  3.011013  0  0  0.174109  0  3.012983  0  0  0.103045  0.16911  0  3.010367  0
S  S52  1  0.43561411  0.22081530  0.76610542  1  0  0.165672  0  2.728379  0  0  0.157239  0  3.094149  0  0  0.157276  0  3.099329  0  0  0.102806  0.156524  0  3.090786  0
S  S53  1  0.93561376  0.77918617  0.23390068  1  0  0.16575  0  2.7281  0  0  0.157251  0  3.093788  0  0  0.15729  0  3.09897  0  0  0.102805  0.156537  0  3.090429  0
S  S54  1  0.43559799  0.72081728  0.73389117  1  0  0.165708  0  2.728268  0  0  0.157269  0  3.094067  0  0  0.157312  0  3.099239  0  0  0.102802  0.156562  0  3.090711  0
S  S55  1  0.93562528  0.27918025  0.26610326  1  0  0.165652  0  2.728213  0  0  0.157187  0  3.093957  0  0  0.157222  0  3.099139  0  0  0.10279  0.156473  0  3.090597  0
S  S56  1  0.03554194  0.19784249  0.65143959  1  0  0.052523  0  2.5379  0  0  0.048405  0  2.9095  0  0  0.044742  0  2.911288  0  0  0.002247  0.050841  0  2.908622  0
S  S57  1  0.53555251  0.80216259  0.34856558  1  0  0.052604  0  2.537848  0  0  0.048456  0  2.90938  0  0  0.044775  0  2.911197  0  0  0.002221  0.05089  0  2.908512  0
S  S58  1  0.03554155  0.69784551  0.84855806  1  0  0.052546  0  2.537811  0  0  0.04842  0  2.909391  0  0  0.044765  0  2.911193  0  0  0.00226  0.05086  0  2.908528  0
S  S59  1  0.53557129  0.30215247  0.15143447  1  0  0.052602  0  2.537707  0  0  0.048515  0  2.909315  0  0  0.044845  0  2.911093  0  0  0.002207  0.050954  0  2.908449  0
S  S60  1  0.93676884  0.94070909  0.70973095  1  0  0.042229  0  2.515678  0  0  0.0361  0  2.88497  0  0  0.031699  0  2.888006  0  0  0.013341  0.039473  0  2.882911  0
S  S61  1  0.43674922  0.05929317  0.29027125  1  0  0.042357  0  2.515625  0  0  0.036192  0  2.884972  0  0  0.031791  0  2.888006  0  0  0.013422  0.039577  0  2.882875  0
S  S62  1  0.93677338  0.44070778  0.79027004  1  0  0.042213  0  2.515487  0  0  0.036097  0  2.884899  0  0  0.031699  0  2.887937  0  0  0.013316  0.039473  0  2.882835  0
S  S63  1  0.43676537  0.55928738  0.20972973  1  0  0.042287  0  2.515692  0  0  0.036137  0  2.884971  0  0  0.031735  0  2.888001  0  0  0.013394  0.039511  0  2.882911  0
I  I64  1  0.65597700  0.86401751  0.95575378  1  0  -0.3246  0  1.861308  0  0  -0.277621  0  2.339478  0  0  -0.296932  0  2.298585  0  0  -0.173003  -0.263313  0  2.367805  0
I  I65  1  0.15598733  0.13597483  0.04425137  1  0  -0.324543  0  1.861237  0  0  -0.277526  0  2.339365  0  0  -0.296855  0  2.298488  0  0  -0.172974  -0.263213  0  2.367693  0
I  I66  1  0.65598002  0.36401893  0.54424787  1  0  -0.324594  0  1.861303  0  0  -0.277601  0  2.33947  0  0  -0.296918  0  2.29858  0  0  -0.173006  -0.263281  0  2.367796  0
I  I67  1  0.15598430  0.63597498  0.45574659  1  0  -0.324536  0  1.861262  0  0  -0.277539  0  2.339416  0  0  -0.296862  0  2.298538  0  0  -0.172987  -0.263214  0  2.367747  0
O  O68  1  0.77873434  0.99288340  0.55272600  1  0  -0.451527  0  1.931788  0  0  -0.405981  0  2.139808  0  0  -0.42436  0  2.137266  0  0  -0.25034  -0.393534  0  2.141546  0
O  O69  1  0.27874922  0.00711510  0.44727769  1  0  -0.451404  0  1.93153  0  0  -0.405842  0  2.139529  0  0  -0.424226  0  2.136989  0  0  -0.250256  -0.393397  0  2.141279  0
O  O70  1  0.77875679  0.49288609  0.94727298  1  0  -0.451412  0  1.931997  0  0  -0.405842  0  2.13996  0  0  -0.42422  0  2.137418  0  0  -0.250306  -0.393395  0  2.141699  0
O  O71  1  0.27873137  0.50711871  0.05272341  1  0  -0.451502  0  1.931238  0  0  -0.405956  0  2.139244  0  0  -0.424342  0  2.136711  0  0  -0.250274  -0.393504  0  2.140994  0
