# generated using pymatgen
data_ZnH6C17N3O4
_symmetry_space_group_name_H-M   'P 1'
_cell_length_a   9.65919710
_cell_length_b   10.97171461
_cell_length_c   15.34878638
_cell_angle_alpha   90.83769316
_cell_angle_beta   87.86654725
_cell_angle_gamma   89.87603252
_symmetry_Int_Tables_number   1
_chemical_formula_structural   ZnH6C17N3O4
_chemical_formula_sum   'Zn2 H12 C34 N6 O8'
_cell_volume   1625.32574117
_cell_formula_units_Z   2
loop_
 _symmetry_equiv_pos_site_id
 _symmetry_equiv_pos_as_xyz
  1  'x, y, z'
loop_
 _atom_site_type_symbol
 _atom_site_label
 _atom_site_symmetry_multiplicity
 _atom_site_fract_x
 _atom_site_fract_y
 _atom_site_fract_z
 _atom_site_occupancy
 _atom_site_pbe_bader_charge
 _atom_site_pbe_bader_spin_density
 _atom_site_pbe_cm5_charge
 _atom_site_pbe_ddec_charge
 _atom_site_pbe_ddec_spin_density
 _atom_site_pbe_ddec_sum_bond_order
 _atom_site_pbe_magmom
Zn  Zn0  1  0.35518508  0.49960380  0.50448509  1  1.291496  0  0.670906  0.813457  0  2.440252  0
Zn  Zn1  1  0.64481302  0.50040691  0.49551735  1  1.278382  0  0.671  0.813547  0  2.440103  0
H  H2  1  0.34365858  0.36441377  0.78011838  1  0.134898  0  0.119738  0.133728  0  0.983438  0
H  H3  1  0.65633750  0.63558962  0.21988274  1  0.134882  0  0.119715  0.133717  0  0.983359  0
H  H4  1  0.26722979  0.26616704  0.08201630  1  0.118681  0  0.123518  0.136523  0  0.977141  0
H  H5  1  0.73277456  0.73382360  0.91798596  1  0.118674  0  0.123513  0.138985  0  0.97373  0
H  H6  1  0.72230486  0.11290102  0.48424888  1  0.108262  0  0.104413  0.107712  0  1.000636  0
H  H7  1  0.27768434  0.88711139  0.51574063  1  0.10825  0  0.104415  0.107747  0  1.000655  0
H  H8  1  0.72155589  0.88419021  0.48689817  1  0.100725  0  0.10616  0.110909  0  0.996952  0
H  H9  1  0.27843217  0.11582223  0.51309461  1  0.100599  0  0.106157  0.110885  0  0.996839  0
H  H10  1  0.86001496  0.64185796  0.59084223  1  0.185368  0  0.135625  0.123384  0  0.995768  0
H  H11  1  0.13998312  0.35814364  0.40916146  1  0.185418  0  0.135665  0.123461  0  0.995793  0
H  H12  1  0.87573575  0.35875443  0.40723212  1  0.160466  0  0.14352  0.125213  0  0.953199  0
H  H13  1  0.12426240  0.64125079  0.59276898  1  0.160402  0  0.143514  0.125224  0  0.953285  0
C  C14  1  0.50045607  0.26346955  0.49718931  1  1.536633  0  0.21782  0.593546  0  4.15976  0
C  C15  1  0.49953807  0.73654292  0.50280732  1  1.537316  0  0.217815  0.59346  0  4.160259  0
C  C16  1  0.33086807  0.33187385  0.04614968  1  0.0099  0  -0.05615  -0.133426  0  3.893898  0
C  C17  1  0.66913834  0.66811406  0.95385320  1  0.009918  0  -0.056241  -0.135216  0  3.893468  0
C  C18  1  0.62559466  0.06250999  0.49105619  1  -0.086028  0  -0.08211  -0.092397  0  3.97603  0
C  C19  1  0.37438939  0.93749968  0.50893270  1  -0.085845  0  -0.082023  -0.092347  0  3.975793  0
C  C20  1  0.62525466  0.93590303  0.49264975  1  0.048418  0  -0.080324  -0.087782  0  3.969284  0
C  C21  1  0.37474159  0.06410214  0.50734616  1  0.048043  0  -0.080356  -0.087781  0  3.969215  0
C  C22  1  0.49961879  0.87269422  0.50162274  1  -0.052138  0  -0.013739  -0.026475  0  3.962306  0
C  C23  1  0.50037539  0.12731004  0.49837319  1  -0.051754  0  -0.013557  -0.02635  0  3.962413  0
C  C24  1  0.92332331  0.57923612  0.55028040  1  0.478505  0  0.081752  0.069831  0  3.837924  0
C  C25  1  0.07667279  0.42076636  0.44972006  1  0.478404  0  0.081686  0.069661  0  3.838008  0
C  C26  1  0.93263766  0.42145417  0.44829883  1  0.526751  0  0.08188  0.065582  0  3.852717  0
C  C27  1  0.06735946  0.57855105  0.55170229  1  0.526754  0  0.081797  0.065386  0  3.852953  0
C  C28  1  0.50508122  0.49871333  0.32842065  1  1.638592  0  0.218097  0.59378  0  4.190413  0
C  C29  1  0.49493457  0.50128003  0.67158021  1  1.636989  0  0.218393  0.594134  0  4.189841  0
C  C30  1  0.58777820  0.58201589  0.81399315  1  0.142344  0  0.02122  0.002283  0  3.99756  0
C  C31  1  0.41223343  0.41796837  0.18600836  1  0.141891  0  0.021304  0.002376  0  3.997198  0
C  C32  1  0.49837534  0.50329564  0.76953319  1  -0.039699  0  0.010655  -0.020147  0  3.92198  0
C  C33  1  0.50163418  0.49669774  0.23046904  1  -0.039142  0  0.010585  -0.020247  0  3.922001  0
C  C34  1  0.41222345  0.42398519  0.81610525  1  -0.005459  0  -0.064153  -0.124046  0  3.906405  0
C  C35  1  0.58778104  0.57601179  0.18389249  1  -0.005803  0  -0.06405  -0.123912  0  3.906222  0
C  C36  1  0.41409707  0.41857473  0.90719639  1  -0.00332  0  0.010892  0.050496  0  3.996944  0
C  C37  1  0.58590324  0.58141953  0.09280268  1  -0.003302  0  0.010877  0.050392  0  3.996706  0
C  C38  1  0.49990701  0.50062911  0.95363401  1  -0.049277  0  0.013262  0.009748  0  3.932083  0
C  C39  1  0.50009426  0.49936426  0.04636765  1  0.05314  0  0.013253  0.009982  0  3.931996  0
C  C40  1  0.58649327  0.58442426  0.90666171  1  0.01902  0  0.012184  0.053231  0  3.993852  0
C  C41  1  0.41351641  0.41556634  0.09333594  1  0.018972  0  0.012142  0.053299  0  3.993184  0
C  C42  1  0.33095786  0.33251465  0.95646349  1  0.097471  0  0.017983  0.032718  0  4.062149  0
C  C43  1  0.66904550  0.66748327  0.04353687  1  0.097544  0  0.017996  0.032637  0  4.063201  0
C  C44  1  0.68037971  0.66078296  0.76723132  1  0.852677  0  0.183153  0.24839  0  4.034021  0
C  C45  1  0.31963599  0.33919767  0.23277272  1  0.853429  0  0.1832  0.248716  0  4.033988  0
C  C46  1  0.24896175  0.24661913  0.91058598  1  0.838418  0  0.177651  0.23038  0  4.026401  0
C  C47  1  0.75102507  0.75336148  0.08941447  1  0.837819  0  0.177543  0.230216  0  4.026368  0
N  N48  1  0.14230306  0.49957964  0.50164279  1  -1.222672  0  -0.292646  -0.148231  0  3.499303  0
N  N49  1  0.85769405  0.50042649  0.49835833  1  -1.222809  0  -0.292715  -0.148339  0  3.499318  0
N  N50  1  0.75945632  0.72641072  0.73264241  1  -1.130748  0  -0.305129  -0.35956  0  2.702056  0
N  N51  1  0.24056157  0.27357625  0.26735774  1  -1.131179  0  -0.305214  -0.359585  0  2.702348  0
N  N52  1  0.18341157  0.17686209  0.87140155  1  -1.10817  0  -0.305314  -0.344045  0  2.658312  0
N  N53  1  0.81658935  0.82313230  0.12861055  1  -1.107704  0  -0.30518  -0.344  0  2.657549  0
O  O54  1  0.38299241  0.31686939  0.50244007  1  -1.161563  0  -0.314874  -0.542744  0  2.348815  0
O  O55  1  0.61699104  0.68314046  0.49756708  1  -1.162619  0  -0.314861  -0.542727  0  2.349223  0
O  O56  1  0.38233045  0.68306319  0.50854943  1  -1.169223  0  -0.31898  -0.552754  0  2.339384  0
O  O57  1  0.61765867  0.31694650  0.49144268  1  -1.169936  0  -0.319011  -0.552772  0  2.339205  0
O  O58  1  0.38843367  0.49849181  0.36910325  1  -1.153033  0  -0.305794  -0.536898  0  2.321771  0
O  O59  1  0.61156857  0.50150522  0.63089973  1  -1.15156  0  -0.305858  -0.536944  0  2.321935  0
O  O60  1  0.37565462  0.49813010  0.63978971  1  -1.151158  0  -0.311468  -0.533161  0  2.278268  0
O  O61  1  0.62434773  0.50188239  0.36020943  1  -1.151309  0  -0.31125  -0.532846  0  2.278676  0
