# generated using pymatgen
data_CuH4C2N5
_symmetry_space_group_name_H-M   'P 1'
_cell_length_a   4.28415916
_cell_length_b   14.13581182
_cell_length_c   14.13584168
_cell_angle_alpha   89.99999529
_cell_angle_beta   90.00038603
_cell_angle_gamma   90.00011388
_symmetry_Int_Tables_number   1
_chemical_formula_structural   CuH4C2N5
_chemical_formula_sum   'Cu8 H32 C16 N40'
_cell_volume   856.06752796
_cell_formula_units_Z   8
loop_
 _symmetry_equiv_pos_site_id
 _symmetry_equiv_pos_as_xyz
  1  'x, y, z'
loop_
 _atom_site_type_symbol
 _atom_site_label
 _atom_site_symmetry_multiplicity
 _atom_site_fract_x
 _atom_site_fract_y
 _atom_site_fract_z
 _atom_site_occupancy
 _atom_site_hle17_bader_spin_density
 _atom_site_hle17_ddec_charge
 _atom_site_hle17_ddec_spin_density
 _atom_site_hle17_ddec_sum_bond_order
 _atom_site_hle17_magmom
 _atom_site_hse06_10hf_bader_spin_density
 _atom_site_hse06_10hf_ddec_charge
 _atom_site_hse06_10hf_ddec_spin_density
 _atom_site_hse06_10hf_ddec_sum_bond_order
 _atom_site_hse06_10hf_magmom
 _atom_site_hse06_bader_spin_density
 _atom_site_hse06_ddec_charge
 _atom_site_hse06_ddec_spin_density
 _atom_site_hse06_ddec_sum_bond_order
 _atom_site_hse06_magmom
 _atom_site_pbe_bader_spin_density
 _atom_site_pbe_cm5_charge
 _atom_site_pbe_ddec_charge
 _atom_site_pbe_ddec_spin_density
 _atom_site_pbe_ddec_sum_bond_order
 _atom_site_pbe_magmom
Cu  Cu0  1  0.79490262  0.39632129  0.51083845  1  0  0.449723  0  1.840497  0  0  0.321329  0  2.323719  0  0  0.332781  0  2.269553  0  0  0.523126  0.31533  0  2.360202  0
Cu  Cu1  1  0.29490003  0.48915908  0.89632116  1  0  0.449809  0  1.840517  0  0  0.321411  0  2.323787  0  0  0.332873  0  2.26964  0  0  0.523211  0.31544  0  2.360336  0
Cu  Cu2  1  0.29490931  0.01083850  0.60367854  1  0  0.449754  0  1.840541  0  0  0.321354  0  2.323782  0  0  0.332808  0  2.269637  0  0  0.523152  0.315365  0  2.360293  0
Cu  Cu3  1  0.79490925  0.10368014  0.98915805  1  0  0.449714  0  1.840511  0  0  0.321312  0  2.323739  0  0  0.332769  0  2.269592  0  0  0.523109  0.315327  0  2.360246  0
Cu  Cu4  1  0.20509536  0.60367956  0.48916455  1  0  0.449835  0  1.840435  0  0  0.321438  0  2.323685  0  0  0.332885  0  2.269515  0  0  0.523194  0.315443  0  2.360175  0
Cu  Cu5  1  0.70510262  0.51084105  0.10368113  1  0  0.449754  0  1.840442  0  0  0.321349  0  2.323683  0  0  0.332816  0  2.269531  0  0  0.523159  0.315377  0  2.360231  0
Cu  Cu6  1  0.70509567  0.98916164  0.39631809  1  0  0.449773  0  1.840312  0  0  0.32137  0  2.323523  0  0  0.332827  0  2.269373  0  0  0.523127  0.315374  0  2.360034  0
Cu  Cu7  1  0.20509340  0.89631859  0.01083575  1  0  0.44987  0  1.840475  0  0  0.321455  0  2.323746  0  0  0.33292  0  2.269604  0  0  0.523208  0.315475  0  2.36027  0
H  H8  1  0.54275756  0.66883757  0.65410874  1  0  0.307793  0  0.922004  0  0  0.292131  0  0.99103  0  0  0.299042  0  0.984617  0  0  0.294421  0.287089  0  0.995794  0
H  H9  1  0.04275813  0.34590303  0.16884176  1  0  0.307984  0  0.921756  0  0  0.292297  0  0.990859  0  0  0.299206  0  0.98443  0  0  0.294526  0.287258  0  0.995634  0
H  H10  1  0.04274762  0.15410010  0.33116108  1  0  0.307756  0  0.92196  0  0  0.292101  0  0.991017  0  0  0.299011  0  0.984595  0  0  0.294406  0.287057  0  0.995781  0
H  H11  1  0.54276018  0.83116145  0.84589781  1  0  0.307856  0  0.921804  0  0  0.292193  0  0.990869  0  0  0.299098  0  0.984452  0  0  0.294486  0.287154  0  0.995648  0
H  H12  1  0.45724509  0.33116399  0.34589780  1  0  0.307824  0  0.92192  0  0  0.292165  0  0.990978  0  0  0.299071  0  0.984559  0  0  0.294451  0.287125  0  0.995754  0
H  H13  1  0.95723752  0.65409641  0.83116195  1  0  0.307946  0  0.921755  0  0  0.292264  0  0.990864  0  0  0.299173  0  0.984439  0  0  0.294514  0.287226  0  0.995636  0
H  H14  1  0.95725036  0.84589933  0.66883768  1  0  0.307772  0  0.921939  0  0  0.292109  0  0.99101  0  0  0.299018  0  0.984588  0  0  0.294408  0.287066  0  0.995773  0
H  H15  1  0.45725648  0.16883798  0.15409600  1  0  0.307949  0  0.921934  0  0  0.292298  0  0.99095  0  0  0.299205  0  0.98453  0  0  0.29453  0.287255  0  0.995737  0
H  H16  1  0.47318860  0.66057272  0.77375489  1  0  0.295751  0  0.93629  0  0  0.28338  0  1.000564  0  0  0.289312  0  0.995885  0  0  0.293313  0.279066  0  1.004037  0
H  H17  1  0.97321095  0.22625543  0.16057793  1  0  0.295771  0  0.936388  0  0  0.283418  0  1.000625  0  0  0.289337  0  0.995984  0  0  0.29333  0.279114  0  1.004056  0
H  H18  1  0.97319205  0.27374827  0.33942897  1  0  0.2958  0  0.936304  0  0  0.283449  0  1.000559  0  0  0.289382  0  0.995877  0  0  0.293344  0.279135  0  1.004029  0
H  H19  1  0.47319565  0.83942697  0.72624939  1  0  0.295767  0  0.936243  0  0  0.283394  0  1.00054  0  0  0.289327  0  0.995859  0  0  0.293331  0.279078  0  1.004011  0
H  H20  1  0.52680938  0.33942954  0.22624882  1  0  0.295764  0  0.936294  0  0  0.283417  0  1.000564  0  0  0.28935  0  0.995881  0  0  0.293306  0.279102  0  1.004036  0
H  H21  1  0.02679170  0.77374400  0.83942649  1  0  0.295765  0  0.93642  0  0  0.28344  0  1.000634  0  0  0.289372  0  0.995954  0  0  0.293346  0.279128  0  1.004095  0
H  H22  1  0.02681293  0.72625257  0.66057050  1  0  0.295752  0  0.936431  0  0  0.283416  0  1.000647  0  0  0.289348  0  0.995969  0  0  0.293347  0.279101  0  1.004119  0
H  H23  1  0.52680700  0.16057105  0.27374653  1  0  0.295851  0  0.936261  0  0  0.283496  0  1.000553  0  0  0.28943  0  0.995868  0  0  0.293338  0.279183  0  1.004012  0
H  H24  1  0.66439830  0.33161254  0.71566163  1  0  0.31017  0  0.922829  0  0  0.291654  0  0.99263  0  0  0.298609  0  0.987457  0  0  0.288975  0.286711  0  0.996273  0
H  H25  1  0.16439932  0.28433459  0.83161742  1  0  0.310217  0  0.922822  0  0  0.2917  0  0.992627  0  0  0.29865  0  0.987459  0  0  0.288979  0.28676  0  0.996272  0
H  H26  1  0.16440198  0.21566362  0.66838413  1  0  0.310169  0  0.922884  0  0  0.291657  0  0.992685  0  0  0.298607  0  0.987517  0  0  0.288976  0.286717  0  0.996328  0
H  H27  1  0.66440553  0.16838527  0.78433742  1  0  0.310198  0  0.92288  0  0  0.291681  0  0.99269  0  0  0.298636  0  0.987513  0  0  0.28898  0.286737  0  0.996334  0
H  H28  1  0.33560435  0.66838901  0.28433712  1  0  0.310169  0  0.922845  0  0  0.291652  0  0.992652  0  0  0.298606  0  0.987478  0  0  0.288975  0.286709  0  0.996297  0
H  H29  1  0.83559867  0.71566414  0.16838487  1  0  0.310183  0  0.922876  0  0  0.29167  0  0.992677  0  0  0.298621  0  0.987508  0  0  0.288967  0.286729  0  0.996322  0
H  H30  1  0.83558666  0.78433864  0.33161250  1  0  0.310147  0  0.922911  0  0  0.291637  0  0.992712  0  0  0.29859  0  0.987539  0  0  0.288962  0.286697  0  0.996355  0
H  H31  1  0.33559712  0.83161063  0.21566204  1  0  0.310186  0  0.922808  0  0  0.291672  0  0.992622  0  0  0.298625  0  0.98745  0  0  0.288978  0.28673  0  0.996266  0
H  H32  1  0.72643747  0.38560450  0.82096353  1  0  0.292799  0  0.950841  0  0  0.272343  0  1.030138  0  0  0.280868  0  1.021078  0  0  0.28478  0.26614  0  1.036813  0
H  H33  1  0.22644442  0.17903750  0.88561145  1  0  0.292747  0  0.950924  0  0  0.272304  0  1.030182  0  0  0.280827  0  1.021124  0  0  0.284768  0.266099  0  1.036849  0
H  H34  1  0.22644191  0.32096286  0.61439095  1  0  0.292791  0  0.950845  0  0  0.272348  0  1.030104  0  0  0.280872  0  1.021043  0  0  0.284793  0.266144  0  1.036766  0
H  H35  1  0.72643738  0.11439405  0.67903354  1  0  0.292834  0  0.950787  0  0  0.272394  0  1.03004  0  0  0.280917  0  1.020982  0  0  0.284793  0.26619  0  1.036709  0
H  H36  1  0.27355818  0.61439422  0.17903594  1  0  0.292777  0  0.950855  0  0  0.272325  0  1.030134  0  0  0.280848  0  1.021078  0  0  0.284773  0.266122  0  1.036809  0
H  H37  1  0.77355356  0.82096334  0.11439155  1  0  0.292817  0  0.950834  0  0  0.272378  0  1.03008  0  0  0.2809  0  1.021025  0  0  0.284796  0.266175  0  1.036748  0
H  H38  1  0.77355141  0.67903798  0.38560427  1  0  0.292843  0  0.950806  0  0  0.272402  0  1.030069  0  0  0.280926  0  1.021007  0  0  0.284815  0.266197  0  1.036735  0
H  H39  1  0.27355126  0.88560467  0.32096239  1  0  0.292829  0  0.950839  0  0  0.272393  0  1.03008  0  0  0.280916  0  1.021024  0  0  0.284808  0.26619  0  1.036745  0
C  C40  1  0.28801687  0.55589456  0.69419240  1  0  0.546784  0  3.877288  0  0  0.505597  0  4.14922  0  0  0.52618  0  4.162027  0  0  0.294359  0.491838  0  4.140226  0
C  C41  1  0.78801386  0.30581713  0.05589843  1  0  0.546536  0  3.87731  0  0  0.505439  0  4.149111  0  0  0.526023  0  4.161911  0  0  0.294381  0.491689  0  4.140118  0
C  C42  1  0.78801542  0.19418433  0.44410949  1  0  0.546454  0  3.877667  0  0  0.505347  0  4.149483  0  0  0.525931  0  4.162288  0  0  0.29428  0.491592  0  4.140486  0
C  C43  1  0.28802633  0.94410501  0.80580866  1  0  0.546595  0  3.877302  0  0  0.50534  0  4.149344  0  0  0.525924  0  4.16215  0  0  0.294304  0.491585  0  4.140342  0
C  C44  1  0.71198578  0.44410700  0.30581060  1  0  0.546775  0  3.877432  0  0  0.505562  0  4.149384  0  0  0.526146  0  4.16219  0  0  0.294364  0.491806  0  4.140387  0
C  C45  1  0.21198412  0.69418372  0.94410598  1  0  0.54658  0  3.877539  0  0  0.505475  0  4.149348  0  0  0.526058  0  4.162154  0  0  0.294367  0.491726  0  4.140356  0
C  C46  1  0.21198957  0.80581510  0.55589068  1  0  0.546554  0  3.877604  0  0  0.505418  0  4.149456  0  0  0.526002  0  4.16226  0  0  0.294311  0.49166  0  4.140457  0
C  C47  1  0.71198099  0.05589442  0.19418514  1  0  0.54681  0  3.877478  0  0  0.505689  0  4.149333  0  0  0.526277  0  4.162128  0  0  0.294404  0.491932  0  4.140335  0
C  C48  1  0.97862598  0.43911195  0.71424216  1  0  0.563537  0  3.840648  0  0  0.521791  0  4.107529  0  0  0.543109  0  4.119998  0  0  0.302709  0.507513  0  4.098709  0
C  C49  1  0.47863252  0.28576014  0.93912249  1  0  0.563206  0  3.84061  0  0  0.521498  0  4.107482  0  0  0.542812  0  4.119954  0  0  0.302652  0.507229  0  4.098655  0
C  C50  1  0.47863516  0.21423543  0.56088255  1  0  0.563256  0  3.840624  0  0  0.521495  0  4.107559  0  0  0.542798  0  4.12005  0  0  0.302641  0.507221  0  4.098735  0
C  C51  1  0.97862556  0.06088606  0.78575684  1  0  0.563567  0  3.840592  0  0  0.521765  0  4.107555  0  0  0.543062  0  4.120057  0  0  0.302688  0.507489  0  4.098726  0
C  C52  1  0.02138134  0.56088819  0.28576013  1  0  0.56332  0  3.840738  0  0  0.521587  0  4.107634  0  0  0.542901  0  4.12011  0  0  0.302657  0.50731  0  4.098814  0
C  C53  1  0.52137013  0.71423717  0.06088051  1  0  0.563424  0  3.840596  0  0  0.521723  0  4.107416  0  0  0.543016  0  4.119922  0  0  0.302702  0.507466  0  4.098575  0
C  C54  1  0.52136516  0.78576612  0.43911550  1  0  0.563361  0  3.840654  0  0  0.521589  0  4.107571  0  0  0.542885  0  4.12007  0  0  0.302694  0.507311  0  4.098748  0
C  C55  1  0.02137943  0.93911479  0.21423979  1  0  0.563333  0  3.840596  0  0  0.521681  0  4.107379  0  0  0.54298  0  4.119883  0  0  0.302721  0.507405  0  4.098551  0
N  N56  1  0.98339141  0.45554115  0.62096721  1  0  -0.390492  0  3.275757  0  0  -0.3249  0  3.595719  0  0  -0.338909  0  3.597255  0  0  -0.331803  -0.316041  0  3.594883  0
N  N57  1  0.48339006  0.37903671  0.95554529  1  0  -0.3903  0  3.275364  0  0  -0.324684  0  3.595281  0  0  -0.338697  0  3.596834  0  0  -0.331779  -0.315839  0  3.594491  0
N  N58  1  0.48339874  0.12096311  0.54446047  1  0  -0.39038  0  3.275647  0  0  -0.324767  0  3.595605  0  0  -0.338772  0  3.597156  0  0  -0.331747  -0.315914  0  3.59479  0
N  N59  1  0.98339525  0.04445898  0.87903322  1  0  -0.390466  0  3.275726  0  0  -0.324834  0  3.595667  0  0  -0.338838  0  3.597223  0  0  -0.331796  -0.315983  0  3.594849  0
N  N60  1  0.01660891  0.54446182  0.37903791  1  0  -0.390425  0  3.275647  0  0  -0.324855  0  3.595632  0  0  -0.338859  0  3.597164  0  0  -0.331772  -0.315995  0  3.5948  0
N  N61  1  0.51660793  0.62096626  0.04445842  1  0  -0.390399  0  3.275699  0  0  -0.324806  0  3.595643  0  0  -0.338811  0  3.5972  0  0  -0.331825  -0.315965  0  3.594852  0
N  N62  1  0.51659924  0.87903420  0.45553758  1  0  -0.390411  0  3.275896  0  0  -0.324793  0  3.595836  0  0  -0.338797  0  3.59739  0  0  -0.331725  -0.315939  0  3.595017  0
N  N63  1  0.01660740  0.95553833  0.12095846  1  0  -0.390371  0  3.275538  0  0  -0.324808  0  3.595484  0  0  -0.338818  0  3.597047  0  0  -0.331766  -0.315961  0  3.594675  0
N  N64  1  0.18483108  0.53342536  0.60809201  1  0  -0.390072  0  3.26875  0  0  -0.33423  0  3.60261  0  0  -0.345655  0  3.601114  0  0  -0.33357  -0.327317  0  3.604163  0
N  N65  1  0.68483845  0.39190908  0.03342849  1  0  -0.389956  0  3.268982  0  0  -0.33415  0  3.602826  0  0  -0.345582  0  3.601349  0  0  -0.333577  -0.327253  0  3.604427  0
N  N66  1  0.68484228  0.10809091  0.46657568  1  0  -0.389894  0  3.269009  0  0  -0.334083  0  3.602846  0  0  -0.345512  0  3.601362  0  0  -0.333544  -0.327177  0  3.604415  0
N  N67  1  0.18483557  0.96657627  0.89191025  1  0  -0.390082  0  3.268799  0  0  -0.334226  0  3.602688  0  0  -0.345659  0  3.601213  0  0  -0.333621  -0.327324  0  3.604263  0
N  N68  1  0.81516457  0.46657832  0.39191170  1  0  -0.390025  0  3.268905  0  0  -0.334182  0  3.602803  0  0  -0.345609  0  3.601308  0  0  -0.333604  -0.327264  0  3.604345  0
N  N69  1  0.31516653  0.60808752  0.96657380  1  0  -0.39001  0  3.268974  0  0  -0.334212  0  3.602841  0  0  -0.345643  0  3.601361  0  0  -0.333598  -0.327311  0  3.604442  0
N  N70  1  0.31516037  0.89191206  0.53342237  1  0  -0.390054  0  3.269093  0  0  -0.334245  0  3.602977  0  0  -0.345671  0  3.601486  0  0  -0.333668  -0.327339  0  3.604547  0
N  N71  1  0.81516241  0.03342104  0.10808496  1  0  -0.390074  0  3.268974  0  0  -0.334261  0  3.602867  0  0  -0.345692  0  3.60138  0  0  -0.333602  -0.327359  0  3.60444  0
N  N72  1  0.50527578  0.62616438  0.71124573  1  0  -0.691638  0  3.058198  0  0  -0.656586  0  3.287357  0  0  -0.673787  0  3.283196  0  0  -0.600717  -0.644375  0  3.290259  0
N  N73  1  0.00528455  0.28876162  0.12617076  1  0  -0.691688  0  3.057806  0  0  -0.656677  0  3.286876  0  0  -0.673867  0  3.282705  0  0  -0.600753  -0.644461  0  3.289778  0
N  N74  1  0.00528234  0.21124289  0.37383412  1  0  -0.691507  0  3.057952  0  0  -0.656505  0  3.286969  0  0  -0.673698  0  3.282802  0  0  -0.600647  -0.644293  0  3.289866  0
N  N75  1  0.50528676  0.87383533  0.78875932  1  0  -0.691532  0  3.057831  0  0  -0.656486  0  3.287002  0  0  -0.673674  0  3.28284  0  0  -0.600706  -0.644285  0  3.289902  0
N  N76  1  0.49471986  0.37383718  0.28875868  1  0  -0.691664  0  3.058112  0  0  -0.656642  0  3.287182  0  0  -0.673834  0  3.283019  0  0  -0.600715  -0.64444  0  3.290083  0
N  N77  1  0.99470876  0.71123993  0.87383224  1  0  -0.691678  0  3.057903  0  0  -0.656681  0  3.286874  0  0  -0.67387  0  3.282709  0  0  -0.600781  -0.644468  0  3.289773  0
N  N78  1  0.99471797  0.78875583  0.62616605  1  0  -0.691495  0  3.058015  0  0  -0.656501  0  3.287078  0  0  -0.673692  0  3.282914  0  0  -0.600657  -0.644287  0  3.289976  0
N  N79  1  0.49472289  0.12616340  0.21123519  1  0  -0.691906  0  3.058305  0  0  -0.65693  0  3.287366  0  0  -0.674119  0  3.283188  0  0  -0.600869  -0.644728  0  3.290275  0
N  N80  1  0.16748971  0.49947399  0.76343825  1  0  -0.605018  0  3.252645  0  0  -0.527367  0  3.566844  0  0  -0.547766  0  3.564696  0  0  -0.420175  -0.513973  0  3.567899  0
N  N81  1  0.66748688  0.23656670  0.99948061  1  0  -0.60486  0  3.252635  0  0  -0.527259  0  3.56679  0  0  -0.547653  0  3.564631  0  0  -0.4202  -0.513859  0  3.567822  0
N  N82  1  0.66749085  0.26343323  0.50052553  1  0  -0.604769  0  3.252702  0  0  -0.527138  0  3.566847  0  0  -0.54753  0  3.564691  0  0  -0.420138  -0.513739  0  3.567866  0
N  N83  1  0.16749950  0.00052564  0.73656403  1  0  -0.604932  0  3.252589  0  0  -0.52721  0  3.566744  0  0  -0.547602  0  3.564606  0  0  -0.420101  -0.51381  0  3.567768  0
N  N84  1  0.83251294  0.50052757  0.23656688  1  0  -0.604991  0  3.252817  0  0  -0.527306  0  3.566948  0  0  -0.547706  0  3.564803  0  0  -0.420153  -0.513912  0  3.568002  0
N  N85  1  0.33249709  0.76343273  0.00052239  1  0  -0.604978  0  3.252757  0  0  -0.527356  0  3.566889  0  0  -0.547747  0  3.564748  0  0  -0.420147  -0.513961  0  3.567927  0
N  N86  1  0.33250013  0.73656691  0.49947393  1  0  -0.604803  0  3.252676  0  0  -0.527157  0  3.566838  0  0  -0.547544  0  3.564683  0  0  -0.420141  -0.513758  0  3.567861  0
N  N87  1  0.83251249  0.99947167  0.26342978  1  0  -0.60489  0  3.252797  0  0  -0.527291  0  3.56693  0  0  -0.547683  0  3.564783  0  0  -0.420141  -0.513891  0  3.567956  0
N  N88  1  0.82439759  0.36597213  0.75770882  1  0  -0.68945  0  3.088565  0  0  -0.645244  0  3.317461  0  0  -0.663894  0  3.312159  0  0  -0.595472  -0.632093  0  3.321017  0
N  N89  1  0.32438895  0.24228753  0.86597847  1  0  -0.689396  0  3.088418  0  0  -0.645234  0  3.317378  0  0  -0.663875  0  3.312072  0  0  -0.595484  -0.632082  0  3.320932  0
N  N90  1  0.32439113  0.25771219  0.63402624  1  0  -0.689406  0  3.088337  0  0  -0.645221  0  3.317287  0  0  -0.663858  0  3.311986  0  0  -0.59551  -0.632072  0  3.320839  0
N  N91  1  0.82440135  0.13402719  0.74228916  1  0  -0.689519  0  3.088599  0  0  -0.645313  0  3.317552  0  0  -0.66395  0  3.312256  0  0  -0.595477  -0.632163  0  3.321106  0
N  N92  1  0.17560272  0.63402801  0.24229065  1  0  -0.689335  0  3.088579  0  0  -0.645136  0  3.317506  0  0  -0.66378  0  3.312204  0  0  -0.595463  -0.631985  0  3.321064  0
N  N93  1  0.67560437  0.75771120  0.13402523  1  0  -0.689485  0  3.088389  0  0  -0.645317  0  3.317311  0  0  -0.663952  0  3.312016  0  0  -0.595511  -0.632169  0  3.320863  0
N  N94  1  0.67559985  0.74229007  0.36597039  1  0  -0.689439  0  3.088269  0  0  -0.645249  0  3.317175  0  0  -0.663886  0  3.311875  0  0  -0.595504  -0.632098  0  3.320727  0
N  N95  1  0.17560130  0.86597153  0.25770889  1  0  -0.689507  0  3.088514  0  0  -0.64535  0  3.317414  0  0  -0.663991  0  3.312116  0  0  -0.595578  -0.632201  0  3.320966  0
