# generated using pymatgen
data_NiH28C18(NO)4
_symmetry_space_group_name_H-M   'P 1'
_cell_length_a   8.85161551
_cell_length_b   11.43488906
_cell_length_c   11.39710537
_cell_angle_alpha   88.83069895
_cell_angle_beta   68.43395917
_cell_angle_gamma   67.79553559
_symmetry_Int_Tables_number   1
_chemical_formula_structural   NiH28C18(NO)4
_chemical_formula_sum   'Ni2 H56 C36 N8 O8'
_cell_volume   983.81445393
_cell_formula_units_Z   2
loop_
 _symmetry_equiv_pos_site_id
 _symmetry_equiv_pos_as_xyz
  1  'x, y, z'
loop_
 _atom_site_type_symbol
 _atom_site_label
 _atom_site_symmetry_multiplicity
 _atom_site_fract_x
 _atom_site_fract_y
 _atom_site_fract_z
 _atom_site_occupancy
 _atom_site_hle17_ddec_charge
 _atom_site_hle17_ddec_spin_density
 _atom_site_hle17_ddec_sum_bond_order
 _atom_site_hle17_magmom
 _atom_site_hse06_10hf_ddec_charge
 _atom_site_hse06_10hf_ddec_spin_density
 _atom_site_hse06_10hf_ddec_sum_bond_order
 _atom_site_hse06_10hf_magmom
 _atom_site_hse06_ddec_charge
 _atom_site_hse06_ddec_spin_density
 _atom_site_hse06_ddec_sum_bond_order
 _atom_site_hse06_magmom
 _atom_site_pbe_cm5_charge
 _atom_site_pbe_ddec_charge
 _atom_site_pbe_ddec_spin_density
 _atom_site_pbe_ddec_sum_bond_order
 _atom_site_pbe_magmom
Ni  Ni0  1  0.00000101  0.99999771  0.50000099  1  0.690775  1.715811  2.116305  1.445  0.680935  1.779343  2.491821  1.562  0.765595  1.837597  2.43581  1.653  0.64355  0.621079  1.728895  2.532274  1.487
Ni  Ni1  1  0.49999984  0.50000262  0.99999950  1  0.69202  1.715433  2.101381  1.445  0.68216  1.77988  2.476766  1.563  0.767515  1.838361  2.420348  1.654  0.642227  0.621226  1.729065  2.518351  1.487
H  H2  1  0.98527312  0.20779158  0.57444810  1  0.253147  -0.001748  0.952398  -0.002  0.242117  -0.000635  1.011765  -0.001  0.249674  -0.000794  1.006627  -0.001  0.284406  0.236922  -0.000497  1.015085  -0.001
H  H3  1  0.48545701  0.57639049  0.20779380  1  0.254084  -0.001738  0.952637  -0.002  0.243261  -0.000635  1.012087  -0.001  0.250933  -0.000791  1.006856  -0.001  0.284069  0.237989  -0.000497  1.01544  -0.001
H  H4  1  0.01472999  0.79220315  0.42555339  1  0.253149  -0.001756  0.952416  -0.002  0.242096  -0.000635  1.011791  -0.001  0.249652  -0.000794  1.006655  -0.001  0.284387  0.236899  -0.000497  1.015111  -0.001
H  H5  1  0.51454294  0.42361279  0.79220491  1  0.254031  -0.001739  0.952649  -0.002  0.243245  -0.000634  1.01207  -0.001  0.250918  -0.000791  1.006837  -0.001  0.284072  0.237972  -0.000497  1.015425  -0.001
H  H6  1  0.23641809  0.23214824  0.41128424  1  0.047402  0.002023  0.922245  0.003  0.069305  0.001493  0.97854  0.002  0.069281  0.001062  0.978923  0.001  0.094634  0.068053  0.002125  0.980382  0.002
H  H7  1  0.73949566  0.41501313  0.23334730  1  0.04886  0.00201  0.921495  0.003  0.07028  0.001494  0.978261  0.002  0.070238  0.001062  0.97866  0.001  0.094701  0.069021  0.002141  0.980137  0.002
H  H8  1  0.76358609  0.76784458  0.58871260  1  0.047342  0.002022  0.922285  0.003  0.069243  0.001493  0.97857  0.002  0.069244  0.001062  0.978928  0.001  0.094605  0.067991  0.002125  0.980407  0.002
H  H9  1  0.26050526  0.58498825  0.76665205  1  0.04884  0.002023  0.921469  0.003  0.070255  0.001494  0.978246  0.002  0.070212  0.001062  0.978646  0.001  0.094695  0.068997  0.002141  0.980119  0.002
H  H10  1  0.23022985  0.12402485  0.30455047  1  0.070795  4.4e-05  0.937951  0.0  0.086805  6e-06  1.003264  0.0  0.08693  -6e-06  1.004316  0.0  0.105977  0.086679  1.2e-05  1.002127  0.0
H  H11  1  0.73390945  0.30621844  0.12686909  1  0.069956  4.2e-05  0.938974  0.0  0.085734  -1e-06  1.004381  0.0  0.085924  -1.1e-05  1.005302  0.0  0.105166  0.08556  2e-06  1.003334  0.0
H  H12  1  0.76977061  0.87596805  0.69545002  1  0.070783  4.8e-05  0.93798  0.0  0.086753  6e-06  1.003339  0.0  0.086885  -6e-06  1.00438  0.0  0.105969  0.086624  1.2e-05  1.002206  0.0
H  H13  1  0.26609049  0.69378485  0.87312963  1  0.069899  5e-05  0.938957  0.0  0.085681  -1e-06  1.00437  0.0  0.085873  -1.1e-05  1.005289  0.0  0.105157  0.085505  2e-06  1.003318  0.0
H  H14  1  0.45933422  0.01570264  0.39621482  1  0.049655  0.001717  0.93708  0.002  0.067497  0.001258  1.001484  0.001  0.067678  0.000905  1.001426  0.001  0.096669  0.067479  0.001701  1.001763  0.002
H  H15  1  0.96028150  0.39630313  0.01716507  1  0.050061  0.001705  0.937666  0.002  0.06835  0.001256  1.001594  0.001  0.06855  0.000905  1.001506  0.001  0.097038  0.068325  0.001691  1.001895  0.002
H  H16  1  0.54066821  0.98429116  0.60378424  1  0.049583  0.001704  0.937145  0.002  0.067459  0.001258  1.001534  0.001  0.067638  0.000905  1.001481  0.001  0.096665  0.067441  0.001701  1.001812  0.002
H  H17  1  0.03971940  0.60369825  0.98283517  1  0.050035  0.001695  0.937666  0.002  0.068303  0.001256  1.001601  0.001  0.068501  0.000906  1.001514  0.001  0.097038  0.068276  0.001691  1.001905  0.002
H  H18  1  0.28871272  0.06241412  0.55155772  1  0.068089  -3.8e-05  0.933709  0.0  0.084343  -6e-05  0.998133  0.0  0.084884  -6.2e-05  0.9981  0.0  0.106451  0.083768  5.5e-05  0.998572  0.0
H  H19  1  0.78947200  0.55239333  0.06243989  1  0.068491  -6.9e-05  0.932815  0.0  0.084952  -6.6e-05  0.997195  0.0  0.085501  -6.5e-05  0.997162  0.0  0.106574  0.084357  4.4e-05  0.997664  0.0
H  H20  1  0.71128921  0.93758064  0.44844146  1  0.068086  -6.4e-05  0.933672  0.0  0.084384  -6e-05  0.998064  0.0  0.084925  -6.1e-05  0.99803  0.0  0.106472  0.083805  5.5e-05  0.998506  0.0
H  H21  1  0.21053136  0.44760800  0.93755967  1  0.068452  -7.7e-05  0.932899  0.0  0.084918  -6.6e-05  0.997261  0.0  0.085453  -6.5e-05  0.997243  0.0  0.106552  0.084319  4.4e-05  0.997735  0.0
H  H22  1  0.32619877  0.88677675  0.34691054  1  0.263574  -0.001682  0.916264  -0.002  0.253947  -0.000495  0.975287  0.0  0.260261  -0.000634  0.971977  -0.001  0.292208  0.249421  -0.000441  0.977614  0.0
H  H23  1  0.82697986  0.34704164  0.88787520  1  0.26397  -0.00168  0.914996  -0.002  0.254003  -0.000505  0.974359  0.0  0.260317  -0.000642  0.97105  -0.001  0.291995  0.249486  -0.000452  0.976662  0.0
H  H24  1  0.67380413  0.11321610  0.65308928  1  0.263686  -0.001675  0.916141  -0.002  0.253968  -0.000495  0.975246  0.0  0.260281  -0.000635  0.971938  -0.001  0.292231  0.249445  -0.000441  0.977572  0.0
H  H25  1  0.17301761  0.65296170  0.11212507  1  0.26396  -0.001684  0.915042  -0.002  0.254006  -0.000505  0.974389  0.0  0.26032  -0.000643  0.971082  -0.001  0.291989  0.249488  -0.000452  0.97669  0.0
H  H26  1  0.29417893  0.86259973  0.61097200  1  0.059522  0.000178  0.930121  0.001  0.077156  0.000185  0.991309  0.001  0.076932  0.000115  0.992323  0.0  0.102043  0.077261  0.000241  0.990373  0.001
H  H27  1  0.79102110  0.61116734  0.86288881  1  0.060232  0.000176  0.931384  0.001  0.077951  0.000177  0.992406  0.001  0.077728  0.00011  0.993453  0.0  0.102594  0.078044  0.00023  0.991456  0.001
H  H28  1  0.70582073  0.13739696  0.38903041  1  0.059548  0.000184  0.930072  0.001  0.077172  0.000185  0.991269  0.001  0.076948  0.000115  0.992281  0.0  0.102053  0.077278  0.000241  0.990339  0.001
H  H29  1  0.20898227  0.38883398  0.13710987  1  0.060198  0.000188  0.931395  0.001  0.077899  0.000177  0.99245  0.001  0.077676  0.000109  0.993498  0.0  0.102561  0.077989  0.00023  0.991504  0.001
H  H30  1  0.49344762  0.78856980  0.47324765  1  0.043808  0.003194  0.914864  0.004  0.063452  0.002506  0.971827  0.003  0.063639  0.001842  0.971536  0.002  0.092604  0.061909  0.003402  0.974646  0.003
H  H31  1  0.99090575  0.47274873  0.78945173  1  0.044649  0.0032  0.913947  0.004  0.064218  0.002499  0.971378  0.003  0.064393  0.001839  0.971119  0.002  0.093068  0.062611  0.003395  0.974305  0.003
H  H32  1  0.50655497  0.21142589  0.52675484  1  0.043796  0.003194  0.91487  0.004  0.063425  0.002506  0.971861  0.003  0.063614  0.001842  0.971564  0.002  0.0926  0.06188  0.003403  0.974683  0.003
H  H33  1  0.00909618  0.52725074  0.21054649  1  0.044587  0.003199  0.914008  0.004  0.064169  0.002499  0.971432  0.003  0.064343  0.00184  0.971173  0.002  0.093042  0.062562  0.003395  0.974357  0.003
H  H34  1  0.38003720  0.62903414  0.53058601  1  0.061055  -0.000231  0.945944  0.0  0.078527  7.4e-05  1.011448  0.0  0.079492  3e-06  1.011149  0.0  0.08833  0.077838  0.000254  1.01204  0.0
H  H35  1  0.87428466  0.53223387  0.63054559  1  0.061559  -0.000236  0.943461  0.0  0.079172  5.7e-05  1.008689  0.0  0.080203  -9e-06  1.008321  0.0  0.088737  0.078446  0.000237  1.009353  0.0
H  H36  1  0.61996465  0.37096062  0.46941759  1  0.061077  -0.000223  0.945923  0.0  0.078513  7.4e-05  1.011433  0.0  0.079472  4e-06  1.011138  0.0  0.088338  0.07782  0.000254  1.01203  0.0
H  H37  1  0.12571504  0.46776753  0.36945410  1  0.061508  -0.000234  0.943394  0.0  0.079104  5.8e-05  1.008652  0.0  0.080136  -8e-06  1.00828  0.0  0.088708  0.078377  0.000237  1.009315  0.0
H  H38  1  0.33688789  0.68203191  0.39527194  1  0.090605  -6.4e-05  0.951331  0.0  0.109264  1.4e-05  1.009107  0.0  0.11058  5e-06  1.009357  0.0  0.100476  0.10814  1.1e-05  1.009081  0.0
H  H39  1  0.83727326  0.39506381  0.68111618  1  0.089575  -4.7e-05  0.953728  0.0  0.108282  1.8e-05  1.011396  0.0  0.10964  9e-06  1.011653  0.0  0.099501  0.107179  1.6e-05  1.011312  0.0
H  H40  1  0.66311395  0.31796285  0.60473165  1  0.090584  -5.4e-05  0.95134  0.0  0.109228  1.4e-05  1.009094  0.0  0.110553  5e-06  1.009332  0.0  0.100451  0.108102  1.1e-05  1.009067  0.0
H  H41  1  0.16272767  0.60493757  0.31888229  1  0.089539  -6e-05  0.953729  0.0  0.108246  1.8e-05  1.011395  0.0  0.109604  1e-05  1.011651  0.0  0.099482  0.10713  1.6e-05  1.011326  0.0
H  H42  1  0.90791956  0.36049618  0.42752670  1  0.031198  0.003607  0.932465  0.005  0.047348  0.002977  0.999541  0.003  0.047619  0.002166  0.999043  0.002  0.086434  0.047039  0.003854  1.000842  0.004
H  H43  1  0.41159774  0.43108293  0.36158766  1  0.030526  0.003607  0.93332  0.005  0.046945  0.002959  1.000711  0.003  0.047177  0.002154  1.00031  0.002  0.086466  0.046682  0.003818  1.001838  0.004
H  H44  1  0.09208056  0.63949955  0.57247735  1  0.031116  0.003612  0.932451  0.005  0.047291  0.002977  0.999523  0.003  0.047563  0.002166  0.999024  0.002  0.086396  0.04698  0.003854  1.000827  0.004
H  H45  1  0.58840319  0.56891845  0.63841081  1  0.030547  0.003613  0.933311  0.005  0.04693  0.002959  1.000725  0.003  0.04717  0.002154  1.000312  0.002  0.086464  0.046666  0.003818  1.001847  0.004
H  H46  1  0.93727215  0.22826942  0.32922125  1  0.058898  0.000259  0.946872  0.001  0.073975  0.000236  1.014974  0.001  0.074683  0.000149  1.01434  0.0  0.101657  0.073355  0.000312  1.015573  0.001
H  H47  1  0.44381107  0.33006966  0.23015019  1  0.058266  0.000248  0.944219  0.001  0.074183  0.000226  1.011464  0.001  0.075044  0.000143  1.010635  0.0  0.101412  0.073417  0.000305  1.012265  0.001
H  H48  1  0.06272826  0.77172819  0.67078006  1  0.058861  0.000263  0.946864  0.001  0.073955  0.000235  1.014974  0.001  0.074661  0.000149  1.014343  0.0  0.101631  0.073331  0.000312  1.015573  0.001
H  H49  1  0.55619133  0.66993357  0.76984785  1  0.058296  0.000248  0.944271  0.001  0.074201  0.000226  1.011489  0.001  0.075047  0.000143  1.010677  0.0  0.10144  0.073433  0.000304  1.012286  0.001
H  H50  1  0.92320092  0.88399233  0.86418745  1  0.091551  0.000351  0.959788  0.0  0.101317  0.000291  1.022642  0.0  0.105015  0.000192  1.020357  0.0  0.099681  0.09924  0.000402  1.023355  0.0
H  H51  1  0.41840515  0.86880212  0.88279280  1  0.092358  0.000346  0.958555  0.0  0.101545  0.000294  1.021758  0.0  0.105266  0.000193  1.019541  0.0  0.099148  0.099487  0.00041  1.022388  0.0
H  H52  1  0.07678574  0.11600839  0.13581672  1  0.091547  0.00035  0.959867  0.0  0.101323  0.000291  1.022699  0.0  0.10502  0.000192  1.020416  0.0  0.099691  0.099249  0.000402  1.023417  0.0
H  H53  1  0.58159285  0.13120497  0.11720464  1  0.09235  0.000352  0.958572  0.0  0.101562  0.000294  1.021739  0.0  0.105284  0.000193  1.019517  0.0  0.099139  0.099504  0.00041  1.022375  0.0
H  H54  1  0.05608285  0.19235576  0.93227007  1  0.089696  4.7e-05  0.963299  0.0  0.099767  5.6e-05  1.025091  0.0  0.103607  4.2e-05  1.02236  0.0  0.099776  0.096679  8.1e-05  1.028035  0.0
H  H55  1  0.55875039  0.92805704  0.19159371  1  0.090783  3.5e-05  0.96269  0.0  0.101071  5.6e-05  1.023992  0.0  0.104914  4.2e-05  1.021259  0.0  0.100201  0.09798  8.2e-05  1.026946  0.0
H  H56  1  0.94390577  0.80764587  0.06773354  1  0.089708  3.4e-05  0.963225  0.0  0.099758  5.6e-05  1.025045  0.0  0.103598  4.2e-05  1.022312  0.0  0.099784  0.096685  8.1e-05  1.027968  0.0
H  H57  1  0.44124885  0.07195003  0.80840250  1  0.090778  3.5e-05  0.962665  0.0  0.101061  5.6e-05  1.023985  0.0  0.104903  4.2e-05  1.02125  0.0  0.100176  0.097957  8.2e-05  1.026951  0.0
C  C58  1  0.20332761  0.14896293  0.40498065  1  0.013541  -0.003725  3.648519  -0.004  -0.045615  -0.001074  3.918149  -0.002  -0.041485  -0.001453  3.931242  -0.002  -0.071511  -0.048356  -0.000463  3.909584  -0.001
C  C59  1  0.70558905  0.40707132  0.15037189  1  0.014854  -0.003669  3.64879  -0.004  -0.042368  -0.001038  3.91728  -0.002  -0.038241  -0.001421  3.930429  -0.002  -0.069944  -0.045127  -0.000423  3.908718  -0.001
C  C60  1  0.79667605  0.85103085  0.59501807  1  0.013685  -0.003757  3.648693  -0.004  -0.04545  -0.001074  3.91829  -0.002  -0.041341  -0.001451  3.931398  -0.002  -0.071442  -0.0482  -0.000463  3.909734  -0.001
C  C61  1  0.29441262  0.59293099  0.84962637  1  0.01496  -0.003739  3.648731  -0.004  -0.042269  -0.001038  3.917262  -0.002  -0.038143  -0.001422  3.93041  -0.002  -0.069936  -0.045035  -0.000424  3.908698  -0.001
C  C62  1  0.31788861  0.03683669  0.45077623  1  0.004064  -0.003331  3.65749  -0.003  -0.058578  -0.000862  3.936352  -0.001  -0.054549  -0.001301  3.949421  -0.002  -0.070945  -0.061743  -0.000539  3.927851  -0.001
C  C63  1  0.81858097  0.45157564  0.03768330  1  0.001342  -0.003168  3.657904  -0.003  -0.062345  -0.00083  3.93702  -0.001  -0.058309  -0.001277  3.949984  -0.002  -0.072417  -0.065487  -0.000498  3.928568  -0.001
C  C64  1  0.68211552  0.96315613  0.54922325  1  0.004095  -0.003203  3.657539  -0.003  -0.058654  -0.000864  3.936424  -0.001  -0.054624  -0.001307  3.949501  -0.002  -0.071051  -0.061814  -0.000539  3.927931  -0.001
C  C65  1  0.18142144  0.54842760  0.96231474  1  0.001398  -0.003093  3.657982  -0.003  -0.062217  -0.00083  3.936995  -0.001  -0.058171  -0.001279  3.949962  -0.002  -0.07239  -0.065357  -0.000498  3.928544  -0.001
C  C66  1  0.34745204  0.82283788  0.51011909  1  0.049632  -0.004373  3.63964  -0.005  -0.006346  -0.001478  3.90882  -0.002  -0.00084  -0.001829  3.921809  -0.002  -0.068883  -0.009908  -0.000913  3.900294  -0.002
C  C67  1  0.84483485  0.51014062  0.82358188  1  0.045902  -0.004379  3.638321  -0.005  -0.010853  -0.001447  3.908265  -0.002  -0.005377  -0.00181  3.92121  -0.002  -0.070855  -0.014348  -0.000881  3.899725  -0.002
C  C68  1  0.65254933  0.17715783  0.48988374  1  0.049656  -0.00438  3.639633  -0.005  -0.006339  -0.001477  3.908765  -0.002  -0.000832  -0.001835  3.921751  -0.002  -0.068904  -0.009901  -0.000913  3.900253  -0.002
C  C69  1  0.15516774  0.48985978  0.17641966  1  0.045991  -0.004413  3.638346  -0.005  -0.010766  -0.001448  3.908307  -0.002  -0.005289  -0.001808  3.921251  -0.002  -0.070808  -0.014257  -0.000881  3.899759  -0.002
C  C70  1  0.29845403  0.71037539  0.49708351  1  -0.154825  0.000807  3.665368  0.002  -0.197562  0.000711  3.929123  0.002  -0.200206  0.000409  3.942878  0.001  -0.162519  -0.195732  0.001186  3.91929  0.002
C  C71  1  0.79526355  0.49708972  0.71076091  1  -0.154213  0.000812  3.666027  0.002  -0.196842  0.000715  3.930378  0.002  -0.199615  0.000416  3.944283  0.001  -0.162526  -0.194998  0.001195  3.92047  0.002
C  C72  1  0.70154781  0.28961937  0.50292008  1  -0.154786  0.000786  3.665353  0.002  -0.197422  0.000711  3.928941  0.002  -0.200067  0.000409  3.94269  0.001  -0.162469  -0.195591  0.001186  3.919113  0.002
C  C73  1  0.20473860  0.50291164  0.28923810  1  -0.154099  0.000811  3.665966  0.002  -0.196686  0.000715  3.930296  0.002  -0.199457  0.000416  3.9442  0.001  -0.162491  -0.194835  0.001194  3.920379  0.002
C  C74  1  0.89528331  0.26757095  0.42868149  1  0.044456  -0.004245  3.6629  -0.005  -0.014064  -0.001363  3.937245  -0.002  -0.008694  -0.001744  3.950345  -0.002  -0.07148  -0.017725  -0.000765  3.928041  -0.002
C  C75  1  0.39925739  0.43025063  0.26825169  1  0.049852  -0.004211  3.658265  -0.005  -0.008706  -0.001344  3.933132  -0.002  -0.003381  -0.001725  3.946285  -0.002  -0.069487  -0.01229  -0.000752  3.923903  -0.002
C  C76  1  0.10471758  0.73242572  0.57132058  1  0.04471  -0.004275  3.662771  -0.005  -0.013886  -0.001362  3.937214  -0.002  -0.008519  -0.001744  3.950314  -0.002  -0.071375  -0.017547  -0.000765  3.928006  -0.002
C  C77  1  0.60074255  0.56975265  0.73174702  1  0.049767  -0.004255  3.65839  -0.005  -0.008691  -0.001346  3.933197  -0.002  -0.003361  -0.001733  3.946352  -0.002  -0.069529  -0.012278  -0.000753  3.923972  -0.002
C  C78  1  0.98753570  0.04321582  0.88635032  1  -0.063802  0.004379  3.760374  0.006  -0.044711  0.002802  3.994808  0.004  -0.05079  0.002013  4.016644  0.003  -0.021475  -0.040644  0.003642  3.979693  0.005
C  C79  1  0.48671262  0.88668438  0.04209672  1  -0.058306  0.004307  3.755082  0.006  -0.040502  0.002784  3.991271  0.004  -0.046554  0.001989  4.013188  0.003  -0.020439  -0.036417  0.003634  3.976047  0.005
C  C80  1  0.01245736  0.95678195  0.11365213  1  -0.063849  0.004328  3.760617  0.006  -0.044747  0.002803  3.994998  0.004  -0.050844  0.002012  4.016872  0.003  -0.021454  -0.040683  0.003642  3.979897  0.005
C  C81  1  0.51328532  0.11332272  0.95790337  1  -0.058271  0.004336  3.755249  0.006  -0.040364  0.002785  3.99129  0.004  -0.046413  0.00199  4.013209  0.003  -0.020402  -0.036279  0.003634  3.976062  0.005
C  C82  1  0.95882943  0.93337985  0.92368166  1  -0.074786  -0.000873  3.762771  -0.001  -0.095622  -0.000227  4.010801  0.0  -0.096542  -0.000209  4.031406  0.0  -0.087702  -0.094796  -0.000219  3.996241  0.0
C  C83  1  0.45630387  0.92608274  0.93268178  1  -0.080461  -0.000771  3.764006  -0.001  -0.100358  -0.000216  4.01251  0.0  -0.101381  -0.000201  4.033167  0.0  -0.089053  -0.099449  -0.000203  3.997838  0.0
C  C84  1  0.04115819  0.06661898  0.07632402  1  -0.074827  -0.000775  3.762967  -0.001  -0.095674  -0.000227  4.010975  0.0  -0.096587  -0.000209  4.031586  0.0  -0.087778  -0.094851  -0.000219  3.996424  0.0
C  C85  1  0.54369459  0.07392340  0.06731730  1  -0.080512  -0.00084  3.764287  -0.001  -0.100456  -0.000216  4.012775  0.0  -0.101481  -0.000199  4.033433  0.0  -0.089077  -0.09955  -0.000203  3.998117  0.0
C  C86  1  0.02922576  0.10905281  0.96367747  1  -0.082046  -0.000141  3.766476  0.0  -0.103625  0.000127  4.015985  0.0  -0.104975  6e-05  4.036597  0.0  -0.089496  -0.102711  0.000229  4.002429  0.001
C  C87  1  0.53098718  0.96149052  0.10856588  1  -0.083379  -1.9e-05  3.76354  0.0  -0.104664  0.000126  4.012947  0.0  -0.106023  5.7e-05  4.033626  0.0  -0.08986  -0.10371  0.00023  3.999258  0.001
C  C88  1  0.97076701  0.89094780  0.03632677  1  -0.08204  9e-06  3.766413  0.0  -0.10361  0.000127  4.015932  0.0  -0.104955  5.7e-05  4.036554  0.0  -0.089507  -0.102706  0.000229  4.002362  0.001
C  C89  1  0.46901012  0.03852036  0.89142905  1  -0.083393  -5.6e-05  3.763365  0.0  -0.104697  0.000126  4.012709  0.0  -0.106054  5.7e-05  4.033383  0.0  -0.089831  -0.103734  0.00023  3.999028  0.001
C  C90  1  0.97520628  0.08911222  0.76406221  1  0.62943  -0.003545  3.917375  -0.003  0.582828  -0.000363  4.221615  0.0  0.618271  -0.000445  4.213324  0.0  0.20216  0.558207  -0.000279  4.226864  0.0
C  C91  1  0.47368436  0.76488099  0.08764860  1  0.630433  -0.003547  3.917643  -0.003  0.58379  -0.000351  4.222704  0.0  0.619182  -0.00045  4.214553  0.0  0.203135  0.559234  -0.000233  4.227781  0.0
C  C92  1  0.02478753  0.91088647  0.23593914  1  0.629388  -0.003538  3.917611  -0.003  0.582853  -0.000363  4.22175  0.0  0.618292  -0.000445  4.213474  0.0  0.202179  0.558232  -0.000279  4.227006  0.0
C  C93  1  0.52631298  0.23512517  0.91234552  1  0.630317  -0.003551  3.91796  -0.003  0.583645  -0.00035  4.223031  0.0  0.619034  -0.000449  4.214884  0.0  0.203  0.55909  -0.000232  4.228107  0.0
N  N94  1  0.01572660  0.17734867  0.48021460  1  -0.379671  0.056288  3.276818  0.088  -0.331172  0.038393  3.546039  0.061  -0.35802  0.030235  3.559057  0.051  -0.494985  -0.311597  0.04385  3.535409  0.066
N  N95  1  0.51732671  0.48180905  0.17777626  1  -0.385517  0.05628  3.274081  0.088  -0.339118  0.038366  3.546293  0.061  -0.366382  0.030202  3.559509  0.051  -0.496362  -0.319293  0.043796  3.535746  0.066
N  N96  1  0.98427529  0.82264608  0.51978634  1  -0.379823  0.056301  3.277073  0.088  -0.331212  0.038392  3.546194  0.061  -0.358057  0.030234  3.559218  0.051  -0.494991  -0.311637  0.043851  3.535561  0.066
N  N97  1  0.48267274  0.51819519  0.82222258  1  -0.385417  0.056294  3.274076  0.088  -0.339135  0.038368  3.546391  0.061  -0.366389  0.030204  3.559584  0.051  -0.496391  -0.319313  0.043799  3.535845  0.066
N  N98  1  0.27553338  0.92554994  0.44121562  1  -0.376215  0.055186  3.24937  0.087  -0.330916  0.038341  3.521747  0.061  -0.357457  0.030206  3.535109  0.051  -0.488737  -0.311117  0.043979  3.511189  0.067
N  N99  1  0.77488505  0.44158897  0.92642608  1  -0.375497  0.054901  3.244328  0.086  -0.328622  0.03808  3.516095  0.061  -0.35513  0.030024  3.529245  0.051  -0.48816  -0.308711  0.043659  3.505586  0.066
N  N100  1  0.72446974  0.07444479  0.55878498  1  -0.376372  0.055168  3.24947  0.087  -0.33095  0.038343  3.521859  0.061  -0.357503  0.030211  3.535238  0.051  -0.488689  -0.311121  0.04398  3.511227  0.067
N  N101  1  0.22511611  0.55841429  0.07357318  1  -0.375526  0.054904  3.244418  0.086  -0.328681  0.03808  3.516182  0.061  -0.35519  0.030024  3.529331  0.051  -0.488155  -0.308765  0.043661  3.505655  0.066
O  O102  1  0.96556331  0.01115259  0.69112950  1  -0.60703  0.040281  2.111848  0.068  -0.571353  0.028809  2.389168  0.049  -0.607031  0.021823  2.382882  0.039  -0.31718  -0.545745  0.035524  2.392782  0.058
O  O103  1  0.46297463  0.69250486  0.00974751  1  -0.60563  0.040392  2.09687  0.068  -0.570489  0.028751  2.373885  0.049  -0.606218  0.021672  2.367707  0.039  -0.316671  -0.544685  0.035586  2.377431  0.058
O  O104  1  0.03443586  0.98884505  0.30887302  1  -0.606991  0.040278  2.111754  0.068  -0.571391  0.02881  2.389116  0.049  -0.607065  0.021824  2.382835  0.039  -0.317215  -0.545782  0.035525  2.392737  0.058
O  O105  1  0.53702818  0.30750025  0.99024249  1  -0.605512  0.04039  2.097039  0.068  -0.570378  0.028751  2.374076  0.049  -0.606108  0.021673  2.367907  0.039  -0.316547  -0.544575  0.035585  2.377622  0.058
O  O106  1  0.97826980  0.19752173  0.74127802  1  -0.626842  -0.002353  1.931674  -0.001  -0.578285  -0.001434  2.150199  -0.001  -0.600464  -0.001617  2.140246  -0.001  -0.329346  -0.562273  -0.001191  2.156738  0.0
O  O107  1  0.47744161  0.74192240  0.19626961  1  -0.629049  -0.002205  1.935708  -0.001  -0.580238  -0.001329  2.154458  -0.001  -0.60247  -0.001521  2.144491  -0.001  -0.330127  -0.564112  -0.001069  2.160916  0.0
O  O108  1  0.02172372  0.80247980  0.25872512  1  -0.626761  -0.002363  1.931905  -0.001  -0.578234  -0.001434  2.15042  -0.001  -0.600408  -0.001617  2.140471  -0.001  -0.329317  -0.562217  -0.001191  2.156956  0.0
O  O109  1  0.52255350  0.25808098  0.80372692  1  -0.629073  -0.002195  1.935779  -0.001  -0.580264  -0.001329  2.154548  -0.001  -0.602499  -0.001525  2.144588  -0.001  -0.330147  -0.564141  -0.001069  2.161  0.0
