# generated using pymatgen
data_Zn2H16C23IN8O
_symmetry_space_group_name_H-M   'P 1'
_cell_length_a   14.82706907
_cell_length_b   14.67093021
_cell_length_c   15.46524988
_cell_angle_alpha   107.64711214
_cell_angle_beta   113.39901449
_cell_angle_gamma   105.70952519
_symmetry_Int_Tables_number   1
_chemical_formula_structural   Zn2H16C23IN8O
_chemical_formula_sum   'Zn4 H32 C46 I2 N16 O2'
_cell_volume   2631.49356162
_cell_formula_units_Z   2
loop_
 _symmetry_equiv_pos_site_id
 _symmetry_equiv_pos_as_xyz
  1  'x, y, z'
loop_
 _atom_site_type_symbol
 _atom_site_label
 _atom_site_symmetry_multiplicity
 _atom_site_fract_x
 _atom_site_fract_y
 _atom_site_fract_z
 _atom_site_occupancy
 _atom_site_pbe_bader_charge
 _atom_site_pbe_bader_spin_density
 _atom_site_pbe_cm5_charge
 _atom_site_pbe_ddec_charge
 _atom_site_pbe_ddec_spin_density
 _atom_site_pbe_ddec_sum_bond_order
 _atom_site_pbe_magmom
Zn  Zn0  1  0.14535291  0.55262597  0.61979690  1  1.180904  0  0.753784  0.613347  0  2.487807  0
Zn  Zn1  1  0.85785514  0.32696367  0.49314590  1  1.197153  0  0.728045  0.596138  0  2.510777  0
Zn  Zn2  1  0.86563146  0.48504647  0.37638472  1  1.193495  0  0.741891  0.606011  0  2.494463  0
Zn  Zn3  1  0.13404774  0.66710355  0.49366623  1  1.175504  0  0.757253  0.622146  0  2.446558  0
H  H4  1  0.21637362  0.59472656  0.85821191  1  0.106775  0  0.113041  0.102982  0  1.018605  0
H  H5  1  0.60196220  0.83307059  0.97895248  1  0.04108  0  0.086635  0.066497  0  1.012171  0
H  H6  1  0.79444223  0.99150749  0.02099156  1  0.033754  0  0.091162  0.07661  0  1.00503  0
H  H7  1  0.09696368  0.12153302  0.73286692  1  0.0745  0  0.098432  0.099357  0  1.025561  0
H  H8  1  0.90863995  0.40551206  0.85232390  1  0.089972  0  0.099972  0.098431  0  1.02965  0
H  H9  1  0.90344279  0.85114713  0.64005215  1  0.062498  0  0.088692  0.088401  0  1.050289  0
H  H10  1  0.04036669  0.64384134  0.11402580  1  0.099307  0  0.08341  0.080986  0  1.082726  0
H  H11  1  0.79989463  0.19183273  0.63338466  1  0.072388  0  0.101394  0.088866  0  1.026715  0
H  H12  1  0.42168371  0.42296351  0.25311299  1  0.041805  0  0.093522  0.089323  0  0.999737  0
H  H13  1  0.28142396  0.45746708  0.27400125  1  0.014705  0  0.093607  0.088471  0  1.003336  0
H  H14  1  0.43910898  0.33092186  0.41002589  1  0.042194  0  0.097326  0.095839  0  0.998622  0
H  H15  1  0.26321981  0.29922125  0.36632842  1  0.034104  0  0.098382  0.098248  0  0.997162  0
H  H16  1  0.82683836  0.65313452  0.52138875  1  0.082902  0  0.127802  0.115721  0  0.980037  0
H  H17  1  0.12280389  0.73480130  0.31865991  1  0.120828  0  0.124488  0.113336  0  0.980043  0
H  H18  1  0.62282650  0.29267172  0.47874305  1  0.080859  0  0.116576  0.106104  0  0.995246  0
H  H19  1  0.15920741  0.33425360  0.48233953  1  0.089282  0  0.123899  0.115403  0  0.984752  0
H  H20  1  0.38881702  0.89143754  0.65878674  1  0.077835  0  0.120768  0.111707  0  0.987981  0
H  H21  1  0.81925203  0.32143788  0.15514883  1  0.100946  0  0.109282  0.101236  0  1.074705  0
H  H22  1  0.61001877  0.46363493  0.29317051  1  0.08702  0  0.117916  0.10502  0  0.996486  0
H  H23  1  0.16339888  0.51935997  0.31070148  1  0.086706  0  0.115793  0.100016  0  1.006149  0
H  H24  1  0.40179918  0.70365122  0.82790614  1  0.10567  0  0.118493  0.105838  0  1.002128  0
H  H25  1  0.79744296  0.11743659  0.30516556  1  0.107558  0  0.116105  0.109199  0  1.016037  0
H  H26  1  0.18148020  0.80527192  0.72470889  1  0.201694  0  0.124408  0.126171  0  1.044133  0
H  H27  1  0.44856567  0.01639776  0.93541798  1  0.087069  0  0.090324  0.085289  0  1.025187  0
H  H28  1  0.80378917  0.46358089  0.14648782  1  0.197396  0  0.127446  0.121588  0  1.024694  0
H  H29  1  0.86265265  0.42465996  0.69891571  1  0.107578  0  0.121913  0.108755  0  0.99131  0
H  H30  1  0.01263030  0.08887466  0.54594096  1  0.085053  0  0.107342  0.096139  0  0.99874  0
H  H31  1  0.57849845  0.99383190  0.11436653  1  0.05497  0  0.089867  0.074493  0  1.004116  0
H  H32  1  0.66690943  0.01619981  0.84488677  1  0.034588  0  0.080633  0.067381  0  1.02814  0
H  H33  1  0.64433403  0.17666937  0.97917895  1  0.063155  0  0.089121  0.08075  0  1.024202  0
H  H34  1  0.22814057  0.10530667  0.83745688  1  0.025576  0  0.093589  0.024054  0  0.968496  0
H  H35  1  0.84706069  0.30949103  0.90951359  1  0.059171  0  0.097041  0.028607  0  0.971393  0
C  C36  1  0.12852167  0.54660309  0.80281831  1  0.400404  0  0.006001  -0.048059  0  3.970691  0
C  C37  1  0.18221827  0.40140833  0.37471176  1  0.023753  0  -0.033949  0.016642  0  4.102759  0
C  C38  1  0.56751883  0.37041724  0.37566657  1  0.049684  0  -0.042975  0.00396  0  4.153407  0
C  C39  1  0.44183032  0.83410846  0.78203778  1  0.053014  0  -0.031221  -0.029154  0  4.074854  0
C  C40  1  0.78127986  0.17901401  0.18452760  1  0.025105  0  -0.040296  -0.045598  0  4.075126  0
C  C41  1  0.52704014  0.01309740  0.95697038  1  -0.059287  0  -0.083232  -0.086147  0  3.632545  0
C  C42  1  0.63335268  0.09971623  0.97881025  1  -0.03997  0  -0.086809  -0.088531  0  3.647992  0
C  C43  1  0.85100406  0.17617995  0.60198155  1  0.413207  0  -0.011739  -0.062207  0  4.007558  0
C  C44  1  0.59692381  0.99793109  0.05333403  1  -0.048895  0  -0.085124  -0.086693  0  3.662957  0
C  C45  1  0.64668677  0.01118100  0.90473387  1  -0.03491  0  -0.08493  -0.083544  0  3.652617  0
C  C46  1  0.70426467  0.08733127  0.07787163  1  0.036049  0  -0.00064  0.08777  0  3.678353  0
C  C47  1  0.53925741  0.92282197  0.88143717  1  0.061789  0  -0.005639  0.074379  0  3.710201  0
C  C48  1  0.71750318  0.99739817  0.00234575  1  -0.019192  0  -0.081547  -0.084708  0  3.638307  0
C  C49  1  0.61082270  0.90997661  0.97958861  1  -0.060018  0  -0.087635  -0.091449  0  3.681325  0
C  C50  1  0.03035497  0.05610827  0.72353647  1  -0.087256  0  -0.119987  -0.213239  0  4.045224  0
C  C51  1  0.96530662  0.47946485  0.92780342  1  -0.05504  0  -0.107827  -0.186929  0  4.041871  0
C  C52  1  0.93408850  0.06335765  0.68281055  1  -0.18203  0  -0.047405  0.049191  0  3.925269  0
C  C53  1  0.04693613  0.54329530  0.92320119  1  -0.206003  0  -0.048009  0.036211  0  3.919315  0
C  C54  1  0.06299252  0.97453392  0.73988436  1  -0.008616  0  -0.033353  0.009062  0  4.021072  0
C  C55  1  0.93403960  0.48248135  0.00635550  1  0.026493  0  -0.03651  -0.002297  0  4.031486  0
C  C56  1  0.91394242  0.67374446  0.56109693  1  0.482812  0  0.037556  -0.003862  0  3.888685  0
C  C57  1  0.04539732  0.67112631  0.29321532  1  0.35008  0  0.02191  -0.036786  0  3.948568  0
C  C58  1  0.98972920  0.86732894  0.68203639  1  -0.011905  0  -0.066854  -0.091814  0  3.88239  0
C  C59  1  0.00380684  0.77213465  0.64844896  1  0.055042  0  -0.026459  0.018281  0  4.052442  0
C  C60  1  0.97695873  0.57258569  0.10009250  1  -0.08353  0  -0.065568  -0.086225  0  3.900011  0
C  C61  1  0.39608572  0.39117193  0.29943484  1  -0.072916  0  -0.109426  -0.104568  0  4.076775  0
C  C62  1  0.30215371  0.40084309  0.30060868  1  -0.040789  0  -0.108403  -0.10224  0  4.079813  0
C  C63  1  0.46221134  0.35986373  0.36094157  1  -0.002858  0  -0.098534  -0.122402  0  4.040573  0
C  C64  1  0.24730205  0.35884743  0.34237933  1  0.002153  0  -0.097124  -0.126716  0  4.028428  0
C  C65  1  0.96306727  0.58874412  0.18929477  1  0.043207  0  -0.030099  0.010036  0  4.078736  0
C  C66  1  0.63752630  0.33743703  0.43717822  1  0.384166  0  0.004371  -0.063228  0  3.989183  0
C  C67  1  0.15452860  0.38966864  0.44933838  1  0.414456  0  0.01886  -0.034746  0  3.924223  0
C  C68  1  0.37523490  0.83143672  0.68561136  1  0.386663  0  0.009571  -0.047789  0  3.981466  0
C  C69  1  0.82298112  0.28715750  0.20879598  1  0.363014  0  -0.003152  -0.066028  0  3.993515  0
C  C70  1  0.62989546  0.42327155  0.34134166  1  0.387648  0  0.007251  -0.058798  0  3.979876  0
C  C71  1  0.15640774  0.48378833  0.36136364  1  0.412188  0  0.013251  -0.034741  0  3.941412  0
C  C72  1  0.38144059  0.73541648  0.77162328  1  0.37615  0  0.00852  -0.051291  0  4.004375  0
C  C73  1  0.81090478  0.18191446  0.28404237  1  0.396922  0  0.007856  -0.045629  0  3.965263  0
C  C74  1  0.09563499  0.75253558  0.66474635  1  0.32101  0  0.020926  -0.026449  0  3.863782  0
C  C75  1  0.88317168  0.53119978  0.20574955  1  0.412014  0  0.032471  -0.009299  0  3.915411  0
C  C76  1  0.94789355  0.45996268  0.72087474  1  0.467151  0  0.018828  -0.029357  0  3.943891  0
C  C77  1  0.96108276  0.12577936  0.55747548  1  0.457836  0  -0.002679  -0.046701  0  4.047345  0
C  C78  1  0.04360209  0.51999775  0.82348874  1  -0.014418  0  -0.044723  -0.026424  0  4.120923  0
C  C79  1  0.91503650  0.12106768  0.62212439  1  0.003377  0  -0.061422  -0.052064  0  4.148717  0
C  C80  1  0.18314962  0.01698202  0.80614235  1  0.934937  0  0.091156  0.269701  0  3.981082  0
C  C81  1  0.85354308  0.37574171  0.97492004  1  0.895205  0  0.095441  0.271664  0  3.969897  0
I  I82  1  0.79920278  0.97742902  0.69195599  1  0.022655  0  0.017995  -0.099836  0  1.330967  0
I  I83  1  0.18883339  0.68186081  0.05687106  1  0.074259  0  0.064777  -0.044993  0  1.363193  0
N  N84  1  0.08587012  0.50318346  0.69673999  1  -0.796995  0  -0.286355  -0.163797  0  3.612351  0
N  N85  1  0.11958807  0.46226398  0.48038761  1  -0.809067  0  -0.290747  -0.191987  0  3.627419  0
N  N86  1  0.73280397  0.36788656  0.43906328  1  -0.805453  0  -0.27364  -0.180671  0  3.562893  0
N  N87  1  0.28218720  0.73806795  0.62335190  1  -0.831455  0  -0.287008  -0.196006  0  3.618013  0
N  N88  1  0.87159838  0.34948216  0.31452984  1  -0.788007  0  -0.295675  -0.192032  0  3.633704  0
N  N89  1  0.72766881  0.42131492  0.37945092  1  -0.775323  0  -0.271252  -0.170679  0  3.576858  0
N  N90  1  0.12052978  0.51975015  0.42551715  1  -0.81126  0  -0.291044  -0.205767  0  3.638074  0
N  N91  1  0.86087454  0.20999140  0.53250733  1  -0.81748  0  -0.289181  -0.191892  0  3.605124  0
N  N92  1  0.28612267  0.67871291  0.67720451  1  -0.819735  0  -0.289205  -0.188746  0  3.602426  0
N  N93  1  0.86414846  0.28428152  0.36096065  1  -0.795351  0  -0.282922  -0.178875  0  3.606912  0
N  N94  1  0.06258014  0.65298695  0.58932531  1  -0.833955  0  -0.295167  -0.215432  0  3.587062  0
N  N95  1  0.91731506  0.57244428  0.30926384  1  -0.786807  0  -0.267034  -0.172751  0  3.499252  0
N  N96  1  0.97374232  0.45011428  0.64588379  1  -0.777598  0  -0.262283  -0.162409  0  3.519191  0
N  N97  1  0.92929171  0.17865836  0.50482756  1  -0.743999  0  -0.271657  -0.231584  0  3.276839  0
N  N98  1  0.94951058  0.60482886  0.52633395  1  -0.828754  0  -0.278051  -0.177536  0  3.579162  0
N  N99  1  0.01982184  0.65993837  0.36492187  1  -0.810824  0  -0.285577  -0.190557  0  3.530251  0
O  O100  1  0.23532011  0.96710691  0.83007705  1  -1.098314  0  -0.262602  -0.365547  0  2.17429  0
O  O101  1  0.79641938  0.35392188  0.01240017  1  -1.090423  0  -0.253422  -0.358551  0  2.211224  0
