# generated using pymatgen
data_CdH12C15N3O7
_symmetry_space_group_name_H-M   'P 1'
_cell_length_a   7.43722970
_cell_length_b   9.91849651
_cell_length_c   11.58314694
_cell_angle_alpha   90.55560989
_cell_angle_beta   93.27265662
_cell_angle_gamma   106.88678315
_symmetry_Int_Tables_number   1
_chemical_formula_structural   CdH12C15N3O7
_chemical_formula_sum   'Cd2 H24 C30 N6 O14'
_cell_volume   815.95862655
_cell_formula_units_Z   2
loop_
 _symmetry_equiv_pos_site_id
 _symmetry_equiv_pos_as_xyz
  1  'x, y, z'
loop_
 _atom_site_type_symbol
 _atom_site_label
 _atom_site_symmetry_multiplicity
 _atom_site_fract_x
 _atom_site_fract_y
 _atom_site_fract_z
 _atom_site_occupancy
 _atom_site_hle17_bader_spin_density
 _atom_site_hle17_ddec_charge
 _atom_site_hle17_ddec_spin_density
 _atom_site_hle17_ddec_sum_bond_order
 _atom_site_hle17_magmom
 _atom_site_hse06_10hf_bader_spin_density
 _atom_site_hse06_10hf_ddec_charge
 _atom_site_hse06_10hf_ddec_spin_density
 _atom_site_hse06_10hf_ddec_sum_bond_order
 _atom_site_hse06_10hf_magmom
 _atom_site_hse06_bader_spin_density
 _atom_site_hse06_ddec_charge
 _atom_site_hse06_ddec_spin_density
 _atom_site_hse06_ddec_sum_bond_order
 _atom_site_hse06_magmom
 _atom_site_pbe_bader_spin_density
 _atom_site_pbe_cm5_charge
 _atom_site_pbe_ddec_charge
 _atom_site_pbe_ddec_spin_density
 _atom_site_pbe_ddec_sum_bond_order
 _atom_site_pbe_magmom
Cd  Cd0  1  0.98285151  0.28479617  0.45463327  1  0  1.191608  0  1.613518  0  0  1.009447  0  2.059864  0  0  1.066248  0  2.004665  0  0  0.778394  0.968795  0  2.097775  0
Cd  Cd1  1  0.01714885  0.71520077  0.54536796  1  0  1.191546  0  1.613739  0  0  1.009376  0  2.060078  0  0  1.066167  0  2.004896  0  0  0.77836  0.96872  0  2.097986  0
H  H2  1  0.23506896  0.09872352  0.44607572  1  0  0.427299  0  0.881536  0  0  0.391836  0  0.953035  0  0  0.403642  0  0.936009  0  0  0.284539  0.383512  0  0.96501  0
H  H3  1  0.76493914  0.90127224  0.55391894  1  0  0.427315  0  0.881519  0  0  0.391837  0  0.953043  0  0  0.403643  0  0.936016  0  0  0.284523  0.383512  0  0.965018  0
H  H4  1  0.30439655  0.22866727  0.36084665  1  0  0.429874  0  0.812518  0  0  0.414946  0  0.860635  0  0  0.423243  0  0.851515  0  0  0.322895  0.40902  0  0.867234  0
H  H5  1  0.69561007  0.77133489  0.63915230  1  0  0.429891  0  0.812595  0  0  0.414986  0  0.860676  0  0  0.423287  0  0.851546  0  0  0.322884  0.409055  0  0.867283  0
H  H6  1  0.47357383  0.80896470  0.46883425  1  0  0.102688  0  0.961508  0  0  0.108902  0  1.031179  0  0  0.113197  0  1.02657  0  0  0.109336  0.105718  0  1.034592  0
H  H7  1  0.52642333  0.19103761  0.53116859  1  0  0.102697  0  0.96154  0  0  0.108908  0  1.031208  0  0  0.113202  0  1.026601  0  0  0.109361  0.105725  0  1.034624  0
H  H8  1  0.62790222  0.99036541  0.13896509  1  0  0.127177  0  0.964051  0  0  0.128164  0  1.038101  0  0  0.132324  0  1.034144  0  0  0.115759  0.125175  0  1.040908  0
H  H9  1  0.37209516  0.00962735  0.86103080  1  0  0.127139  0  0.964099  0  0  0.128154  0  1.038084  0  0  0.132317  0  1.034127  0  0  0.115756  0.125158  0  1.040893  0
H  H10  1  0.25394034  0.56796847  0.15584531  1  0  0.124423  0  0.956839  0  0  0.12917  0  1.026245  0  0  0.133329  0  1.022168  0  0  0.117163  0.126232  0  1.028946  0
H  H11  1  0.74605698  0.43202429  0.84415317  1  0  0.124441  0  0.956883  0  0  0.129214  0  1.026283  0  0  0.133371  0  1.02221  0  0  0.117186  0.126274  0  1.028985  0
H  H12  1  0.89716546  0.06700263  0.68496246  1  0  0.107541  0  0.963127  0  0  0.116484  0  1.02759  0  0  0.119526  0  1.023768  0  0  0.13544  0.114215  0  1.030339  0
H  H13  1  0.10284728  0.93300154  0.31504196  1  0  0.107596  0  0.963074  0  0  0.116539  0  1.027533  0  0  0.119582  0  1.02371  0  0  0.135427  0.114269  0  1.030281  0
H  H14  1  0.25926849  0.48263045  0.68035701  1  0  0.123962  0  0.94528  0  0  0.134821  0  1.00014  0  0  0.137985  0  0.997856  0  0  0.121728  0.132465  0  1.002001  0
H  H15  1  0.74073173  0.51737605  0.31964772  1  0  0.124098  0  0.945134  0  0  0.13486  0  1.000108  0  0  0.138022  0  0.99783  0  0  0.121774  0.132503  0  1.001974  0
H  H16  1  0.26350229  0.38819436  0.90412708  1  0  0.123168  0  0.969482  0  0  0.132667  0  1.02878  0  0  0.135282  0  1.027526  0  0  0.124613  0.130747  0  1.029871  0
H  H17  1  0.73649434  0.61181644  0.09587751  1  0  0.123139  0  0.969489  0  0  0.132639  0  1.02885  0  0  0.135253  0  1.027596  0  0  0.124611  0.13072  0  1.029941  0
H  H18  1  0.19357453  0.35022725  0.09176197  1  0  0.112239  0  0.941086  0  0  0.135504  0  1.000762  0  0  0.136829  0  0.99948  0  0  0.092997  0.134428  0  1.0018  0
H  H19  1  0.80641780  0.64976983  0.90823889  1  0  0.112229  0  0.94102  0  0  0.135487  0  1.000718  0  0  0.13682  0  0.999426  0  0  0.092963  0.13441  0  1.001754  0
H  H20  1  0.96873548  0.29493932  0.14795624  1  0  0.137612  0  0.937651  0  0  0.160316  0  0.993048  0  0  0.162307  0  0.992152  0  0  0.099403  0.15881  0  0.993716  0
H  H21  1  0.03125066  0.70505575  0.85204260  1  0  0.13765  0  0.937711  0  0  0.160343  0  0.993092  0  0  0.162338  0  0.992187  0  0  0.099455  0.158828  0  0.993765  0
H  H22  1  0.99196026  0.35365882  0.00350220  1  0  0.107311  0  0.963459  0  0  0.124827  0  1.031941  0  0  0.125938  0  1.032205  0  0  0.08864  0.124455  0  1.030737  0
H  H23  1  0.00802993  0.64633618  0.99649511  1  0  0.107345  0  0.963391  0  0  0.124826  0  1.031886  0  0  0.125937  0  1.032153  0  0  0.08863  0.124454  0  1.030683  0
H  H24  1  0.01908094  0.92893494  0.79790211  1  0  0.115404  0  0.977288  0  0  0.124303  0  1.042606  0  0  0.127021  0  1.041626  0  0  0.107042  0.122229  0  1.043456  0
H  H25  1  0.98092609  0.07106508  0.20209944  1  0  0.11534  0  0.977189  0  0  0.124221  0  1.042554  0  0  0.126955  0  1.041554  0  0  0.107009  0.122148  0  1.043408  0
C  C26  1  0.69965745  0.04159763  0.37171638  1  0  0.635838  0  3.918732  0  0  0.584231  0  4.208648  0  0  0.618652  0  4.203919  0  0  0.201099  0.560916  0  4.211039  0
C  C27  1  0.30034391  0.95840461  0.62827801  1  0  0.635865  0  3.918671  0  0  0.584284  0  4.20858  0  0  0.618702  0  4.20385  0  0  0.20107  0.560969  0  4.210971  0
C  C28  1  0.23746068  0.55968210  0.38999900  1  0  0.64797  0  3.932423  0  0  0.595858  0  4.222267  0  0  0.63122  0  4.216261  0  0  0.202523  0.571858  0  4.225575  0
C  C29  1  0.76254220  0.44031798  0.61000841  1  0  0.647865  0  3.932485  0  0  0.595713  0  4.222408  0  0  0.631076  0  4.216406  0  0  0.202495  0.571717  0  4.225712  0
C  C30  1  0.34872443  0.67814202  0.31978658  1  0  -0.062657  0  3.749237  0  0  -0.033229  0  3.983889  0  0  -0.045176  0  4.008343  0  0  -0.013921  -0.025742  0  3.967556  0
C  C31  1  0.65127546  0.32186024  0.68021380  1  0  -0.062553  0  3.749116  0  0  -0.03311  0  3.983869  0  0  -0.045057  0  4.008325  0  0  -0.013915  -0.025626  0  3.967538  0
C  C32  1  0.46475789  0.80126082  0.37488465  1  0  -0.029283  0  3.658535  0  0  -0.074579  0  3.912914  0  0  -0.068859  0  3.929557  0  0  -0.060923  -0.077879  0  3.901588  0
C  C33  1  0.53524069  0.19873828  0.62511564  1  0  -0.029321  0  3.658469  0  0  -0.074615  0  3.912946  0  0  -0.068898  0  3.929591  0  0  -0.060941  -0.077917  0  3.901623  0
C  C34  1  0.56665238  0.91391095  0.31098769  1  0  -0.053344  0  3.715001  0  0  -0.02435  0  3.949928  0  0  -0.035382  0  3.972399  0  0  -0.009732  -0.017514  0  3.934989  0
C  C35  1  0.43334978  0.08609022  0.68901105  1  0  -0.053443  0  3.714951  0  0  -0.024447  0  3.949964  0  0  -0.035473  0  3.97243  0  0  -0.009787  -0.017611  0  3.935022  0
C  C36  1  0.55163926  0.90358713  0.19015187  1  0  -0.061349  0  3.650802  0  0  -0.10541  0  3.912074  0  0  -0.099102  0  3.926738  0  0  -0.060274  -0.108973  0  3.901895  0
C  C37  1  0.44836337  0.09640872  0.80984773  1  0  -0.0616  0  3.652434  0  0  -0.10529  0  3.911986  0  0  -0.098977  0  3.926629  0  0  -0.060194  -0.108846  0  3.901798  0
C  C38  1  0.44182457  0.77754303  0.13684732  1  0  0.05803  0  3.706196  0  0  0.046187  0  3.966815  0  0  0.040497  0  3.988911  0  0  0.072715  0.049545  0  3.951801  0
C  C39  1  0.55817364  0.22245502  0.86314950  1  0  0.050611  0  3.70234  0  0  0.046182  0  3.966734  0  0  0.040494  0  3.988833  0  0  0.072684  0.04954  0  3.951716  0
C  C40  1  0.33866733  0.66503843  0.19931414  1  0  -0.073939  0  3.673111  0  0  -0.119757  0  3.936744  0  0  -0.114138  0  3.952203  0  0  -0.064572  -0.122874  0  3.925974  0
C  C41  1  0.66133176  0.33495854  0.80068358  1  0  -0.074406  0  3.67491  0  0  -0.119845  0  3.936862  0  0  -0.11423  0  3.952327  0  0  -0.064587  -0.122962  0  3.926092  0
C  C42  1  0.99602716  0.16746490  0.71216868  1  0  0.169704  0  3.641036  0  0  0.107886  0  3.907547  0  0  0.121846  0  3.921519  0  0  0.139472  0.098844  0  3.897771  0
C  C43  1  0.00397932  0.83254044  0.28783546  1  0  0.169505  0  3.640835  0  0  0.107689  0  3.907337  0  0  0.121645  0  3.92131  0  0  0.139436  0.098652  0  3.897558  0
C  C44  1  0.18555215  0.38197615  0.71497155  1  0  0.013909  0  3.731503  0  0  -0.020815  0  3.998052  0  0  -0.018717  0  4.018653  0  0  -0.001538  -0.022366  0  3.98423  0
C  C45  1  0.81444669  0.61803036  0.28503484  1  0  0.013734  0  3.731286  0  0  -0.020913  0  3.997854  0  0  -0.018814  0  4.01845  0  0  -0.001582  -0.022462  0  3.984031  0
C  C46  1  0.18697799  0.33632428  0.82617191  1  0  -0.057702  0  3.65514  0  0  -0.096957  0  3.91332  0  0  -0.096323  0  3.933457  0  0  5.9e-05  -0.097416  0  3.899869  0
C  C47  1  0.81302903  0.66367893  0.17382879  1  0  -0.057587  0  3.655013  0  0  -0.096853  0  3.913175  0  0  -0.096218  0  3.933311  0  0  0.000106  -0.097313  0  3.899725  0
C  C48  1  0.03138974  0.10157467  0.91563174  1  0  0.115791  0  3.746385  0  0  0.09856  0  4.001078  0  0  0.102008  0  4.025188  0  0  0.087906  0.096034  0  3.98507  0
C  C49  1  0.96860985  0.89842336  0.08436341  1  0  0.115765  0  3.746273  0  0  0.098521  0  4.000944  0  0  0.101968  0  4.025055  0  0  0.087888  0.095987  0  3.98495  0
C  C50  1  0.02295169  0.14486725  0.03066111  1  0  0.099407  0  3.726939  0  0  0.11764  0  3.974118  0  0  0.11727  0  3.998104  0  0  -0.007456  0.117599  0  3.958159  0
C  C51  1  0.97704561  0.85513187  0.96933653  1  0  0.09948  0  3.727019  0  0  0.117722  0  3.974149  0  0  0.117352  0  3.998134  0  0  -0.007435  0.117684  0  3.958187  0
C  C52  1  0.04444051  0.29387738  0.06973186  1  0  -0.336142  0  3.704158  0  0  -0.421423  0  3.944356  0  0  -0.422898  0  3.953176  0  0  -0.244223  -0.42004  0  3.937767  0
C  C53  1  0.95555319  0.70612286  0.93026649  1  0  -0.336198  0  3.704125  0  0  -0.421466  0  3.944332  0  0  -0.422949  0  3.953144  0  0  -0.244255  -0.420074  0  3.937749  0
C  C54  1  0.00844876  0.96010763  0.88703440  1  0  -0.183123  0  3.712888  0  0  -0.210263  0  3.965025  0  0  -0.214227  0  3.985705  0  0  -0.090293  -0.207465  0  3.951264  0
C  C55  1  0.99155212  0.03989038  0.11296255  1  0  -0.182972  0  3.712649  0  0  -0.210088  0  3.964783  0  0  -0.21406  0  3.985455  0  0  -0.090237  -0.207292  0  3.951033  0
N  N56  1  0.06597250  0.27576123  0.64496904  1  0  -0.412062  0  3.297104  0  0  -0.33151  0  3.583206  0  0  -0.354998  0  3.602706  0  0  -0.360402  -0.315344  0  3.569476  0
N  N57  1  0.93402864  0.72424101  0.35503571  1  0  -0.411949  0  3.297033  0  0  -0.331388  0  3.583102  0  0  -0.354873  0  3.602607  0  0  -0.360377  -0.315223  0  3.569368  0
N  N58  1  0.06579096  0.19952246  0.82382750  1  0  -0.088531  0  3.591517  0  0  0.003507  0  3.803144  0  0  -0.011901  0  3.830854  0  0  -0.224406  0.013691  0  3.784485  0
N  N59  1  0.93420536  0.80047773  0.17617356  1  0  -0.088489  0  3.591349  0  0  0.00353  0  3.802968  0  0  -0.011876  0  3.830678  0  0  -0.224422  0.013717  0  3.784309  0
N  N60  1  0.44749030  0.75801561  0.01103688  1  0  0.474019  0  3.933344  0  0  0.529453  0  4.189178  0  0  0.550615  0  4.197418  0  0  0.057483  0.515333  0  4.183652  0
N  N61  1  0.55250297  0.24198039  0.98896230  1  0  0.500421  0  3.892274  0  0  0.529433  0  4.189118  0  0  0.550594  0  4.197359  0  0  0.057517  0.515314  0  4.18359  0
O  O62  1  0.16214466  0.44188251  0.33670506  1  0  -0.622636  0  1.996455  0  0  -0.554848  0  2.240612  0  0  -0.585236  0  2.231114  0  0  -0.319493  -0.533637  0  2.246329  0
O  O63  1  0.83787343  0.55811201  0.66330214  1  0  -0.622686  0  1.996599  0  0  -0.55481  0  2.240689  0  0  -0.585199  0  2.231198  0  0  -0.31951  -0.533596  0  2.246397  0
O  O64  1  0.19349628  0.16118960  0.38860483  1  0  -0.829812  0  1.853171  0  0  -0.772632  0  2.048915  0  0  -0.793926  0  2.018958  0  0  -0.576698  -0.757546  0  2.069693  0
O  O65  1  0.80651042  0.83880937  0.61139152  1  0  -0.829805  0  1.853226  0  0  -0.772673  0  2.048957  0  0  -0.793969  0  2.018996  0  0  -0.576662  -0.757588  0  2.069738  0
O  O66  1  0.22338300  0.58231034  0.49704653  1  0  -0.673702  0  2.006951  0  0  -0.611255  0  2.25764  0  0  -0.638745  0  2.244122  0  0  -0.336192  -0.591827  0  2.266185  0
O  O67  1  0.77660741  0.41769844  0.50295690  1  0  -0.673699  0  2.006852  0  0  -0.611245  0  2.257536  0  0  -0.638717  0  2.243985  0  0  -0.336217  -0.591819  0  2.266081  0
O  O68  1  0.76151942  0.15302683  0.31494684  1  0  -0.607461  0  1.944714  0  0  -0.545907  0  2.180131  0  0  -0.573867  0  2.169412  0  0  -0.318286  -0.526187  0  2.186806  0
O  O69  1  0.23847521  0.84697553  0.68504897  1  0  -0.607487  0  1.944723  0  0  -0.545946  0  2.18012  0  0  -0.573901  0  2.1694  0  0  -0.31829  -0.526225  0  2.186789  0
O  O70  1  0.36265089  0.64001095  0.96704045  1  0  -0.364508  0  1.752564  0  0  -0.356459  0  1.945008  0  0  -0.368894  0  1.94093  0  0  -0.135131  -0.348251  0  1.947809  0
O  O71  1  0.63733482  0.35999261  0.03295497  1  0  -0.373495  0  1.739622  0  0  -0.356443  0  1.944892  0  0  -0.368873  0  1.940808  0  0  -0.135125  -0.348237  0  1.947696  0
O  O72  1  0.54182697  0.85796135  0.95629496  1  0  -0.334841  0  1.779597  0  0  -0.328178  0  1.977363  0  0  -0.339686  0  1.974483  0  0  -0.11696  -0.3204  0  1.979384  0
O  O73  1  0.45816947  0.14203248  0.04370262  1  0  -0.343927  0  1.76681  0  0  -0.328184  0  1.977437  0  0  -0.339698  0  1.974569  0  0  -0.116984  -0.320398  0  1.979441  0
O  O74  1  0.75035411  0.03323419  0.47813508  1  0  -0.653995  0  2.00619  0  0  -0.587159  0  2.240314  0  0  -0.616933  0  2.232209  0  0  -0.318679  -0.566177  0  2.245056  0
O  O75  1  0.24966069  0.96676784  0.52185734  1  0  -0.653939  0  2.006231  0  0  -0.587126  0  2.240334  0  0  -0.616915  0  2.232267  0  0  -0.318642  -0.566149  0  2.245079  0
