# generated using pymatgen
data_Cu2H15C21N10
_symmetry_space_group_name_H-M   'P 1'
_cell_length_a   8.20459889
_cell_length_b   10.04669289
_cell_length_c   13.79734360
_cell_angle_alpha   98.81406534
_cell_angle_beta   92.49958450
_cell_angle_gamma   102.28519582
_symmetry_Int_Tables_number   1
_chemical_formula_structural   Cu2H15C21N10
_chemical_formula_sum   'Cu4 H30 C42 N20'
_cell_volume   1094.70940516
_cell_formula_units_Z   2
loop_
 _symmetry_equiv_pos_site_id
 _symmetry_equiv_pos_as_xyz
  1  'x, y, z'
loop_
 _atom_site_type_symbol
 _atom_site_label
 _atom_site_symmetry_multiplicity
 _atom_site_fract_x
 _atom_site_fract_y
 _atom_site_fract_z
 _atom_site_occupancy
 _atom_site_hle17_bader_spin_density
 _atom_site_hle17_ddec_charge
 _atom_site_hle17_ddec_spin_density
 _atom_site_hle17_ddec_sum_bond_order
 _atom_site_hle17_magmom
 _atom_site_hse06_10hf_bader_spin_density
 _atom_site_hse06_10hf_ddec_charge
 _atom_site_hse06_10hf_ddec_spin_density
 _atom_site_hse06_10hf_ddec_sum_bond_order
 _atom_site_hse06_10hf_magmom
 _atom_site_hse06_bader_spin_density
 _atom_site_hse06_ddec_charge
 _atom_site_hse06_ddec_spin_density
 _atom_site_hse06_ddec_sum_bond_order
 _atom_site_hse06_magmom
 _atom_site_pbe_bader_spin_density
 _atom_site_pbe_cm5_charge
 _atom_site_pbe_ddec_charge
 _atom_site_pbe_ddec_spin_density
 _atom_site_pbe_ddec_sum_bond_order
 _atom_site_pbe_magmom
Cu  Cu0  1  0.82193997  0.18578679  0.40107840  1  0  0.61235  0  2.190286  0  0  0.51748  0  2.733923  0  0  0.501473  0  2.694296  0  0  0.632456  0.533295  0  2.756153  0
Cu  Cu1  1  0.17806037  0.81421344  0.59892257  1  0  0.612339  0  2.190238  0  0  0.517542  0  2.733944  0  0  0.501503  0  2.694276  0  0  0.63246  0.533309  0  2.756158  0
Cu  Cu2  1  0.40592725  0.73207201  0.13585382  1  0  0.555171  0  2.177704  0  0  0.446543  0  2.715552  0  0  0.425081  0  2.680783  0  0  0.622875  0.467765  0  2.732492  0
Cu  Cu3  1  0.59406874  0.26793026  0.86414870  1  0  0.555316  0  2.177674  0  0  0.446604  0  2.715482  0  0  0.425135  0  2.68068  0  0  0.622916  0.467866  0  2.732437  0
H  H4  1  0.79934279  0.45595263  0.52691006  1  0  0.078494  0  0.925778  0  0  0.089418  0  0.982783  0  0  0.091935  0  0.981277  0  0  0.114925  0.08725  0  0.984572  0
H  H5  1  0.20066139  0.54404350  0.47308621  1  0  0.078487  0  0.925782  0  0  0.08943  0  0.982767  0  0  0.09195  0  0.981256  0  0  0.11492  0.087261  0  0.984559  0
H  H6  1  0.90357678  0.58420303  0.69347177  1  0  0.113417  0  0.966755  0  0  0.121071  0  1.032127  0  0  0.124332  0  1.030626  0  0  0.10614  0.118666  0  1.033427  0
H  H7  1  0.09642455  0.41579618  0.30652549  1  0  0.113422  0  0.966761  0  0  0.12107  0  1.032138  0  0  0.124351  0  1.030614  0  0  0.106144  0.118667  0  1.033434  0
H  H8  1  0.13683157  0.24647860  0.73596728  1  0  0.102234  0  0.962057  0  0  0.113789  0  1.022644  0  0  0.116146  0  1.02314  0  0  0.10594  0.111993  0  1.022702  0
H  H9  1  0.86317067  0.75351958  0.26403351  1  0  0.102241  0  0.962083  0  0  0.1138  0  1.02266  0  0  0.116156  0  1.023157  0  0  0.105949  0.112003  0  1.022717  0
H  H10  1  0.01809336  0.13139930  0.56834399  1  0  0.075091  0  0.943774  0  0  0.082637  0  1.01078  0  0  0.08514  0  1.009013  0  0  0.112973  0.080936  0  1.011877  0
H  H11  1  0.98191037  0.86859991  0.43165696  1  0  0.075104  0  0.943701  0  0  0.082634  0  1.010718  0  0  0.085137  0  1.008949  0  0  0.112976  0.080934  0  1.011814  0
H  H12  1  0.24349627  0.81879748  0.96485755  1  0  0.06939  0  0.959838  0  0  0.077379  0  1.025987  0  0  0.079771  0  1.02446  0  0  0.108325  0.075888  0  1.026867  0
H  H13  1  0.75649987  0.18120067  0.03514234  1  0  0.069404  0  0.959806  0  0  0.077411  0  1.025943  0  0  0.079792  0  1.024426  0  0  0.108331  0.075918  0  1.026827  0
H  H14  1  0.11072907  0.70558790  0.79925934  1  0  0.110089  0  0.972589  0  0  0.117589  0  1.040312  0  0  0.121229  0  1.038598  0  0  0.106181  0.114701  0  1.042247  0
H  H15  1  0.88926532  0.29440819  0.20073882  1  0  0.110122  0  0.972637  0  0  0.117636  0  1.040327  0  0  0.121275  0  1.038613  0  0  0.106186  0.114742  0  1.042264  0
H  H16  1  0.10711960  0.31279226  0.89207260  1  0  0.101222  0  0.96126  0  0  0.111462  0  1.023233  0  0  0.113584  0  1.024185  0  0  0.105041  0.110085  0  1.022631  0
H  H17  1  0.89287777  0.68720590  0.10792660  1  0  0.101222  0  0.961271  0  0  0.111478  0  1.02323  0  0  0.113604  0  1.024172  0  0  0.105056  0.110101  0  1.022628  0
H  H18  1  0.24424890  0.44310341  0.05245247  1  0  0.070034  0  0.963352  0  0  0.077964  0  1.029885  0  0  0.079863  0  1.029075  0  0  0.109061  0.076442  0  1.030726  0
H  H19  1  0.75575241  0.55689580  0.94754696  1  0  0.070056  0  0.963396  0  0  0.077975  0  1.029936  0  0  0.079874  0  1.029127  0  0  0.109057  0.07645  0  1.030788  0
H  H20  1  0.55173441  0.73612158  0.93600792  1  0  0.075  0  0.95772  0  0  0.080771  0  1.025729  0  0  0.08337  0  1.023996  0  0  0.112525  0.078759  0  1.027286  0
H  H21  1  0.44826469  0.26387864  0.06399446  1  0  0.074942  0  0.957734  0  0  0.080715  0  1.025744  0  0  0.083314  0  1.024011  0  0  0.112518  0.0787  0  1.027309  0
H  H22  1  0.81205084  0.84499731  0.87338768  1  0  0.108936  0  0.960911  0  0  0.117458  0  1.023893  0  0  0.120726  0  1.022867  0  0  0.107683  0.114998  0  1.025027  0
H  H23  1  0.18794802  0.15500188  0.12661168  1  0  0.108934  0  0.960956  0  0  0.11746  0  1.023933  0  0  0.120728  0  1.022906  0  0  0.107686  0.114998  0  1.025064  0
H  H24  1  0.96814464  0.06262104  0.17132426  1  0  0.103198  0  0.993992  0  0  0.112962  0  1.056621  0  0  0.115509  0  1.056543  0  0  0.104144  0.110814  0  1.057471  0
H  H25  1  0.03186410  0.93737406  0.82867638  1  0  0.103173  0  0.994066  0  0  0.112936  0  1.056684  0  0  0.115483  0  1.056607  0  0  0.10414  0.11079  0  1.057534  0
H  H26  1  0.69781315  0.94846552  0.21963508  1  0  0.081557  0  0.955736  0  0  0.085096  0  1.030122  0  0  0.089317  0  1.025316  0  0  0.112849  0.081821  0  1.033944  0
H  H27  1  0.30219858  0.05153165  0.78036660  1  0  0.081553  0  0.955679  0  0  0.085102  0  1.030056  0  0  0.089323  0  1.025251  0  0  0.112848  0.081836  0  1.03388  0
H  H28  1  0.46407670  0.77261209  0.50363290  1  0  0.154522  0  0.958248  0  0  0.164048  0  1.032581  0  0  0.167882  0  1.029479  0  0  0.110639  0.161241  0  1.034776  0
H  H29  1  0.53591782  0.22738916  0.49636656  1  0  0.154546  0  0.958252  0  0  0.16405  0  1.032594  0  0  0.167884  0  1.029491  0  0  0.110648  0.161242  0  1.03479  0
H  H30  1  0.62155294  0.69252442  0.45039112  1  0  0.148147  0  0.907946  0  0  0.170161  0  0.95666  0  0  0.171748  0  0.956281  0  0  0.114461  0.16866  0  0.957508  0
H  H31  1  0.37844401  0.30747683  0.54960914  1  0  0.148122  0  0.907988  0  0  0.170139  0  0.956692  0  0  0.171726  0  0.956315  0  0  0.11445  0.168639  0  0.957538  0
H  H32  1  0.45137456  0.71370945  0.37277670  1  0  0.155312  0  0.94387  0  0  0.171784  0  1.003787  0  0  0.173546  0  1.003994  0  0  0.112473  0.170345  0  1.003878  0
H  H33  1  0.54862322  0.28629490  0.62722321  1  0  0.155342  0  0.943796  0  0  0.17181  0  1.003717  0  0  0.173573  0  1.003923  0  0  0.112482  0.170372  0  1.003808  0
C  C34  1  0.15178699  0.12064173  0.33859048  1  0  0.477239  0  4.017496  0  0  0.446101  0  4.301594  0  0  0.467939  0  4.314044  0  0  0.293068  0.431715  0  4.292154  0
C  C35  1  0.84820601  0.87935847  0.66141099  1  0  0.477141  0  4.017369  0  0  0.446003  0  4.301476  0  0  0.467836  0  4.31393  0  0  0.293035  0.431612  0  4.292027  0
C  C36  1  0.30857969  0.96733909  0.27834693  1  0  0.485243  0  4.003111  0  0  0.458078  0  4.274673  0  0  0.476736  0  4.291192  0  0  0.294147  0.445936  0  4.262871  0
C  C37  1  0.69142204  0.03266631  0.72165249  1  0  0.485276  0  4.002933  0  0  0.458109  0  4.274491  0  0  0.476754  0  4.291017  0  0  0.294191  0.445963  0  4.262692  0
C  C38  1  0.57241861  0.32956482  0.30644893  1  0  0.488711  0  4.012828  0  0  0.45802  0  4.293392  0  0  0.478794  0  4.307051  0  0  0.291703  0.444081  0  4.284005  0
C  C39  1  0.42758337  0.67044161  0.69355206  1  0  0.48871  0  4.013117  0  0  0.458029  0  4.293677  0  0  0.478788  0  4.307334  0  0  0.291751  0.444088  0  4.284282  0
C  C40  1  0.45691447  0.47998706  0.23020073  1  0  0.468693  0  4.019553  0  0  0.441277  0  4.297383  0  0  0.459993  0  4.312572  0  0  0.289718  0.429217  0  4.286302  0
C  C41  1  0.54308614  0.52001420  0.76980109  1  0  0.468718  0  4.019552  0  0  0.441319  0  4.297367  0  0  0.460017  0  4.312555  0  0  0.289734  0.42926  0  4.286285  0
C  C42  1  0.87366293  0.41280072  0.57635940  1  0  0.121417  0  3.718103  0  0  0.095023  0  3.971968  0  0  0.100277  0  3.9875  0  0  0.043254  0.091389  0  3.962209  0
C  C43  1  0.12633500  0.58719950  0.42363860  1  0  0.121469  0  3.718218  0  0  0.095067  0  3.972056  0  0  0.100319  0  3.987592  0  0  0.04325  0.091432  0  3.962294  0
C  C44  1  0.93279822  0.48402714  0.66983643  1  0  -0.140546  0  3.685916  0  0  -0.160794  0  3.93527  0  0  -0.165813  0  3.953282  0  0  -0.077219  -0.157717  0  3.92352  0
C  C45  1  0.06720402  0.51597104  0.33016364  1  0  -0.140695  0  3.685786  0  0  -0.160884  0  3.93523  0  0  -0.165928  0  3.953239  0  0  -0.077254  -0.157803  0  3.923466  0
C  C46  1  0.02871442  0.42563876  0.73125395  1  0  0.09627  0  3.751078  0  0  0.107331  0  3.982306  0  0  0.111919  0  4.001477  0  0  0.011591  0.104068  0  3.969715  0
C  C47  1  0.97128363  0.57435734  0.26874431  1  0  0.096558  0  3.750698  0  0  0.107399  0  3.982234  0  0  0.111993  0  4.00141  0  0  0.011648  0.104135  0  3.96965  0
C  C48  1  0.05988419  0.29623318  0.69337792  1  0  -0.15427  0  3.710816  0  0  -0.17009  0  3.95039  0  0  -0.177379  0  3.972809  0  0  -0.083186  -0.165679  0  3.936091  0
C  C49  1  0.94011685  0.70376500  0.30662067  1  0  -0.154379  0  3.710708  0  0  -0.170133  0  3.950347  0  0  -0.177429  0  3.972767  0  0  -0.083233  -0.165725  0  3.936052  0
C  C50  1  0.99526565  0.23186152  0.59923310  1  0  0.116087  0  3.731176  0  0  0.089239  0  3.981334  0  0  0.094073  0  3.998864  0  0  0.036807  0.085785  0  3.970176  0
C  C51  1  0.00473605  0.76813459  0.40076672  1  0  0.116143  0  3.731132  0  0  0.089306  0  3.981259  0  0  0.094144  0  3.998781  0  0  0.036838  0.085851  0  3.970099  0
C  C52  1  0.21084739  0.70653825  0.94566630  1  0  0.107001  0  3.728912  0  0  0.078911  0  3.983144  0  0  0.085042  0  3.997808  0  0  0.032289  0.074859  0  3.973642  0
C  C53  1  0.78914904  0.29346094  0.05433227  1  0  0.107039  0  3.728901  0  0  0.078936  0  3.983121  0  0  0.085071  0  3.997801  0  0  0.032295  0.074885  0  3.973618  0
C  C54  1  0.13462125  0.64258744  0.85359185  1  0  -0.155434  0  3.70522  0  0  -0.169901  0  3.946098  0  0  -0.178141  0  3.968827  0  0  -0.083941  -0.164566  0  3.931237  0
C  C55  1  0.86537461  0.35740968  0.14640792  1  0  -0.155557  0  3.705395  0  0  -0.170019  0  3.94625  0  0  -0.178264  0  3.968985  0  0  -0.083962  -0.164683  0  3.931387  0
C  C56  1  0.09839555  0.49775426  0.82998410  1  0  0.092491  0  3.749208  0  0  0.101688  0  3.980738  0  0  0.10668  0  4.000237  0  0  0.009842  0.098292  0  3.967717  0
C  C57  1  0.90160005  0.50224182  0.17001554  1  0  0.092424  0  3.749397  0  0  0.101704  0  3.980941  0  0  0.106693  0  4.000442  0  0  0.009856  0.098306  0  3.967919  0
C  C58  1  0.13698908  0.42521545  0.90400291  1  0  -0.141253  0  3.70432  0  0  -0.160063  0  3.953144  0  0  -0.166147  0  3.973875  0  0  -0.081302  -0.156244  0  3.939294  0
C  C59  1  0.86300976  0.57478374  0.09599863  1  0  -0.141257  0  3.70438  0  0  -0.160087  0  3.953207  0  0  -0.166172  0  3.973941  0  0  -0.081354  -0.156267  0  3.939356  0
C  C60  1  0.21215365  0.49710787  0.99419297  1  0  0.121448  0  3.716302  0  0  0.093361  0  3.967917  0  0  0.099032  0  3.983464  0  0  0.03643  0.089785  0  3.95789  0
C  C61  1  0.78784794  0.50289237  0.00580586  1  0  0.121379  0  3.716306  0  0  0.093298  0  3.967932  0  0  0.098968  0  3.983478  0  0  0.036435  0.089719  0  3.957907  0
C  C62  1  0.64745199  0.80962887  0.98610152  1  0  0.116991  0  3.71881  0  0  0.090366  0  3.971123  0  0  0.096545  0  3.984936  0  0  0.038937  0.085919  0  3.962974  0
C  C63  1  0.35254956  0.19037136  0.01390021  1  0  0.117166  0  3.718592  0  0  0.090519  0  3.970914  0  0  0.096697  0  3.984723  0  0  0.039002  0.086075  0  3.962761  0
C  C64  1  0.79624059  0.87154967  0.95141474  1  0  -0.149117  0  3.695392  0  0  -0.166588  0  3.939876  0  0  -0.172764  0  3.959141  0  0  -0.080856  -0.162947  0  3.927797  0
C  C65  1  0.20375704  0.12844952  0.04858604  1  0  -0.149184  0  3.695426  0  0  -0.166645  0  3.939923  0  0  -0.172821  0  3.959188  0  0  -0.08085  -0.163  0  3.927839  0
C  C66  1  0.92017938  0.96535554  0.01651731  1  0  0.082412  0  3.766041  0  0  0.093467  0  3.997126  0  0  0.098371  0  4.016636  0  0  0.005777  0.090411  0  3.983749  0
C  C67  1  0.07982099  0.03464470  0.98348149  1  0  0.082524  0  3.766005  0  0  0.093544  0  3.997118  0  0  0.09845  0  4.016629  0  0  0.005804  0.090487  0  3.983747  0
C  C68  1  0.88205370  0.99093526  0.11516577  1  0  -0.161264  0  3.715175  0  0  -0.177699  0  3.956813  0  0  -0.184349  0  3.976837  0  0  -0.086282  -0.17396  0  3.944051  0
C  C69  1  0.11794638  0.00906394  0.88483363  1  0  -0.161145  0  3.715172  0  0  -0.177577  0  3.956837  0  0  -0.184229  0  3.976862  0  0  -0.08625  -0.173841  0  3.944084  0
C  C70  1  0.72929519  0.92635332  0.14367954  1  0  0.116333  0  3.706566  0  0  0.091066  0  3.956319  0  0  0.097567  0  3.968447  0  0  0.039366  0.086653  0  3.94899  0
C  C71  1  0.27070892  0.07364279  0.85632325  1  0  0.116309  0  3.706553  0  0  0.091023  0  3.956316  0  0  0.097527  0  3.968438  0  0  0.039393  0.0866  0  3.949004  0
C  C72  1  0.63024213  0.89352688  0.42477496  1  0  0.430687  0  3.676873  0  0  0.419388  0  3.957661  0  0  0.431373  0  3.971919  0  0  0.21068  0.411127  0  3.948361  0
C  C73  1  0.36975658  0.10647644  0.57522631  1  0  0.430643  0  3.676845  0  0  0.419331  0  3.957648  0  0  0.431322  0  3.971899  0  0  0.210661  0.411073  0  3.948343  0
C  C74  1  0.53621685  0.76044950  0.43874783  1  0  -0.37215  0  3.738497  0  0  -0.439484  0  3.963663  0  0  -0.442984  0  3.967112  0  0  -0.208068  -0.436655  0  3.961606  0
C  C75  1  0.46378039  0.23955278  0.56125183  1  0  -0.372188  0  3.738492  0  0  -0.439492  0  3.963641  0  0  -0.442991  0  3.967085  0  0  -0.208107  -0.436665  0  3.961587  0
N  N76  1  0.28547342  0.07255437  0.33885673  1  0  -0.455281  0  3.323442  0  0  -0.398522  0  3.574348  0  0  -0.423014  0  3.585636  0  0  -0.308886  -0.381431  0  3.565435  0
N  N77  1  0.71453261  0.92744897  0.66114621  1  0  -0.455172  0  3.323777  0  0  -0.398423  0  3.574667  0  0  -0.422888  0  3.585955  0  0  -0.308829  -0.381328  0  3.565767  0
N  N78  1  0.03495557  0.17256350  0.34422494  1  0  -0.623908  0  3.031076  0  0  -0.588312  0  3.36867  0  0  -0.598386  0  3.363611  0  0  -0.438374  -0.581848  0  3.370881  0
N  N79  1  0.96504965  0.82743675  0.65577690  1  0  -0.623884  0  3.030583  0  0  -0.588296  0  3.368226  0  0  -0.59837  0  3.363151  0  0  -0.438379  -0.581819  0  3.370413  0
N  N80  1  0.34172381  0.87264250  0.22782464  1  0  -0.59925  0  3.078738  0  0  -0.55967  0  3.41696  0  0  -0.568215  0  3.416508  0  0  -0.438975  -0.554757  0  3.415579  0
N  N81  1  0.65827236  0.12736494  0.77217412  1  0  -0.599348  0  3.078573  0  0  -0.559742  0  3.416765  0  0  -0.568292  0  3.416315  0  0  -0.439041  -0.55484  0  3.415401  0
N  N82  1  0.44800507  0.36626844  0.26504257  1  0  -0.468344  0  3.299412  0  0  -0.415781  0  3.553932  0  0  -0.439094  0  3.562695  0  0  -0.317981  -0.399544  0  3.547051  0
N  N83  1  0.55199950  0.63373388  0.73495659  1  0  -0.468409  0  3.299389  0  0  -0.415875  0  3.553917  0  0  -0.439157  0  3.562671  0  0  -0.318022  -0.399627  0  3.54703  0
N  N84  1  0.67582103  0.28551935  0.34497526  1  0  -0.616176  0  3.09945  0  0  -0.579825  0  3.447612  0  0  -0.589104  0  3.443146  0  0  -0.438267  -0.574426  0  3.449991  0
N  N85  1  0.32418553  0.71448606  0.65502937  1  0  -0.616125  0  3.099702  0  0  -0.579779  0  3.447873  0  0  -0.589062  0  3.443411  0  0  -0.438276  -0.57438  0  3.450257  0
N  N86  1  0.44768097  0.57931403  0.19628607  1  0  -0.595989  0  3.073643  0  0  -0.558109  0  3.413942  0  0  -0.565794  0  3.412169  0  0  -0.436109  -0.553757  0  3.413541  0
N  N87  1  0.55231285  0.42068927  0.80371578  1  0  -0.596037  0  3.073691  0  0  -0.55814  0  3.413937  0  0  -0.565823  0  3.412157  0  0  -0.436134  -0.553793  0  3.413552  0
N  N88  1  0.90298024  0.28821199  0.54056202  1  0  -0.312781  0  3.351114  0  0  -0.248499  0  3.646677  0  0  -0.254928  0  3.653554  0  0  -0.354445  -0.245204  0  3.642358  0
N  N89  1  0.09702108  0.71178722  0.45943596  1  0  -0.312879  0  3.35122  0  0  -0.248593  0  3.646805  0  0  -0.255008  0  3.653655  0  0  -0.354465  -0.245288  0  3.642464  0
N  N90  1  0.25199092  0.63641778  0.01569839  1  0  -0.306082  0  3.361505  0  0  -0.241008  0  3.665007  0  0  -0.244747  0  3.667925  0  0  -0.360718  -0.239989  0  3.663024  0
N  N91  1  0.74800822  0.36358245  0.98430037  1  0  -0.306043  0  3.361531  0  0  -0.240954  0  3.665002  0  0  -0.244681  0  3.667898  0  0  -0.360701  -0.239941  0  3.663034  0
N  N92  1  0.61206150  0.83483381  0.08090865  1  0  -0.297225  0  3.346661  0  0  -0.233582  0  3.646182  0  0  -0.237005  0  3.649487  0  0  -0.355547  -0.232536  0  3.644036  0
N  N93  1  0.38794127  0.16516642  0.91909384  1  0  -0.29736  0  3.346608  0  0  -0.233664  0  3.646106  0  0  -0.237079  0  3.64939  0  0  -0.355636  -0.232629  0  3.64398  0
N  N94  1  0.70483311  0.00109317  0.41217210  1  0  -0.486167  0  3.062887  0  0  -0.453055  0  3.394663  0  0  -0.457179  0  3.39249  0  0  -0.38218  -0.451682  0  3.39589  0
N  N95  1  0.29516139  0.99890806  0.58782953  1  0  -0.486114  0  3.062874  0  0  -0.453027  0  3.394708  0  0  -0.457142  0  3.392514  0  0  -0.382133  -0.451639  0  3.395908  0
