# generated using pymatgen
data_AgH11C17N3ClO6
_symmetry_space_group_name_H-M   'P 1'
_cell_length_a   7.48083546
_cell_length_b   8.39179012
_cell_length_c   14.21316419
_cell_angle_alpha   106.61878668
_cell_angle_beta   92.46818571
_cell_angle_gamma   103.72011530
_symmetry_Int_Tables_number   1
_chemical_formula_structural   AgH11C17N3ClO6
_chemical_formula_sum   'Ag2 H22 C34 N6 Cl2 O12'
_cell_volume   824.68550904
_cell_formula_units_Z   2
loop_
 _symmetry_equiv_pos_site_id
 _symmetry_equiv_pos_as_xyz
  1  'x, y, z'
loop_
 _atom_site_type_symbol
 _atom_site_label
 _atom_site_symmetry_multiplicity
 _atom_site_fract_x
 _atom_site_fract_y
 _atom_site_fract_z
 _atom_site_occupancy
 _atom_site_hle17_bader_spin_density
 _atom_site_hle17_ddec_charge
 _atom_site_hle17_ddec_spin_density
 _atom_site_hle17_ddec_sum_bond_order
 _atom_site_hle17_magmom
 _atom_site_hse06_10hf_bader_spin_density
 _atom_site_hse06_10hf_ddec_charge
 _atom_site_hse06_10hf_ddec_spin_density
 _atom_site_hse06_10hf_ddec_sum_bond_order
 _atom_site_hse06_10hf_magmom
 _atom_site_hse06_bader_spin_density
 _atom_site_hse06_ddec_charge
 _atom_site_hse06_ddec_spin_density
 _atom_site_hse06_ddec_sum_bond_order
 _atom_site_hse06_magmom
 _atom_site_pbe_bader_spin_density
 _atom_site_pbe_cm5_charge
 _atom_site_pbe_ddec_charge
 _atom_site_pbe_ddec_spin_density
 _atom_site_pbe_ddec_sum_bond_order
 _atom_site_pbe_magmom
Ag  Ag0  1  0.63698330  0.37577517  0.00977620  1  0  0.498267  0  1.39698  0  0  0.344983  0  1.828307  0  0  0.37471  0  1.788408  0  0  0.4697  0.324614  0  1.855817  0
Ag  Ag1  1  0.36302253  0.62423101  0.99022404  1  0  0.49829  0  1.396958  0  0  0.345  0  1.828332  0  0  0.374732  0  1.788433  0  0  0.469716  0.324647  0  1.855816  0
H  H2  1  0.83011509  0.45596946  0.22270847  1  0  0.093369  0  0.956284  0  0  0.099176  0  1.026684  0  0  0.10182  0  1.023654  0  0  0.119757  0.09721  0  1.028931  0
H  H3  1  0.16987877  0.54402409  0.77729011  1  0  0.093312  0  0.956319  0  0  0.099124  0  1.026708  0  0  0.101765  0  1.023682  0  0  0.119758  0.097158  0  1.028955  0
H  H4  1  0.24252283  0.93943661  0.28645382  1  0  0.113517  0  0.942827  0  0  0.119592  0  1.007837  0  0  0.122946  0  1.004699  0  0  0.114844  0.11707  0  1.010196  0
H  H5  1  0.75746012  0.06056899  0.71355290  1  0  0.113475  0  0.942882  0  0  0.119495  0  1.00797  0  0  0.122848  0  1.004832  0  0  0.114808  0.116975  0  1.010329  0
H  H6  1  0.14988303  0.94704298  0.11838858  1  0  0.111623  0  0.97447  0  0  0.122731  0  1.030944  0  0  0.125569  0  1.030664  0  0  0.104578  0.120707  0  1.031278  0
H  H7  1  0.85011105  0.05295968  0.88161787  1  0  0.111706  0  0.974322  0  0  0.122738  0  1.030891  0  0  0.125575  0  1.03061  0  0  0.10455  0.120713  0  1.031226  0
H  H8  1  0.90020865  0.70003656  0.00546306  1  0  0.084833  0  0.969829  0  0  0.095947  0  1.032674  0  0  0.09799  0  1.030534  0  0  0.110871  0.094429  0  1.034228  0
H  H9  1  0.09980113  0.29995651  0.99453647  1  0  0.084783  0  0.969821  0  0  0.09591  0  1.032634  0  0  0.097953  0  1.030492  0  0  0.110866  0.094394  0  1.034186  0
H  H10  1  0.20985852  0.59420486  0.52490372  1  0  0.130744  0  0.951803  0  0  0.135988  0  1.016585  0  0  0.140439  0  1.012965  0  0  0.116014  0.13281  0  1.01923  0
H  H11  1  0.79014065  0.40578852  0.47509565  1  0  0.130737  0  0.951831  0  0  0.135983  0  1.016621  0  0  0.140434  0  1.013002  0  0  0.116017  0.132806  0  1.019265  0
H  H12  1  0.53953647  0.67575543  0.60297619  1  0  0.102143  0  0.964966  0  0  0.108844  0  1.029286  0  0  0.111627  0  1.028201  0  0  0.103373  0.106773  0  1.0302  0
H  H13  1  0.46046663  0.32423781  0.39701831  1  0  0.102176  0  0.964874  0  0  0.108815  0  1.029255  0  0  0.111596  0  1.028176  0  0  0.103365  0.106753  0  1.030159  0
H  H14  1  0.78886492  0.84683599  0.52874145  1  0  0.132014  0  0.94133  0  0  0.137671  0  1.00526  0  0  0.141973  0  1.001895  0  0  0.116244  0.134536  0  1.007891  0
H  H15  1  0.21113725  0.15315858  0.47125255  1  0  0.132017  0  0.941257  0  0  0.137689  0  1.005183  0  0  0.141997  0  1.001819  0  0  0.116226  0.134554  0  1.007814  0
H  H16  1  0.90960996  0.19759517  0.29644176  1  0  0.125304  0  0.930539  0  0  0.135007  0  0.988268  0  0  0.138624  0  0.984603  0  0  0.120029  0.132343  0  0.990948  0
H  H17  1  0.09040277  0.80240302  0.70356081  1  0  0.1254  0  0.930466  0  0  0.135031  0  0.988274  0  0  0.138646  0  0.98461  0  0  0.120032  0.132367  0  0.990957  0
H  H18  1  0.87955997  0.19909846  0.11991196  1  0  0.098102  0  0.960093  0  0  0.107417  0  1.024957  0  0  0.110034  0  1.024455  0  0  0.104887  0.105536  0  1.025497  0
H  H19  1  0.12044989  0.80090762  0.88009328  1  0  0.098079  0  0.960031  0  0  0.107435  0  1.024859  0  0  0.110052  0  1.024358  0  0  0.10486  0.105555  0  1.0254  0
H  H20  1  0.65124243  0.95209370  0.99504281  1  0  0.078196  0  0.98514  0  0  0.086524  0  1.053961  0  0  0.088853  0  1.051321  0  0  0.111045  0.084739  0  1.055964  0
H  H21  1  0.34876529  0.04792281  0.00495922  1  0  0.078185  0  0.985229  0  0  0.086549  0  1.054028  0  0  0.088878  0  1.051387  0  0  0.11104  0.084762  0  1.056042  0
H  H22  1  0.48849977  0.71515690  0.20755732  1  0  0.089873  0  0.988899  0  0  0.091506  0  1.065752  0  0  0.09431  0  1.062468  0  0  0.114426  0.089346  0  1.068277  0
H  H23  1  0.51149767  0.28484821  0.79243906  1  0  0.089818  0  0.988928  0  0  0.091477  0  1.065784  0  0  0.094278  0  1.062503  0  0  0.114424  0.089316  0  1.068313  0
C  C24  1  0.90641448  0.56331651  0.19990106  1  0  0.121341  0  3.638548  0  0  0.078206  0  3.884082  0  0  0.087305  0  3.902109  0  0  0.05594  0.072294  0  3.871896  0
C  C25  1  0.09358456  0.43668077  0.80009826  1  0  0.121543  0  3.638519  0  0  0.078433  0  3.884027  0  0  0.087538  0  3.90206  0  0  0.056017  0.072518  0  3.871848  0
C  C26  1  0.04782346  0.69197954  0.26597491  1  0  -0.054991  0  3.694043  0  0  -0.035933  0  3.930277  0  0  -0.046483  0  3.953629  0  0  -0.003623  -0.029343  0  3.914969  0
C  C27  1  0.95216673  0.30801933  0.73402731  1  0  -0.055106  0  3.694034  0  0  -0.03608  0  3.930262  0  0  -0.04663  0  3.953617  0  0  -0.003654  -0.029486  0  3.914956  0
C  C28  1  0.13613616  0.83370553  0.23668544  1  0  0.013853  0  3.642658  0  0  -0.01747  0  3.894619  0  0  -0.01045  0  3.909248  0  0  -0.04865  -0.021902  0  3.884799  0
C  C29  1  0.86385049  0.16629476  0.76332046  1  0  0.014005  0  3.642589  0  0  -0.017266  0  3.894528  0  0  -0.010245  0  3.909163  0  0  -0.048572  -0.021698  0  3.884701  0
C  C30  1  0.08385288  0.83721361  0.14207774  1  0  -0.135294  0  3.765258  0  0  -0.14395  0  4.017926  0  0  -0.152951  0  4.040085  0  0  -0.090705  -0.138226  0  4.003184  0
C  C31  1  0.91614211  0.16278772  0.85792710  1  0  -0.135425  0  3.765154  0  0  -0.144038  0  4.017819  0  0  -0.153039  0  4.039974  0  0  -0.090698  -0.138312  0  4.003079  0
C  C32  1  0.94605470  0.70226153  0.07977051  1  0  0.103063  0  3.71818  0  0  0.070174  0  3.962199  0  0  0.077764  0  3.982254  0  0  0.033241  0.064936  0  3.949331  0
C  C33  1  0.05394689  0.29773958  0.92023091  1  0  0.103099  0  3.718167  0  0  0.070238  0  3.962169  0  0  0.077838  0  3.982225  0  0  0.033229  0.065002  0  3.949296  0
C  C34  1  0.08822217  0.66334369  0.36331270  1  0  0.380064  0  3.683689  0  0  0.356557  0  3.946624  0  0  0.377917  0  3.949347  0  0  0.175775  0.341914  0  3.94503  0
C  C35  1  0.91177290  0.33665372  0.63668797  1  0  0.379976  0  3.683718  0  0  0.356546  0  3.946545  0  0  0.377906  0  3.94927  0  0  0.175778  0.341902  0  3.944955  0
C  C36  1  0.28356109  0.71753637  0.41250564  1  0  0.125454  0  3.756855  0  0  0.126016  0  4.009202  0  0  0.126088  0  4.029405  0  0  0.113834  0.125886  0  3.995475  0
C  C37  1  0.71643438  0.28246232  0.58749384  1  0  0.125413  0  3.75694  0  0  0.125969  0  4.00929  0  0  0.126041  0  4.029499  0  0  0.113806  0.125839  0  3.995564  0
C  C38  1  0.32210236  0.66867944  0.49622564  1  0  -0.070679  0  3.618402  0  0  -0.097283  0  3.865854  0  0  -0.09971  0  3.88542  0  0  -0.056288  -0.095472  0  3.852433  0
C  C39  1  0.67789852  0.33131519  0.50377186  1  0  -0.07069  0  3.618497  0  0  -0.097334  0  3.865989  0  0  -0.099763  0  3.885558  0  0  -0.056325  -0.095524  0  3.85257  0
C  C40  1  0.50524184  0.71450324  0.53904317  1  0  -0.017695  0  3.683177  0  0  -0.029841  0  3.933698  0  0  -0.03205  0  3.955385  0  0  -0.065986  -0.028169  0  3.918809  0
C  C41  1  0.49476066  0.28549654  0.46095664  1  0  -0.017696  0  3.683106  0  0  -0.029757  0  3.933637  0  0  -0.031965  0  3.955325  0  0  -0.065963  -0.028093  0  3.918743  0
C  C42  1  0.64335571  0.80802480  0.49828139  1  0  -0.065286  0  3.60349  0  0  -0.092607  0  3.853633  0  0  -0.094122  0  3.871775  0  0  -0.055295  -0.091492  0  3.84138  0
C  C43  1  0.35664597  0.19197240  0.50171656  1  0  -0.065277  0  3.60348  0  0  -0.092622  0  3.853618  0  0  -0.094148  0  3.87177  0  0  -0.055251  -0.091506  0  3.841366  0
C  C44  1  0.59135569  0.85018460  0.41418524  1  0  0.121674  0  3.757023  0  0  0.123247  0  4.007771  0  0  0.123116  0  4.028297  0  0  0.110725  0.123235  0  3.993843  0
C  C45  1  0.40864252  0.14981010  0.58581081  1  0  0.121747  0  3.757152  0  0  0.123226  0  4.007881  0  0  0.123098  0  4.028411  0  0  0.110758  0.123214  0  3.993954  0
C  C46  1  0.73615763  0.95150712  0.36933988  1  0  0.358373  0  3.708732  0  0  0.337647  0  3.97022  0  0  0.35779  0  3.976182  0  0  0.169915  0.323972  0  3.966108  0
C  C47  1  0.26384469  0.04848356  0.63065628  1  0  0.358162  0  3.708888  0  0  0.337726  0  3.969988  0  0  0.357857  0  3.975967  0  0  0.169906  0.324049  0  3.965878  0
C  C48  1  0.69980978  0.95737047  0.26587927  1  0  -0.063969  0  3.704758  0  0  -0.042702  0  3.938134  0  0  -0.053838  0  3.962781  0  0  -0.004907  -0.035703  0  3.921772  0
C  C49  1  0.30019404  0.04262926  0.73411915  1  0  -0.064075  0  3.704832  0  0  -0.042873  0  3.938163  0  0  -0.054007  0  3.96281  0  0  -0.00491  -0.035872  0  3.921804  0
C  C50  1  0.80977583  0.09525953  0.24020631  1  0  0.016827  0  3.626638  0  0  -0.013487  0  3.871276  0  0  -0.006467  0  3.88629  0  0  -0.044768  -0.017768  0  3.861014  0
C  C51  1  0.19023372  0.90474135  0.75979594  1  0  0.016843  0  3.626667  0  0  -0.013428  0  3.871357  0  0  -0.00641  0  3.886379  0  0  -0.044718  -0.01771  0  3.861095  0
C  C52  1  0.79312459  0.09568993  0.14251858  1  0  -0.118556  0  3.746259  0  0  -0.12769  0  3.999044  0  0  -0.136875  0  4.021363  0  0  -0.083  -0.121926  0  3.98417  0
C  C53  1  0.20687861  0.90431634  0.85748444  1  0  -0.118527  0  3.746208  0  0  -0.127703  0  3.999007  0  0  -0.136888  0  4.021327  0  0  -0.082985  -0.121939  0  3.984136  0
C  C54  1  0.66713893  0.96010157  0.07294195  1  0  0.121424  0  3.693628  0  0  0.088601  0  3.935159  0  0  0.096508  0  3.954855  0  0  0.043837  0.08363  0  3.921683  0
C  C55  1  0.33286108  0.03990738  0.92705865  1  0  0.121407  0  3.693762  0  0  0.088551  0  3.935308  0  0  0.09646  0  3.954997  0  0  0.043777  0.083573  0  3.921837  0
C  C56  1  0.57484261  0.82609820  0.19193463  1  0  0.119969  0  3.638995  0  0  0.077459  0  3.883951  0  0  0.086509  0  3.902482  0  0  0.054754  0.071685  0  3.871357  0
C  C57  1  0.42515658  0.17390817  0.80806481  1  0  0.120153  0  3.638743  0  0  0.077596  0  3.883724  0  0  0.086645  0  3.902258  0  0  0.054762  0.07182  0  3.871128  0
N  N58  1  0.85617479  0.56731455  0.10877936  1  0  -0.301774  0  3.375772  0  0  -0.202423  0  3.652175  0  0  -0.224997  0  3.671787  0  0  -0.355851  -0.187148  0  3.638417  0
N  N59  1  0.14382770  0.43268522  0.89121975  1  0  -0.301877  0  3.375868  0  0  -0.202578  0  3.652332  0  0  -0.225169  0  3.671956  0  0  -0.355919  -0.187304  0  3.63858  0
N  N60  1  0.41548773  0.80521014  0.37196289  1  0  -0.339441  0  3.142607  0  0  -0.307993  0  3.401584  0  0  -0.31964  0  3.423307  0  0  -0.293761  -0.299468  0  3.386557  0
N  N61  1  0.58450682  0.19478988  0.62803679  1  0  -0.339401  0  3.142663  0  0  -0.307925  0  3.401625  0  0  -0.319574  0  3.423351  0  0  -0.293766  -0.299401  0  3.386598  0
N  N62  1  0.55907199  0.82780239  0.09734409  1  0  -0.301099  0  3.361414  0  0  -0.199348  0  3.63166  0  0  -0.222462  0  3.651492  0  0  -0.354618  -0.183759  0  3.617723  0
N  N63  1  0.44092986  0.17220390  0.90265539  1  0  -0.301184  0  3.361355  0  0  -0.199421  0  3.631628  0  0  -0.222533  0  3.651457  0  0  -0.354575  -0.183824  0  3.617682  0
Cl  Cl64  1  0.64301594  0.65031599  0.79388024  1  0  1.375045  0  6.223451  0  0  1.315264  0  6.786299  0  0  1.367909  0  6.761944  0  0  0.717464  1.279019  0  6.801542  0
Cl  Cl65  1  0.35698418  0.34968905  0.20611899  1  0  1.374962  0  6.223473  0  0  1.315194  0  6.786267  0  0  1.367835  0  6.761903  0  0  0.717362  1.278948  0  6.801505  0
O  O66  1  0.96113828  0.58581909  0.39881000  1  0  -0.41894  0  1.928826  0  0  -0.377229  0  2.133505  0  0  -0.394216  0  2.129978  0  0  -0.235663  -0.365746  0  2.136072  0
O  O67  1  0.03886396  0.41417552  0.60119174  1  0  -0.41884  0  1.928807  0  0  -0.377157  0  2.133448  0  0  -0.394146  0  2.129921  0  0  -0.235616  -0.365674  0  2.136016  0
O  O68  1  0.88857486  0.03179990  0.41704198  1  0  -0.423997  0  1.958253  0  0  -0.387248  0  2.173563  0  0  -0.405072  0  2.172509  0  0  -0.235722  -0.374915  0  2.174177  0
O  O69  1  0.11143046  0.96817899  0.58295226  1  0  -0.423956  0  1.958195  0  0  -0.387285  0  2.173318  0  0  -0.405104  0  2.172267  0  0  -0.235779  -0.374951  0  2.173934  0
O  O70  1  0.60696335  0.81908649  0.83601459  1  0  -0.559771  0  1.897274  0  0  -0.528207  0  2.144582  0  0  -0.545257  0  2.133402  0  0  -0.316885  -0.516125  0  2.151795  0
O  O71  1  0.39303544  0.18091860  0.16398462  1  0  -0.559683  0  1.897138  0  0  -0.528163  0  2.144494  0  0  -0.545206  0  2.133313  0  0  -0.316831  -0.516078  0  2.151707  0
O  O72  1  0.68877708  0.58454116  0.87534242  1  0  -0.598607  0  1.904345  0  0  -0.567953  0  2.183324  0  0  -0.584369  0  2.16579  0  0  -0.334051  -0.556149  0  2.194734  0
O  O73  1  0.31121959  0.41546140  0.12465703  1  0  -0.598574  0  1.904492  0  0  -0.567901  0  2.183416  0  0  -0.58433  0  2.165927  0  0  -0.334037  -0.556101  0  2.194833  0
O  O74  1  0.79897453  0.66708277  0.73636389  1  0  -0.525143  0  1.860682  0  0  -0.494954  0  2.097748  0  0  -0.512267  0  2.087537  0  0  -0.30305  -0.482629  0  2.104197  0
O  O75  1  0.20102987  0.33292736  0.26363769  1  0  -0.525085  0  1.860592  0  0  -0.494945  0  2.097711  0  0  -0.512259  0  2.087501  0  0  -0.303031  -0.482621  0  2.104158  0
O  O76  1  0.47816188  0.53162361  0.73158349  1  0  -0.51982  0  1.880379  0  0  -0.492239  0  2.124388  0  0  -0.508551  0  2.113874  0  0  -0.298444  -0.480755  0  2.131146  0
O  O77  1  0.52184311  0.46837997  0.26841278  1  0  -0.519905  0  1.880402  0  0  -0.492246  0  2.124302  0  0  -0.508579  0  2.113838  0  0  -0.298415  -0.480763  0  2.131062  0
