# generated using pymatgen
data_CuH14C20(NO2)2
_symmetry_space_group_name_H-M   'P 1'
_cell_length_a   9.59960134
_cell_length_b   9.92691770
_cell_length_c   9.92674582
_cell_angle_alpha   81.27225363
_cell_angle_beta   79.34873833
_cell_angle_gamma   79.34879496
_symmetry_Int_Tables_number   1
_chemical_formula_structural   CuH14C20(NO2)2
_chemical_formula_sum   'Cu2 H28 C40 N4 O8'
_cell_volume   906.85235030
_cell_formula_units_Z   2
loop_
 _symmetry_equiv_pos_site_id
 _symmetry_equiv_pos_as_xyz
  1  'x, y, z'
loop_
 _atom_site_type_symbol
 _atom_site_label
 _atom_site_symmetry_multiplicity
 _atom_site_fract_x
 _atom_site_fract_y
 _atom_site_fract_z
 _atom_site_occupancy
 _atom_site_hle17_ddec_charge
 _atom_site_hle17_ddec_spin_density
 _atom_site_hle17_ddec_sum_bond_order
 _atom_site_hle17_magmom
 _atom_site_hse06_10hf_ddec_charge
 _atom_site_hse06_10hf_ddec_spin_density
 _atom_site_hse06_10hf_ddec_sum_bond_order
 _atom_site_hse06_10hf_magmom
 _atom_site_hse06_ddec_charge
 _atom_site_hse06_ddec_spin_density
 _atom_site_hse06_ddec_sum_bond_order
 _atom_site_hse06_magmom
 _atom_site_pbe_cm5_charge
 _atom_site_pbe_ddec_charge
 _atom_site_pbe_ddec_spin_density
 _atom_site_pbe_ddec_sum_bond_order
 _atom_site_pbe_magmom
Cu  Cu0  1  0.25000025  0.11247477  0.88752486  1  0.830038  -0.751805  1.899558  -0.527  0.816502  -0.826654  2.281699  -0.646  0.903823  -0.903689  2.219653  -0.732  0.738079  0.758107  -0.73184  2.326078  -0.554
Cu  Cu1  1  0.74999992  0.88752724  0.11247000  1  0.83011  0.7518  1.899401  0.527  0.816509  0.82666  2.281596  0.646  0.903903  0.903679  2.219483  0.732  0.738052  0.758122  0.731848  2.325966  0.554
H  H2  1  0.03884566  0.29804082  0.74214443  1  0.093111  -0.001332  0.932464  -0.002  0.101336  -0.000998  0.995962  -0.001  0.103786  -0.000735  0.992983  -0.001  0.121156  0.099346  -0.001253  0.997928  -0.001
H  H3  1  0.53884692  0.74214682  0.29804498  1  0.093012  0.001327  0.932482  0.002  0.101255  0.000997  0.995972  0.001  0.103705  0.000735  0.992991  0.001  0.121158  0.099265  0.001254  0.997935  0.001
H  H4  1  0.96115570  0.70196014  0.25785341  1  0.093062  0.001327  0.93244  0.002  0.101285  0.000997  0.995954  0.001  0.103736  0.000736  0.992972  0.001  0.121131  0.099289  0.001254  0.997918  0.001
H  H5  1  0.46116595  0.25784784  0.70195892  1  0.09307  -0.00133  0.932506  -0.002  0.101311  -0.000998  0.995968  -0.001  0.103758  -0.000735  0.992993  -0.001  0.121153  0.099325  -0.001253  0.997931  -0.001
H  H6  1  0.35274631  0.96661960  0.64065824  1  0.092368  -0.000798  0.944639  -0.001  0.100495  -0.000788  1.007869  -0.001  0.102136  -0.000559  1.007211  -0.001  0.119256  0.098807  -0.000936  1.008726  -0.001
H  H7  1  0.85275671  0.64065839  0.96662449  1  0.09232  0.000797  0.944618  0.001  0.100462  0.000787  1.007828  0.001  0.102103  0.000559  1.007171  0.001  0.119259  0.098768  0.000936  1.008688  0.001
H  H8  1  0.64724740  0.03337626  0.35934060  1  0.092361  0.000801  0.944593  0.001  0.100497  0.000786  1.007809  0.001  0.102137  0.00056  1.007152  0.001  0.119263  0.098803  0.000936  1.008664  0.001
H  H9  1  0.14725544  0.35933421  0.03337882  1  0.092356  -0.000799  0.944602  -0.001  0.100478  -0.000787  1.007825  -0.001  0.102118  -0.000559  1.007169  -0.001  0.119241  0.09879  -0.000936  1.008687  -0.001
H  H10  1  0.28224354  0.97480667  0.40775350  1  0.120966  -0.000464  0.933294  0.0  0.13269  -0.000527  0.987859  0.0  0.136783  -0.000381  0.985452  0.0  0.112721  0.12944  -0.00057  0.989902  -0.001
H  H11  1  0.78226094  0.40775370  0.97481585  1  0.121022  0.000463  0.933235  0.0  0.132742  0.000526  0.987803  0.0  0.136838  0.000381  0.985391  0.0  0.11275  0.129491  0.00057  0.989856  0.001
H  H12  1  0.71774019  0.02518510  0.59225060  1  0.121061  0.000467  0.933172  0.0  0.132768  0.000526  0.987757  0.0  0.136863  0.000381  0.985345  0.0  0.112762  0.129519  0.00057  0.989805  0.001
H  H13  1  0.21775358  0.59223679  0.02519342  1  0.120956  -0.000463  0.933238  0.0  0.132677  -0.000527  0.987814  0.0  0.136772  -0.00038  0.985405  0.0  0.112724  0.12943  -0.00057  0.989856  -0.001
H  H14  1  0.87574824  0.42001158  0.57785663  1  0.090679  -9.8e-05  0.965769  0.0  0.101262  -9e-06  1.028879  0.0  0.103805  -8e-06  1.028462  0.0  0.100557  0.099394  -2.4e-05  1.029203  0.0
H  H15  1  0.37574509  0.57786613  0.42001330  1  0.090689  0.000103  0.965755  0.0  0.101245  1e-05  1.028896  0.0  0.10377  8e-06  1.0285  0.0  0.100541  0.099375  2.4e-05  1.029224  0.0
H  H16  1  0.12425277  0.57999144  0.42214198  1  0.090692  0.000103  0.965742  0.0  0.101275  9e-06  1.028852  0.0  0.103802  8e-06  1.028453  0.0  0.100561  0.099406  2.4e-05  1.029177  0.0
H  H17  1  0.62425893  0.42213790  0.57998466  1  0.090746  -0.0001  0.96569  0.0  0.101275  -1e-05  1.028861  0.0  0.103805  -8e-06  1.028461  0.0  0.100566  0.099407  -2.4e-05  1.029187  0.0
H  H18  1  0.79427726  0.43912953  0.34972348  1  0.083694  -0.0001  0.973752  0.0  0.09253  -0.000113  1.038026  0.0  0.094325  -8.3e-05  1.039345  0.0  0.09534  0.09126  -0.000112  1.037066  0.0
H  H19  1  0.29427139  0.34973853  0.43912681  1  0.083754  0.000103  0.973692  0.0  0.092528  0.000112  1.038025  0.0  0.094324  8.3e-05  1.039346  0.0  0.095329  0.09126  0.000113  1.037066  0.0
H  H20  1  0.20572472  0.56088070  0.65027292  1  0.083795  0.000104  0.973709  0.0  0.092586  0.000112  1.038022  0.0  0.09438  8.3e-05  1.039343  0.0  0.095351  0.091316  0.000112  1.037068  0.0
H  H21  1  0.70572578  0.65026864  0.56087083  1  0.083734  -0.0001  0.973686  0.0  0.092521  -0.000113  1.03801  0.0  0.094317  -8.4e-05  1.03933  0.0  0.095326  0.091253  -0.000112  1.037046  0.0
H  H22  1  0.91385638  0.27318351  0.18212538  1  0.100861  -9.3e-05  0.980271  0.0  0.108142  2.5e-05  1.046829  0.0  0.111684  1.8e-05  1.044479  0.0  0.10073  0.105199  1e-05  1.048872  0.0
H  H23  1  0.41385734  0.18213917  0.27318667  1  0.100875  9.3e-05  0.980245  0.0  0.108179  -2.4e-05  1.046776  0.0  0.111723  -1.8e-05  1.044424  0.0  0.100753  0.105228  -1e-05  1.048847  0.0
H  H24  1  0.08613901  0.72682161  0.81787285  1  0.100858  9.4e-05  0.980251  0.0  0.108128  -2.5e-05  1.046812  0.0  0.111673  -1.8e-05  1.044458  0.0  0.10073  0.105171  -1e-05  1.048892  0.0
H  H25  1  0.58613940  0.81786386  0.72681465  1  0.100836  -9.4e-05  0.980261  0.0  0.108129  2.5e-05  1.046808  0.0  0.111673  1.8e-05  1.044455  0.0  0.100728  0.105175  1e-05  1.048885  0.0
H  H26  1  0.11671328  0.09269776  0.23659777  1  0.117029  -1.8e-05  0.958635  0.0  0.12575  -0.000106  1.020769  0.0  0.129574  -5.2e-05  1.018849  0.0  0.106016  0.122536  -8.2e-05  1.02249  0.0
H  H27  1  0.61672725  0.23660277  0.09270752  1  0.116988  1.7e-05  0.958593  0.0  0.125734  0.000105  1.020703  0.0  0.129561  5.2e-05  1.018778  0.0  0.106028  0.122519  8.2e-05  1.022423  0.0
H  H28  1  0.88327192  0.90729813  0.76340448  1  0.116992  2.5e-05  0.958658  0.0  0.125768  0.000105  1.020723  0.0  0.129596  5.2e-05  1.018796  0.0  0.106013  0.122552  8.2e-05  1.022447  0.0
H  H29  1  0.38327589  0.76339297  0.90729884  1  0.116994  -2e-05  0.958606  0.0  0.125727  -0.000106  1.020729  0.0  0.129555  -5.2e-05  1.018803  0.0  0.106024  0.122511  -8.2e-05  1.022448  0.0
C  C30  1  0.04868949  0.92890889  0.98740838  1  0.522001  0.004663  3.9052  0.008  0.488566  0.000189  4.205953  0.002  0.520459  0.0003  4.200318  0.002  0.196609  0.466133  0.000398  4.208019  0.003
C  C31  1  0.54868129  0.98740928  0.92890468  1  0.521828  -0.004665  3.90511  -0.008  0.488412  -0.000183  4.205832  -0.002  0.520306  -0.000298  4.200195  -0.002  0.196476  0.465986  -0.000395  4.207894  -0.003
C  C32  1  0.95131074  0.07109931  0.01258558  1  0.522095  -0.004663  3.905347  -0.008  0.488716  -0.000182  4.206011  -0.002  0.52061  -0.0003  4.20037  -0.002  0.196637  0.466292  -0.000395  4.208084  -0.003
C  C33  1  0.45130787  0.01259484  0.07109673  1  0.522009  0.004665  3.905373  0.008  0.488641  0.00019  4.20602  0.002  0.520533  0.000299  4.200382  0.002  0.19662  0.466213  0.000398  4.208082  0.003
C  C34  1  0.08987827  0.22953294  0.66458655  1  0.094361  0.011284  3.675742  0.011  0.059097  0.002671  3.931805  0.004  0.070435  0.00365  3.946922  0.005  0.056761  0.051713  0.001661  3.921753  0.003
C  C35  1  0.58988307  0.66458898  0.22953576  1  0.094434  -0.011263  3.675644  -0.011  0.059134  -0.002666  3.931737  -0.004  0.070474  -0.003646  3.946858  -0.005  0.05672  0.051741  -0.00166  3.921681  -0.003
C  C36  1  0.91011869  0.77046908  0.33541086  1  0.094337  -0.011241  3.675739  -0.011  0.059079  -0.002666  3.931809  -0.004  0.070418  -0.003646  3.946929  -0.005  0.05675  0.051692  -0.001661  3.921743  -0.003
C  C37  1  0.41012633  0.33540778  0.77046539  1  0.094255  0.011312  3.67588  0.011  0.059006  0.002669  3.931951  0.004  0.070345  0.003651  3.947072  0.005  0.056689  0.051617  0.001661  3.9219  0.003
C  C38  1  0.26520674  0.04254365  0.60609255  1  0.101008  0.004024  3.703878  0.005  0.07332  -0.000792  3.963311  0.0  0.080222  0.000281  3.983373  0.001  0.032434  0.069003  -0.001558  3.950339  -0.001
C  C39  1  0.76521634  0.60609104  0.04254747  1  0.101073  -0.004013  3.703574  -0.005  0.073388  0.000795  3.963007  0.0  0.080289  -0.000277  3.983074  -0.001  0.032409  0.06907  0.001559  3.950036  0.001
C  C40  1  0.73478662  0.95745426  0.39390806  1  0.100988  -0.003992  3.703604  -0.005  0.073299  0.000794  3.963054  0.0  0.0802  -0.000275  3.983119  -0.001  0.03238  0.068981  0.001559  3.950079  0.001
C  C41  1  0.23479340  0.39390366  0.95745291  1  0.101065  0.004045  3.703748  0.005  0.073472  -0.000792  3.963114  0.0  0.080379  0.000281  3.983174  0.001  0.032514  0.069149  -0.001559  3.950152  -0.001
C  C42  1  0.22456632  0.04702812  0.47949481  1  -0.148548  -0.010076  3.710475  -0.01  -0.16563  -0.003839  3.956286  -0.004  -0.172423  -0.003605  3.976449  -0.004  -0.077329  -0.161277  -0.003825  3.942772  -0.004
C  C43  1  0.72457663  0.47949690  0.04703791  1  -0.148728  0.010066  3.710637  0.01  -0.165797  0.003841  3.956448  0.004  -0.172592  0.003599  3.976613  0.004  -0.077424  -0.161451  0.003825  3.942949  0.004
C  C44  1  0.77542489  0.95296363  0.52050402  1  -0.148686  0.010019  3.710585  0.01  -0.165744  0.003841  3.956383  0.004  -0.172534  0.003597  3.976544  0.004  -0.077389  -0.161399  0.003825  3.942882  0.004
C  C45  1  0.27543234  0.52049572  0.95296592  1  -0.148687  -0.010095  3.71059  -0.01  -0.165784  -0.003838  3.95639  -0.004  -0.172575  -0.003606  3.976542  -0.004  -0.077418  -0.161429  -0.003825  3.942878  -0.004
C  C46  1  0.10922301  0.14834011  0.44078671  1  0.088497  0.004987  3.781309  0.005  0.10161  0.001399  4.006627  0.002  0.105747  0.001574  4.029734  0.002  0.005799  0.099065  0.001237  3.990876  0.001
C  C47  1  0.60923237  0.44078824  0.14834514  1  0.088518  -0.004977  3.781111  -0.005  0.101583  -0.0014  4.006436  -0.002  0.10572  -0.001571  4.029545  -0.002  0.005785  0.099039  -0.001237  3.990687  -0.001
C  C48  1  0.89076571  0.85165987  0.55921839  1  0.088401  -0.004943  3.781427  -0.005  0.101489  -0.001398  4.006774  -0.002  0.105622  -0.001571  4.029886  -0.002  0.005762  0.098941  -0.001237  3.991025  -0.001
C  C49  1  0.39077366  0.55920956  0.85165742  1  0.088522  0.004999  3.781005  0.005  0.101609  0.001397  4.00629  0.002  0.105746  0.001576  4.029399  0.002  0.005776  0.099067  0.001237  3.990536  0.001
C  C50  1  0.03989383  0.24306362  0.53735160  1  -0.001286  -0.007349  3.809886  -0.008  0.019713  -0.002932  4.033084  -0.004  0.014727  -0.002575  4.05653  -0.003  -0.00876  0.022454  -0.003067  4.017356  -0.004
C  C51  1  0.53989732  0.53735784  0.24306592  1  -0.001254  0.007331  3.809789  0.008  0.019839  0.002929  4.032863  0.004  0.014854  0.002573  4.056301  0.003  -0.008662  0.022572  0.003067  4.017143  0.004
C  C52  1  0.96010394  0.75693323  0.46264743  1  -0.001124  0.007316  3.809716  0.008  0.019895  0.002929  4.032885  0.004  0.01491  0.002573  4.056328  0.003  -0.008668  0.022641  0.003068  4.017144  0.004
C  C53  1  0.46010982  0.46263998  0.75693243  1  -0.001248  -0.00737  3.809933  -0.008  0.019865  -0.002931  4.032924  -0.004  0.014884  -0.002577  4.05636  -0.003  -0.008643  0.022599  -0.003067  4.017203  -0.004
C  C54  1  0.92586372  0.34818187  0.50330726  1  -0.112881  0.004535  3.766952  0.004  -0.133118  0.000768  4.012429  0.001  -0.134741  0.001038  4.034659  0.001  -0.089428  -0.132147  0.000368  3.997281  0.0
C  C55  1  0.42586399  0.50331450  0.34818136  1  -0.112887  -0.004523  3.76698  -0.004  -0.133122  -0.000768  4.01241  -0.001  -0.134731  -0.001036  4.034647  -0.001  -0.089412  -0.132148  -0.000368  3.997267  0.0
C  C56  1  0.07413390  0.65182218  0.49669478  1  -0.112913  -0.004491  3.767051  -0.004  -0.133152  -0.000768  4.012511  -0.001  -0.134762  -0.001036  4.034745  -0.001  -0.089441  -0.132182  -0.000368  3.997361  0.0
C  C57  1  0.57413946  0.49668643  0.65181816  1  -0.112948  0.00457  3.767091  0.004  -0.133182  0.000767  4.01255  0.001  -0.134796  0.001041  4.034786  0.001  -0.089442  -0.13221  0.000368  3.997404  0.0
C  C58  1  0.88163528  0.35839020  0.37719512  1  -0.074751  -0.004071  3.772473  -0.004  -0.086215  -0.000758  4.020573  -0.001  -0.089888  -0.000935  4.043913  -0.001  -0.092107  -0.083704  -0.000549  4.004894  -0.001
C  C59  1  0.38163134  0.37720773  0.35839099  1  -0.074758  0.004051  3.772371  0.004  -0.086168  0.000759  4.020474  0.001  -0.08984  0.000933  4.04381  0.001  -0.092111  -0.083659  0.000549  4.004801  0.001
C  C60  1  0.11836557  0.64161385  0.62280336  1  -0.07494  0.004018  3.772329  0.004  -0.086381  0.00076  4.020437  0.001  -0.090053  0.000933  4.043771  0.001  -0.092185  -0.083875  0.000549  4.00477  0.001
C  C61  1  0.61836826  0.62279736  0.64160856  1  -0.07474  -0.004104  3.772448  -0.004  -0.086158  -0.000757  4.020549  -0.001  -0.089832  -0.000937  4.043886  -0.001  -0.092076  -0.083648  -0.000549  4.004868  -0.001
C  C62  1  0.94939009  0.26449005  0.28164416  1  -0.047618  0.005301  3.73241  0.005  -0.062848  0.001354  3.981646  0.001  -0.062804  0.001508  4.002539  0.001  -0.083374  -0.063327  0.000984  3.968305  0.001
C  C63  1  0.44939540  0.28165323  0.26448867  1  -0.047673  -0.00529  3.732509  -0.005  -0.06294  -0.001353  3.981759  -0.001  -0.062898  -0.00151  4.002658  -0.001  -0.083351  -0.063423  -0.000985  3.968415  -0.001
C  C64  1  0.05060207  0.73551508  0.71835762  1  -0.047446  -0.005257  3.732238  -0.005  -0.062652  -0.001352  3.981454  -0.001  -0.06261  -0.001508  4.00235  -0.001  -0.083254  -0.063131  -0.000985  3.968102  -0.001
C  C65  1  0.55060702  0.71834771  0.73550899  1  -0.047557  0.005319  3.732519  0.005  -0.062811  0.001351  3.981761  0.001  -0.062767  0.001511  4.002659  0.001  -0.083312  -0.063293  0.000985  3.968408  0.001
C  C66  1  0.06119156  0.16171714  0.31209050  1  -0.105327  -0.004713  3.683068  -0.005  -0.125472  -0.000996  3.931057  -0.001  -0.130694  -0.001134  3.951933  -0.001  -0.082381  -0.121845  -0.000671  3.916957  -0.001
C  C67  1  0.56119925  0.31209842  0.16172573  1  -0.105235  0.004706  3.682965  0.004  -0.125382  0.000993  3.930961  0.001  -0.130609  0.001136  3.951845  0.001  -0.082418  -0.121759  0.000671  3.916863  0.001
C  C68  1  0.93879790  0.83827874  0.68791004  1  -0.105317  0.004649  3.683306  0.004  -0.125501  0.000992  3.931288  0.001  -0.130728  0.001134  3.952177  0.001  -0.082412  -0.121874  0.000672  3.917189  0.001
C  C69  1  0.43880374  0.68789836  0.83827950  1  -0.105299  -0.004723  3.682966  -0.005  -0.125445  -0.000993  3.930954  -0.001  -0.130672  -0.001136  3.951835  -0.001  -0.082434  -0.121817  -0.000671  3.916847  -0.001
N  N70  1  0.19804033  0.13353529  0.69747446  1  -0.298577  -0.075424  3.379751  -0.092  -0.253786  -0.052007  3.679346  -0.069  -0.28345  -0.043541  3.702549  -0.06  -0.351427  -0.236754  -0.05477  3.666384  -0.069
N  N71  1  0.69804425  0.69747761  0.13353885  1  -0.298588  0.075418  3.37932  0.092  -0.253829  0.052004  3.678983  0.069  -0.28351  0.04354  3.702192  0.06  -0.35142  -0.236795  0.05477  3.666011  0.069
N  N72  1  0.80195910  0.86646466  0.30252183  1  -0.29854  0.0754  3.379524  0.092  -0.253782  0.052002  3.679164  0.069  -0.283463  0.043541  3.702372  0.06  -0.351421  -0.236749  0.054768  3.666189  0.069
N  N73  1  0.30196287  0.30252020  0.86646151  1  -0.298449  -0.075446  3.379591  -0.092  -0.25383  -0.052004  3.679353  -0.069  -0.283501  -0.043542  3.702561  -0.06  -0.351459  -0.2368  -0.054768  3.666399  -0.069
O  O74  1  0.17885012  0.93109916  0.92957018  1  -0.544751  -0.083561  2.110581  -0.108  -0.525439  -0.051144  2.382025  -0.073  -0.565413  -0.039151  2.377998  -0.059  -0.316476  -0.496405  -0.058842  2.384284  -0.081
O  O75  1  0.67884526  0.92956478  0.93109431  1  -0.544688  0.083559  2.110525  0.108  -0.525367  0.051138  2.381955  0.073  -0.56535  0.039152  2.377926  0.059  -0.316445  -0.496335  0.058838  2.384215  0.081
O  O76  1  0.82115295  0.06890492  0.07042088  1  -0.544828  0.083544  2.110709  0.108  -0.525525  0.05113  2.382116  0.073  -0.565505  0.03914  2.378081  0.059  -0.31651  -0.496493  0.058825  2.38438  0.081
O  O77  1  0.32114916  0.07043313  0.06890613  1  -0.544724  -0.083543  2.110669  -0.108  -0.52542  -0.051138  2.382086  -0.073  -0.565389  -0.039147  2.378059  -0.059  -0.316479  -0.496392  -0.058836  2.384348  -0.081
O  O78  1  0.99479592  0.82030772  0.02385079  1  -0.585856  -0.012599  2.025879  -0.015  -0.560241  -0.006941  2.276816  -0.009  -0.58618  -0.004281  2.266099  -0.005  -0.315107  -0.537904  -0.012728  2.281581  -0.017
O  O79  1  0.49478622  0.02385104  0.82030048  1  -0.585784  0.012605  2.025773  0.015  -0.560181  0.006939  2.27667  0.009  -0.586107  0.004282  2.265952  0.005  -0.315025  -0.537853  0.012725  2.281443  0.017
O  O80  1  0.00520570  0.17969841  0.97614425  1  -0.585908  0.012597  2.025967  0.015  -0.560333  0.006937  2.276914  0.009  -0.586265  0.004285  2.266196  0.005  -0.315122  -0.537999  0.012723  2.281677  0.017
O  O81  1  0.50520829  0.97615307  0.17969703  1  -0.585877  -0.012595  2.025924  -0.015  -0.560286  -0.006939  2.276815  -0.009  -0.586225  -0.004279  2.266092  -0.005  -0.315098  -0.537955  -0.012724  2.281584  -0.017
