# generated using pymatgen
data_Cd3H46C65(NO3)5
_symmetry_space_group_name_H-M   'P 1'
_cell_length_a   14.42028507
_cell_length_b   15.11569052
_cell_length_c   17.54929223
_cell_angle_alpha   112.54488420
_cell_angle_beta   106.00208083
_cell_angle_gamma   93.62048253
_symmetry_Int_Tables_number   1
_chemical_formula_structural   Cd3H46C65(NO3)5
_chemical_formula_sum   'Cd6 H92 C130 N10 O30'
_cell_volume   3334.05867687
_cell_formula_units_Z   2
loop_
 _symmetry_equiv_pos_site_id
 _symmetry_equiv_pos_as_xyz
  1  'x, y, z'
loop_
 _atom_site_type_symbol
 _atom_site_label
 _atom_site_symmetry_multiplicity
 _atom_site_fract_x
 _atom_site_fract_y
 _atom_site_fract_z
 _atom_site_occupancy
 _atom_site_pbe_bader_charge
 _atom_site_pbe_bader_spin_density
 _atom_site_pbe_cm5_charge
 _atom_site_pbe_ddec_charge
 _atom_site_pbe_ddec_spin_density
 _atom_site_pbe_ddec_sum_bond_order
 _atom_site_pbe_magmom
Cd  Cd0  1  0.05377869  0.79019771  0.33463267  1  1.340002  0  0.791288  1.051174  0  2.062035  0
Cd  Cd1  1  0.94621592  0.20980196  0.66536658  1  1.339939  0  0.79131  1.05117  0  2.062063  0
Cd  Cd2  1  0.33847220  0.64398274  0.32010335  1  1.272957  0  0.766356  0.929931  0  2.092506  0
Cd  Cd3  1  0.66153288  0.35602281  0.67989961  1  1.272947  0  0.76636  0.929929  0  2.092618  0
Cd  Cd4  1  0.72812626  0.11002105  0.75582345  1  1.320033  0  0.780656  1.030619  0  2.03282  0
Cd  Cd5  1  0.27187359  0.88997573  0.24417829  1  1.320054  0  0.780645  1.030664  0  2.032741  0
H  H6  1  0.16496789  0.62171942  0.05501170  1  0.14971  0  0.116578  0.128417  0  0.999145  0
H  H7  1  0.83503354  0.37827810  0.94499064  1  0.149702  0  0.116572  0.128414  0  0.999163  0
H  H8  1  0.03123359  0.59834338  0.91726388  1  0.082386  0  0.113799  0.128367  0  0.982505  0
H  H9  1  0.96876842  0.40165340  0.08273721  1  0.082363  0  0.113854  0.128472  0  0.982366  0
H  H10  1  0.85797080  0.59802265  0.92126994  1  0.120343  0  0.136097  0.119068  0  0.962656  0
H  H11  1  0.14203121  0.40197414  0.07873057  1  0.120309  0  0.136129  0.119091  0  0.962592  0
H  H12  1  0.79886629  0.68865650  0.11619038  1  0.115332  0  0.112084  0.10165  0  1.020871  0
H  H13  1  0.20113160  0.31134537  0.88380805  1  0.115087  0  0.112082  0.101637  0  1.020849  0
H  H14  1  0.76053174  0.65883038  0.00189800  1  0.059465  0  0.114165  0.096973  0  0.980704  0
H  H15  1  0.23946862  0.34116931  0.99809912  1  0.059481  0  0.11419  0.097015  0  0.980689  0
H  H16  1  0.65470952  0.50701784  0.90172247  1  0.109401  0  0.098236  0.111349  0  1.036405  0
H  H17  1  0.34528998  0.49298113  0.09827422  1  0.109462  0  0.098243  0.111364  0  1.036424  0
H  H18  1  0.56312662  0.34781313  0.87313498  1  0.075393  0  0.100269  0.099907  0  1.019071  0
H  H19  1  0.43687361  0.65218583  0.12686415  1  0.075386  0  0.100278  0.099932  0  1.019072  0
H  H20  1  0.72607048  0.38145845  0.13057338  1  0.056632  0  0.092658  0.09242  0  1.048028  0
H  H21  1  0.27392524  0.61854705  0.86943205  1  0.05629  0  0.092627  0.092395  0  1.048079  0
H  H22  1  0.81938638  0.54193791  0.16040306  1  0.082464  0  0.099116  0.109779  0  1.02564  0
H  H23  1  0.18061279  0.45806688  0.83959833  1  0.082482  0  0.099129  0.109784  0  1.025651  0
H  H24  1  0.50703054  0.01940095  0.88183192  1  0.090857  0  0.100224  0.103555  0  1.023142  0
H  H25  1  0.49296196  0.98060308  0.11816432  1  0.090852  0  0.100278  0.103646  0  1.023095  0
H  H26  1  0.41808530  0.04406791  0.99023567  1  0.065728  0  0.098849  0.096686  0  1.012787  0
H  H27  1  0.58191155  0.95593614  0.00976382  1  0.06564  0  0.098907  0.096789  0  1.012742  0
H  H28  1  0.42843103  0.21411938  0.09903860  1  0.058598  0  0.102909  0.101542  0  0.99569  0
H  H29  1  0.57156872  0.78588469  0.90096269  1  0.058931  0  0.102899  0.101565  0  0.99564  0
H  H30  1  0.52776991  0.35338427  0.09912956  1  0.083521  0  0.10107  0.105306  0  1.020577  0
H  H31  1  0.47223174  0.64661835  0.90087223  1  0.083587  0  0.101048  0.105272  0  1.02069  0
H  H32  1  0.95840186  0.90196400  0.06576082  1  0.119499  0  0.118269  0.12444  0  0.968943  0
H  H33  1  0.04159608  0.09803423  0.93423870  1  0.119497  0  0.118271  0.124448  0  0.96892  0
H  H34  1  0.77313829  0.88990177  0.01649197  1  0.103167  0  0.113166  0.126007  0  0.988414  0
H  H35  1  0.22686020  0.11009938  0.98350807  1  0.103062  0  0.11317  0.126003  0  0.988435  0
H  H36  1  0.68422713  0.88546619  0.11929142  1  0.122925  0  0.119716  0.09083  0  1.04411  0
H  H37  1  0.31577050  0.11453422  0.88070875  1  0.122968  0  0.119726  0.090828  0  1.04422  0
H  H38  1  0.68604173  0.91317293  0.25125983  1  0.077242  0  0.113188  0.094715  0  0.999118  0
H  H39  1  0.31395492  0.08682601  0.74874078  1  0.077255  0  0.1132  0.094747  0  0.999154  0
H  H40  1  0.79695429  0.94190302  0.33877939  1  0.111687  0  0.119758  0.116777  0  0.987768  0
H  H41  1  0.20304303  0.05809958  0.66122143  1  0.111656  0  0.11979  0.11682  0  0.987775  0
H  H42  1  0.60113688  0.73732232  0.15847783  1  0.048135  0  0.096814  0.095742  0  1.023515  0
H  H43  1  0.39886292  0.26267810  0.84152454  1  0.04855  0  0.096795  0.0957  0  1.023456  0
H  H44  1  0.55911911  0.57942871  0.16455470  1  0.110814  0  0.102446  0.103422  0  1.013807  0
H  H45  1  0.44088346  0.42057100  0.83544976  1  0.110748  0  0.102432  0.103354  0  1.013825  0
H  H46  1  0.81474167  0.66135156  0.39216760  1  0.065213  0  0.102261  0.106674  0  1.003316  0
H  H47  1  0.18526532  0.33864890  0.60783181  1  0.065275  0  0.102282  0.106656  0  1.003382  0
H  H48  1  0.85700496  0.81756398  0.38502342  1  0.126492  0  0.103024  0.107311  0  1.036436  0
H  H49  1  0.14299799  0.18243792  0.61497785  1  0.126625  0  0.103014  0.107324  0  1.03648  0
H  H50  1  0.46767508  0.36164893  0.27622959  1  0.086725  0  0.104043  0.106484  0  0.998185  0
H  H51  1  0.53232818  0.63835078  0.72376932  1  0.086557  0  0.104009  0.106411  0  0.998292  0
H  H52  1  0.59433865  0.25604987  0.27607702  1  0.055514  0  0.099895  0.095337  0  1.021891  0
H  H53  1  0.40566618  0.74395058  0.72392249  1  0.055867  0  0.0999  0.095352  0  1.021898  0
H  H54  1  0.75950354  0.31552552  0.27732749  1  0.061317  0  0.09713  0.092224  0  1.033158  0
H  H55  1  0.24049958  0.68447346  0.72267172  1  0.061412  0  0.09707  0.092081  0  1.033207  0
H  H56  1  0.79984861  0.48230870  0.28502039  1  0.07041  0  0.104968  0.106894  0  0.992455  0
H  H57  1  0.20015683  0.51769102  0.71498129  1  0.070519  0  0.104981  0.106906  0  0.992454  0
H  H58  1  0.56134758  0.07862024  0.41314599  1  0.121571  0  0.115755  0.121259  0  0.977069  0
H  H59  1  0.43865136  0.92138309  0.58686114  1  0.121345  0  0.115727  0.121249  0  0.977051  0
H  H60  1  0.53073869  0.90610771  0.30255780  1  0.117342  0  0.106168  0.127952  0  1.02674  0
H  H61  1  0.46925661  0.09389561  0.69744453  1  0.117298  0  0.10615  0.12791  0  1.026873  0
H  H62  1  0.58018919  0.77731683  0.35746598  1  0.14831  0  0.127116  0.111854  0  1.026838  0
H  H63  1  0.41980728  0.22268504  0.64253613  1  0.148263  0  0.127094  0.111834  0  1.026797  0
H  H64  1  0.62975853  0.73166416  0.45984172  1  0.12425  0  0.116134  0.116032  0  1.004507  0
H  H65  1  0.37023895  0.26833552  0.54015590  1  0.12429  0  0.116159  0.116076  0  1.004483  0
H  H66  1  0.62706868  0.80412945  0.56630060  1  0.081  0  0.120613  0.117615  0  0.951044  0
H  H67  1  0.37293260  0.19586734  0.43369918  1  0.080937  0  0.120632  0.117678  0  0.950967  0
H  H68  1  0.80531190  0.93055777  0.51264269  1  0.083289  0  0.102618  0.10777  0  1.02084  0
H  H69  1  0.19468879  0.06943974  0.48735663  1  0.083252  0  0.102643  0.10785  0  1.020848  0
H  H70  1  0.98268844  0.94396180  0.56617098  1  0.083773  0  0.102936  0.112988  0  1.010431  0
H  H71  1  0.01731384  0.05603644  0.43383064  1  0.083738  0  0.10294  0.113027  0  1.010512  0
H  H72  1  0.94455840  0.72581787  0.66226051  1  0.033501  0  0.096934  0.092596  0  1.013624  0
H  H73  1  0.05543632  0.27417087  0.33773286  1  0.033641  0  0.096991  0.092669  0  1.013599  0
H  H74  1  0.76462232  0.71057734  0.60678374  1  0.068254  0  0.096608  0.095517  0  1.017321  0
H  H75  1  0.23537159  0.28941504  0.39320611  1  0.068395  0  0.096636  0.095538  0  1.017322  0
H  H76  1  0.29433172  0.86715931  0.59831145  1  0.086882  0  0.104446  0.108941  0  1.022929  0
H  H77  1  0.70566192  0.13283525  0.40168476  1  0.086869  0  0.104428  0.10889  0  1.022899  0
H  H78  1  0.37173455  0.89403898  0.75308268  1  0.072588  0  0.102377  0.100432  0  1.003302  0
H  H79  1  0.62826300  0.10595341  0.24691197  1  0.072525  0  0.102392  0.100392  0  1.00331  0
H  H80  1  0.26469572  0.88519880  0.84161390  1  0.050484  0  0.101883  0.099814  0  0.990651  0
H  H81  1  0.73530365  0.11479944  0.15838479  1  0.050486  0  0.101875  0.099812  0  0.990659  0
H  H82  1  0.08343723  0.85812961  0.77678260  1  0.059376  0  0.101716  0.105491  0  1.000466  0
H  H83  1  0.91656071  0.14186862  0.22321634  1  0.059312  0  0.101709  0.105459  0  1.00049  0
H  H84  1  0.38698994  0.48082892  0.42548113  1  0.087723  0  0.117576  0.113304  0  1.000217  0
H  H85  1  0.61300989  0.51916786  0.57451776  1  0.087516  0  0.117578  0.113297  0  1.000158  0
H  H86  1  0.28131253  0.47226813  0.53470404  1  0.125509  0  0.121316  0.122884  0  1.021873  0
H  H87  1  0.71868561  0.52772353  0.46529050  1  0.125541  0  0.121332  0.122938  0  1.021914  0
H  H88  1  0.16239348  0.64417688  0.40425613  1  0.16158  0  0.13175  0.107756  0  1.044748  0
H  H89  1  0.83761796  0.35582797  0.59574744  1  0.16187  0  0.131739  0.10777  0  1.044724  0
H  H90  1  0.09542326  0.64155279  0.51594549  1  0.126565  0  0.111365  0.098249  0  1.01482  0
H  H91  1  0.90458427  0.35845059  0.48405501  1  0.126565  0  0.111286  0.098147  0  1.014855  0
H  H92  1  0.15642898  0.59457497  0.59076468  1  0.096679  0  0.103936  0.081304  0  1.032037  0
H  H93  1  0.84357314  0.40542255  0.40923382  1  0.096695  0  0.103942  0.08128  0  1.032046  0
H  H94  1  0.00857268  0.47247833  0.40842670  1  -0.011764  0  0.094164  0.089048  0  0.969292  0
H  H95  1  0.99143061  0.52752575  0.59156683  1  -0.011495  0  0.094183  0.089061  0  0.969287  0
H  H96  1  0.06773046  0.42491260  0.48290416  1  0.039146  0  0.093367  0.089948  0  0.994729  0
H  H97  1  0.93227028  0.57508928  0.51709036  1  0.039192  0  0.093399  0.089989  0  0.99477  0
C  C98  1  0.14939269  0.64385584  0.20690145  1  1.566074  0  0.199156  0.591515  0  4.203108  0
C  C99  1  0.85060683  0.35614312  0.79309867  1  1.566048  0  0.19916  0.591548  0  4.202953  0
C  C100  1  0.06892301  0.64223600  0.13083986  1  -0.055877  0  -0.031861  -0.213794  0  3.953111  0
C  C101  1  0.93107637  0.35776224  0.86915998  1  -0.055885  0  -0.031832  -0.213824  0  3.953109  0
C  C102  1  0.08951234  0.62566999  0.05425075  1  -0.011485  0  -0.053096  -0.000208  0  3.931744  0
C  C103  1  0.91048763  0.37432752  0.94574898  1  -0.011433  0  -0.053067  -0.000139  0  3.93178  0
C  C104  1  0.01553788  0.61269294  0.97762325  1  0.090533  0  -0.102811  -0.172999  0  4.045995  0
C  C105  1  0.98446210  0.38730456  0.02237763  1  0.090484  0  -0.102867  -0.173107  0  4.045842  0
C  C106  1  0.92079744  0.61401442  0.97913042  1  0.340062  0  0.057837  0.053501  0  3.913449  0
C  C107  1  0.07920380  0.38598600  0.02087056  1  0.340157  0  0.057854  0.053537  0  3.913197  0
C  C108  1  0.97145192  0.65273148  0.13424260  1  1.212578  0  0.219955  0.413733  0  4.086938  0
C  C109  1  0.02854801  0.34726967  0.86575833  1  1.212609  0  0.219927  0.413751  0  4.086866  0
C  C110  1  0.79621957  0.63451071  0.05217954  1  0.262589  0  -0.055228  -0.117872  0  3.89158  0
C  C111  1  0.20378106  0.36549044  0.94781870  1  0.262837  0  -0.055257  -0.117894  0  3.891611  0
C  C112  1  0.74209553  0.53610915  0.03378627  1  -0.040876  0  -0.019805  0.080188  0  3.977072  0
C  C113  1  0.25790413  0.46389054  0.96621411  1  -0.040983  0  -0.019837  0.080145  0  3.977277  0
C  C114  1  0.67001179  0.48059807  0.95293600  1  -0.022713  0  -0.091681  -0.128486  0  3.971491  0
C  C115  1  0.32998685  0.51940016  0.04706083  1  -0.022743  0  -0.091677  -0.128505  0  3.971601  0
C  C116  1  0.61800566  0.39075375  0.93675524  1  -0.078725  0  -0.088592  -0.110606  0  3.963373  0
C  C117  1  0.38199616  0.60924596  0.06324620  1  -0.078733  0  -0.088577  -0.110589  0  3.963335  0
C  C118  1  0.63623801  0.35518314  0.00125269  1  -0.013726  0  -0.005234  0.078915  0  4.00222  0
C  C119  1  0.36376233  0.64482020  0.99875019  1  -0.013316  0  -0.00524  0.078852  0  4.002239  0
C  C120  1  0.71065808  0.40977149  0.08090922  1  -0.077004  0  -0.096654  -0.133082  0  3.996427  0
C  C121  1  0.28933924  0.59023110  0.91909218  1  -0.076588  0  -0.096584  -0.133021  0  3.996365  0
C  C122  1  0.76314861  0.49918961  0.09743710  1  -0.015263  0  -0.098325  -0.13383  0  3.991073  0
C  C123  1  0.23685033  0.50081008  0.90256427  1  -0.015588  0  -0.09832  -0.133788  0  3.991018  0
C  C124  1  0.57545619  0.26638576  0.99239654  1  0.002834  0  0.004482  0.058442  0  3.945021  0
C  C125  1  0.42453983  0.73361755  0.00760652  1  0.003042  0  0.004545  0.058495  0  3.944955  0
C  C126  1  0.56833066  0.17077613  0.93056641  1  -0.070426  0  -0.015036  -0.06817  0  3.929984  0
C  C127  1  0.43166401  0.82922791  0.06943089  1  -0.070455  0  -0.015073  -0.068062  0  3.929945  0
C  C128  1  0.51037523  0.09220361  0.93016371  1  -0.082822  0  -0.094018  -0.115439  0  4.014609  0
C  C129  1  0.48961800  0.90780042  0.06983440  1  -0.083074  0  -0.094011  -0.115541  0  4.014608  0
C  C130  1  0.46084314  0.10642323  0.99055286  1  -0.05094  0  -0.102711  -0.109391  0  4.063172  0
C  C131  1  0.53915402  0.89357864  0.00944598  1  -0.050783  0  -0.102791  -0.109553  0  4.063176  0
C  C132  1  0.46687568  0.20100812  0.05133225  1  -0.045556  0  -0.093259  -0.080488  0  4.033509  0
C  C133  1  0.53311978  0.79899228  0.94866630  1  -0.04595  0  -0.093276  -0.080503  0  4.0336  0
C  C134  1  0.52313034  0.27963638  0.05158371  1  -0.061002  0  -0.089269  -0.129187  0  3.966735  0
C  C135  1  0.47687000  0.72036696  0.94841861  1  -0.061214  0  -0.089282  -0.129218  0  3.966913  0
C  C136  1  0.62425314  0.14694932  0.86683635  1  1.574176  0  0.187475  0.554465  0  4.239369  0
C  C137  1  0.37574252  0.85305618  0.13316051  1  1.574288  0  0.187488  0.554552  0  4.239312  0
C  C138  1  0.07382715  0.90167305  0.20965082  1  1.583698  0  0.199371  0.595204  0  4.197399  0
C  C139  1  0.92616807  0.09832224  0.79034655  1  1.583879  0  0.199298  0.595053  0  4.197747  0
C  C140  1  0.96529222  0.89868676  0.18711025  1  0.035132  0  -0.022725  -0.191072  0  3.921883  0
C  C141  1  0.03470369  0.10131218  0.81288905  1  0.035673  0  -0.022756  -0.191054  0  3.921879  0
C  C142  1  0.91531893  0.89792007  0.10698648  1  -0.06199  0  -0.055956  -0.012099  0  3.959227  0
C  C143  1  0.08467856  0.10207961  0.89301399  1  -0.062207  0  -0.056013  -0.012217  0  3.959303  0
C  C144  1  0.81316756  0.89166106  0.07958937  1  -0.016847  0  -0.105667  -0.184788  0  4.061068  0
C  C145  1  0.18682864  0.10833934  0.92041219  1  -0.016631  0  -0.105633  -0.184709  0  4.060994  0
C  C146  1  0.76325374  0.88900391  0.13536550  1  0.404428  0  0.056244  0.053804  0  3.942937  0
C  C147  1  0.23674488  0.11099797  0.86463595  1  0.404388  0  0.056241  0.053828  0  3.942986  0
C  C148  1  0.91207767  0.89374348  0.24435742  1  1.227348  0  0.225929  0.419847  0  4.075946  0
C  C149  1  0.08792081  0.10625767  0.75564318  1  1.226974  0  0.225951  0.419874  0  4.075956  0
C  C150  1  0.75420900  0.88828658  0.27281737  1  0.246434  0  -0.053229  -0.119302  0  3.884031  0
C  C151  1  0.24579021  0.11171457  0.72718340  1  0.246528  0  -0.053242  -0.119363  0  3.884114  0
C  C152  1  0.73217278  0.78896900  0.27204541  1  0.038496  0  -0.017815  0.077345  0  3.979822  0
C  C153  1  0.26782887  0.21103362  0.72795753  1  0.038807  0  -0.017815  0.077389  0  3.979744  0
C  C154  1  0.64848040  0.72069506  0.20973676  1  -0.084222  0  -0.094872  -0.135314  0  3.988649  0
C  C155  1  0.35152009  0.27930900  0.79026640  1  -0.084774  0  -0.094816  -0.135201  0  3.988604  0
C  C156  1  0.62396335  0.63229935  0.21361311  1  -0.119689  0  -0.087446  -0.118119  0  3.974037  0
C  C157  1  0.37603993  0.36770036  0.78638980  1  -0.119922  0  -0.087399  -0.118002  0  3.973909  0
C  C158  1  0.68240523  0.60977431  0.27977644  1  0.032355  0  -0.005407  0.067377  0  4.007902  0
C  C159  1  0.31759976  0.39022686  0.72022676  1  0.032571  0  -0.005374  0.067469  0  4.007672  0
C  C160  1  0.76780420  0.67674307  0.34004784  1  -0.063333  0  -0.086958  -0.120237  0  3.962449  0
C  C161  1  0.23219979  0.32325664  0.65995294  1  -0.063458  0  -0.087066  -0.120368  0  3.962599  0
C  C162  1  0.79196681  0.76531271  0.33631960  1  -0.093952  0  -0.088556  -0.119742  0  3.979361  0
C  C163  1  0.20803700  0.23468992  0.66368211  1  -0.094153  0  -0.088527  -0.11978  0  3.979508  0
C  C164  1  0.65669756  0.51544433  0.28348154  1  0.023912  0  -0.001031  0.046553  0  3.970245  0
C  C165  1  0.34330716  0.48455539  0.71652055  1  0.0239  0  -0.001038  0.046591  0  3.970132  0
C  C166  1  0.56229319  0.47999082  0.28077833  1  -0.071105  0  -0.012833  -0.067791  0  3.931343  0
C  C167  1  0.43771210  0.52000817  0.71922193  1  -0.071216  0  -0.012835  -0.067828  0  3.931202  0
C  C168  1  0.54121791  0.38686508  0.27828870  1  -0.014357  0  -0.085158  -0.102761  0  4.000395  0
C  C169  1  0.45878503  0.61313682  0.72171086  1  -0.014147  0  -0.085122  -0.102636  0  4.000369  0
C  C170  1  0.61177003  0.32824536  0.27816628  1  -0.057184  0  -0.09353  -0.084342  0  4.035876  0
C  C171  1  0.38823035  0.67175434  0.72183369  1  -0.057682  0  -0.093598  -0.084495  0  4.03608  0
C  C172  1  0.70496147  0.36244784  0.28023158  1  -0.040209  0  -0.093985  -0.087459  0  4.043217  0
C  C173  1  0.29504428  0.63754970  0.71976887  1  -0.040163  0  -0.0939  -0.087198  0  4.043398  0
C  C174  1  0.72731471  0.45559891  0.28431830  1  -0.094462  0  -0.092153  -0.144723  0  4.002181  0
C  C175  1  0.27269184  0.54440300  0.71568264  1  -0.094484  0  -0.092161  -0.144789  0  4.002186  0
C  C176  1  0.48176092  0.53822026  0.28481489  1  1.569874  0  0.187839  0.556524  0  4.254626  0
C  C177  1  0.51824694  0.46178093  0.71518610  1  1.570064  0  0.187746  0.556401  0  4.254789  0
C  C178  1  0.63378447  0.15207566  0.58263039  1  1.518981  0  0.195949  0.591376  0  4.197745  0
C  C179  1  0.36621692  0.84792550  0.41737371  1  1.51846  0  0.19598  0.591438  0  4.197712  0
C  C180  1  0.62006925  0.04682773  0.52281493  1  -0.02278  0  -0.030611  -0.21147  0  3.944154  0
C  C181  1  0.37992913  0.95317268  0.47718883  1  -0.023108  0  -0.030576  -0.21154  0  3.944051  0
C  C182  1  0.58136651  0.02096977  0.43367715  1  -0.036464  0  -0.056694  -0.009296  0  3.961497  0
C  C183  1  0.41863228  0.97903284  0.56632857  1  -0.036216  0  -0.056666  -0.00919  0  3.96139  0
C  C184  1  0.56515916  0.92487970  0.37161271  1  0.078459  0  -0.105156  -0.172337  0  4.026772  0
C  C185  1  0.43483786  0.07512508  0.62839162  1  0.078242  0  -0.105175  -0.172385  0  4.027103  0
C  C186  1  0.59057052  0.85424625  0.40042977  1  0.365675  0  0.061699  0.071254  0  3.870241  0
C  C187  1  0.40942738  0.14575562  0.59957095  1  0.3658  0  0.061695  0.071252  0  3.870351  0
C  C188  1  0.64180170  0.97166148  0.55247028  1  1.214985  0  0.229912  0.42545  0  4.069672  0
C  C189  1  0.35819712  0.02833748  0.44753196  1  1.215981  0  0.22995  0.425538  0  4.06974  0
C  C190  1  0.66019978  0.80232526  0.51654637  1  0.291877  0  -0.046945  -0.115842  0  3.874395  0
C  C191  1  0.33979770  0.19767442  0.48345124  1  0.291837  0  -0.047005  -0.11602  0  3.874426  0
C  C192  1  0.77096953  0.81736342  0.55345737  1  -0.036845  0  -0.009385  0.099947  0  3.96493  0
C  C193  1  0.22902914  0.18263116  0.44653541  1  -0.036701  0  -0.009349  0.099992  0  3.964872  0
C  C194  1  0.83405677  0.88327315  0.54358677  1  0.00841  0  -0.09019  -0.125094  0  3.9714  0
C  C195  1  0.16594320  0.11672436  0.45641239  1  0.008371  0  -0.090234  -0.125245  0  3.971451  0
C  C196  1  0.93542559  0.89085141  0.57365666  1  -0.069638  0  -0.088831  -0.105839  0  3.946782  0
C  C197  1  0.06457411  0.10914464  0.42634196  1  -0.069133  0  -0.088837  -0.105847  0  3.946864  0
C  C198  1  0.97722284  0.83414834  0.61631758  1  -0.015862  0  -0.016256  0.053264  0  4.02145  0
C  C199  1  0.02277455  0.16584697  0.38368028  1  -0.016613  0  -0.016278  0.053287  0  4.02164  0
C  C200  1  0.91388838  0.77024276  0.62868175  1  -0.067481  0  -0.095801  -0.132028  0  4.015382  0
C  C201  1  0.08610718  0.22974670  0.37131149  1  -0.067437  0  -0.095816  -0.132093  0  4.01571  0
C  C202  1  0.81228725  0.76163187  0.59723033  1  -0.028563  0  -0.097682  -0.142176  0  4.004293  0
C  C203  1  0.18770812  0.23836051  0.40276155  1  -0.028572  0  -0.097784  -0.142238  0  4.004373  0
C  C204  1  0.08525095  0.84501230  0.65062921  1  0.001906  0  -0.000513  0.05211  0  3.965786  0
C  C205  1  0.91474599  0.15498446  0.34936903  1  0.001992  0  -0.000533  0.052038  0  3.965648  0
C  C206  1  0.14657237  0.84803727  0.60079776  1  -0.01528  0  -0.011346  -0.064113  0  3.917802  0
C  C207  1  0.85342458  0.15195949  0.39920105  1  -0.015323  0  -0.011372  -0.064149  0  3.917603  0
C  C208  1  0.24898955  0.86529607  0.63834129  1  -0.096159  0  -0.083922  -0.097175  0  3.966607  0
C  C209  1  0.75100937  0.13470362  0.36165722  1  -0.096189  0  -0.083968  -0.097184  0  3.966672  0
C  C210  1  0.29190185  0.87910438  0.72457531  1  -0.048257  0  -0.095148  -0.094743  0  4.029917  0
C  C211  1  0.70809542  0.12089020  0.27542456  1  -0.047916  0  -0.095134  -0.094631  0  4.029925  0
C  C212  1  0.23202932  0.87451205  0.77400850  1  -0.081289  0  -0.095653  -0.087708  0  4.053481  0
C  C213  1  0.76796662  0.12548324  0.22598790  1  -0.081689  0  -0.095627  -0.087747  0  4.053174  0
C  C214  1  0.13006439  0.85781607  0.73718023  1  -0.011046  0  -0.095513  -0.14738  0  3.998969  0
C  C215  1  0.86993341  0.14218143  0.26281788  1  -0.010913  0  -0.09547  -0.147268  0  3.998615  0
C  C216  1  0.10786544  0.83008870  0.50632256  1  1.533569  0  0.193021  0.559411  0  4.246888  0
C  C217  1  0.89213173  0.16991317  0.49367799  1  1.533518  0  0.193062  0.559461  0  4.246827  0
C  C218  1  0.32423880  0.51314409  0.43670180  1  0.431471  0  -0.007456  -0.042866  0  4.036049  0
C  C219  1  0.67576604  0.48685635  0.56329885  1  0.431941  0  -0.007394  -0.042709  0  4.035967  0
C  C220  1  0.27270700  0.50786494  0.49072238  1  0.284967  0  -0.004345  -0.114221  0  3.937263  0
C  C221  1  0.72729341  0.49213111  0.50927469  1  0.284115  0  -0.004419  -0.11446  0  3.937604  0
C  C222  1  0.20995307  0.59853955  0.42363843  1  0.983443  0  0.13825  0.096234  0  3.912713  0
C  C223  1  0.79005447  0.40146382  0.57636264  1  0.983224  0  0.138292  0.096204  0  3.912545  0
C  C224  1  0.12327254  0.57751636  0.52141859  1  0.228378  0  -0.057527  -0.073838  0  3.898264  0
C  C225  1  0.87673098  0.42248481  0.47857972  1  0.228643  0  -0.057334  -0.073485  0  3.898128  0
C  C226  1  0.03975517  0.48955128  0.47845891  1  0.034281  0  -0.160796  -0.158901  0  3.948173  0
C  C227  1  0.96024342  0.51045060  0.52153740  1  0.00771  0  -0.160866  -0.15907  0  3.948332  0
N  N228  1  0.89969814  0.63379509  0.05408363  1  -1.159874  0  -0.224224  -0.02601  0  3.636947  0
N  N229  1  0.10030210  0.36620388  0.94591607  1  -1.159912  0  -0.224271  -0.026099  0  3.636793  0
N  N230  1  0.81052219  0.89077842  0.21429684  1  -1.191386  0  -0.221148  -0.020927  0  3.638223  0
N  N231  1  0.18947472  0.10922199  0.78570374  1  -1.191382  0  -0.221152  -0.020981  0  3.63833  0
N  N232  1  0.62822320  0.87729546  0.48692354  1  -1.181987  0  -0.225725  -0.020077  0  3.651588  0
N  N233  1  0.37177457  0.12270568  0.51307747  1  -1.181952  0  -0.225652  -0.019923  0  3.651493  0
N  N234  1  0.28403946  0.56973191  0.39514565  1  -1.206678  0  -0.360993  -0.296697  0  3.54342  0
N  N235  1  0.71597025  0.43027148  0.60485648  1  -1.206753  0  -0.36103  -0.296733  0  3.543398  0
N  N236  1  0.20060894  0.56277225  0.48157407  1  -1.24601  0  -0.24375  0.049522  0  3.776541  0
N  N237  1  0.79939747  0.43722893  0.51842545  1  -1.245683  0  -0.243867  0.049456  0  3.776434  0
O  O238  1  0.22256482  0.60812366  0.18953000  1  -1.135234  0  -0.313934  -0.526924  0  2.248424  0
O  O239  1  0.77743498  0.39187677  0.81047236  1  -1.135305  0  -0.314004  -0.527014  0  2.248402  0
O  O240  1  0.14443550  0.67757279  0.28425633  1  -1.169047  0  -0.333005  -0.584045  0  2.325066  0
O  O241  1  0.85556087  0.32242470  0.71574487  1  -1.168978  0  -0.332954  -0.583989  0  2.325076  0
O  O242  1  0.94397055  0.67576220  0.20077976  1  -1.152778  0  -0.315013  -0.527882  0  2.306318  0
O  O243  1  0.05602825  0.32423676  0.79921962  1  -1.152735  0  -0.315021  -0.527908  0  2.306221  0
O  O244  1  0.59239609  0.06683241  0.79855888  1  -1.170813  0  -0.340438  -0.570664  0  2.143431  0
O  O245  1  0.40759308  0.93317306  0.20143767  1  -1.170734  0  -0.340491  -0.570833  0  2.143463  0
O  O246  1  0.70199017  0.20604111  0.88316449  1  -1.13827  0  -0.324905  -0.546793  0  2.193564  0
O  O247  1  0.29800740  0.79396294  0.11683460  1  -1.138318  0  -0.324891  -0.546783  0  2.193567  0
O  O248  1  0.12072671  0.93335799  0.17156240  1  -1.144748  0  -0.322836  -0.539029  0  2.090662  0
O  O249  1  0.87927024  0.06663877  0.82843584  1  -1.144873  0  -0.322773  -0.538916  0  2.090904  0
O  O250  1  0.11733458  0.86778636  0.26467526  1  -1.159991  0  -0.332358  -0.589041  0  2.365196  0
O  O251  1  0.88266408  0.13221187  0.73532498  1  -1.160139  0  -0.332349  -0.588973  0  2.365244  0
O  O252  1  0.94685878  0.89334224  0.31844553  1  -1.153854  0  -0.303228  -0.51233  0  2.346076  0
O  O253  1  0.05313956  0.10665818  0.68155366  1  -1.153845  0  -0.303265  -0.512371  0  2.346041  0
O  O254  1  0.50356954  0.62891328  0.33771276  1  -1.168479  0  -0.33175  -0.569107  0  2.22448  0
O  O255  1  0.49643459  0.37108716  0.66228944  1  -1.168428  0  -0.331676  -0.569048  0  2.224509  0
O  O256  1  0.39431197  0.49373815  0.23921375  1  -1.164882  0  -0.337311  -0.560239  0  2.137442  0
O  O257  1  0.60569270  0.50626157  0.76078206  1  -1.16508  0  -0.337271  -0.560166  0  2.137624  0
O  O258  1  0.61690779  0.21173693  0.54792620  1  -1.154381  0  -0.326502  -0.541352  0  2.16301  0
O  O259  1  0.38309578  0.78826424  0.45207953  1  -1.154267  0  -0.326549  -0.54144  0  2.16301  0
O  O260  1  0.66048881  0.18256846  0.66627828  1  -1.142476  0  -0.335931  -0.590169  0  2.33282  0
O  O261  1  0.33951402  0.81743271  0.33372500  1  -1.142336  0  -0.335912  -0.590151  0  2.332797  0
O  O262  1  0.67124963  0.97829952  0.62948853  1  -1.1549  0  -0.311632  -0.509802  0  2.345697  0
O  O263  1  0.32875064  0.02169944  0.37051459  1  -1.155171  0  -0.311694  -0.509898  0  2.34585  0
O  O264  1  0.04539847  0.75209101  0.45189733  1  -1.156661  0  -0.329612  -0.566589  0  2.152359  0
O  O265  1  0.95460559  0.24791307  0.54810264  1  -1.156698  0  -0.329566  -0.566564  0  2.152251  0
O  O266  1  0.14308965  0.89104280  0.48285497  1  -1.146003  0  -0.325965  -0.546342  0  2.133659  0
O  O267  1  0.85691056  0.10895981  0.51714707  1  -1.1459  0  -0.326004  -0.546342  0  2.133742  0
