# generated using pymatgen
data_NdH19C30N5O7
_symmetry_space_group_name_H-M   'P 1'
_cell_length_a   10.59953124
_cell_length_b   11.18116081
_cell_length_c   13.65600000
_cell_angle_alpha   110.25424684
_cell_angle_beta   101.11624738
_cell_angle_gamma   107.96073686
_symmetry_Int_Tables_number   1
_chemical_formula_structural   NdH19C30N5O7
_chemical_formula_sum   'Nd2 H38 C60 N10 O14'
_cell_volume   1360.57942632
_cell_formula_units_Z   2
loop_
 _symmetry_equiv_pos_site_id
 _symmetry_equiv_pos_as_xyz
  1  'x, y, z'
loop_
 _atom_site_type_symbol
 _atom_site_label
 _atom_site_symmetry_multiplicity
 _atom_site_fract_x
 _atom_site_fract_y
 _atom_site_fract_z
 _atom_site_occupancy
 _atom_site_hle17_bader_spin_density
 _atom_site_hle17_ddec_charge
 _atom_site_hle17_ddec_spin_density
 _atom_site_hle17_ddec_sum_bond_order
 _atom_site_hle17_magmom
 _atom_site_hse06_10hf_bader_spin_density
 _atom_site_hse06_10hf_ddec_charge
 _atom_site_hse06_10hf_ddec_spin_density
 _atom_site_hse06_10hf_ddec_sum_bond_order
 _atom_site_hse06_10hf_magmom
 _atom_site_hse06_bader_spin_density
 _atom_site_hse06_ddec_charge
 _atom_site_hse06_ddec_spin_density
 _atom_site_hse06_ddec_sum_bond_order
 _atom_site_hse06_magmom
 _atom_site_pbe_bader_charge
 _atom_site_pbe_bader_spin_density
 _atom_site_pbe_cm5_charge
 _atom_site_pbe_ddec_charge
 _atom_site_pbe_ddec_spin_density
 _atom_site_pbe_ddec_sum_bond_order
 _atom_site_pbe_magmom
Nd  Nd0  1  0.00051726  0.08220641  0.88076516  1  0  2.238739  0  1.714311  0  0  2.053215  0  2.209248  0  0  2.101932  0  2.158274  0  2.226607  0  1.489572  2.016362  0  2.247746  0
Nd  Nd1  1  0.99948240  0.91779326  0.11923470  1  0  2.238734  0  1.714315  0  0  2.053213  0  2.209245  0  0  2.101941  0  2.158264  0  2.226645  0  1.489576  2.016366  0  2.247737  0
H  H2  1  0.12579048  0.35194603  0.86087257  1  0  0.41601  0  0.893213  0  0  0.383968  0  0.959482  0  0  0.39606  0  0.941961  0  0.633233  0  0.287269  0.375479  0  0.971702  0
H  H3  1  0.87420918  0.64805363  0.13912728  1  0  0.415992  0  0.893242  0  0  0.383966  0  0.959498  0  0  0.396059  0  0.94198  0  0.633236  0  0.287264  0.375475  0  0.971721  0
H  H4  1  0.23725240  0.35927529  0.95962349  1  0  0.417954  0  0.849649  0  0  0.396179  0  0.913987  0  0  0.403757  0  0.905561  0  0.607508  0  0.309268  0.390811  0  0.919745  0
H  H5  1  0.76274823  0.64072438  0.04037578  1  0  0.417934  0  0.849673  0  0  0.39616  0  0.914007  0  0  0.403738  0  0.905586  0  0.6075  0  0.309254  0.39079  0  0.919766  0
H  H6  1  0.65302058  0.91822543  0.72467086  1  0  0.086939  0  0.951284  0  0  0.092596  0  1.017295  0  0  0.095815  0  1.014099  0  0.103243  0  0.122082  0.090284  0  1.019491  0
H  H7  1  0.34697909  0.08177423  0.27532900  1  0  0.086949  0  0.951278  0  0  0.092608  0  1.017285  0  0  0.095827  0  1.014088  0  0.103243  0  0.122088  0.0903  0  1.019472  0
H  H8  1  0.47433121  0.76658687  0.53114158  1  0  0.102728  0  0.984503  0  0  0.107852  0  1.051759  0  0  0.111217  0  1.050727  0  0.141197  0  0.102415  0.105758  0  1.051923  0
H  H9  1  0.52566889  0.23341384  0.46885864  1  0  0.102729  0  0.984494  0  0  0.107814  0  1.051805  0  0  0.111177  0  1.050775  0  0.141182  0  0.102391  0.105718  0  1.051969  0
H  H10  1  0.55898006  0.68217990  0.37355136  1  0  0.105129  0  0.964197  0  0  0.111077  0  1.031156  0  0  0.114138  0  1.029173  0  0.121167  0  0.105887  0.108815  0  1.032606  0
H  H11  1  0.44101918  0.31781872  0.62644814  1  0  0.105082  0  0.964243  0  0  0.111072  0  1.031166  0  0  0.114138  0  1.029178  0  0.121182  0  0.105876  0.108809  0  1.032615  0
H  H12  1  0.26558280  0.88616922  0.48602361  1  0  0.109851  0  0.929635  0  0  0.118475  0  0.991311  0  0  0.122265  0  0.98813  0  0.123452  0  0.113444  0.115725  0  0.993619  0
H  H13  1  0.73441686  0.11383044  0.51397625  1  0  0.109885  0  0.929609  0  0  0.118509  0  0.991281  0  0  0.12229  0  0.988112  0  0.123452  0  0.113458  0.115757  0  0.993593  0
H  H14  1  0.42211263  0.03774862  0.68568044  1  0  0.109766  0  0.935408  0  0  0.1238  0  0.984584  0  0  0.126457  0  0.985306  0  0.100536  0  0.111999  0.122104  0  0.983801  0
H  H15  1  0.57788704  0.96225105  0.31431941  1  0  0.109789  0  0.935382  0  0  0.123825  0  0.984559  0  0  0.126482  0  0.98528  0  0.100532  0  0.112009  0.122129  0  0.983775  0
H  H16  1  0.30926739  0.10058017  0.83036899  1  0  0.086265  0  0.954862  0  0  0.091109  0  1.024246  0  0  0.094012  0  1.021375  0  0.154466  0  0.121978  0.088867  0  1.026593  0
H  H17  1  0.69073228  0.89941950  0.16963014  1  0  0.086222  0  0.954879  0  0  0.091099  0  1.024229  0  0  0.094002  0  1.021358  0  0.154452  0  0.12198  0.088856  0  1.026578  0
H  H18  1  0.76569086  0.68755601  0.30562753  1  0  0.106522  0  0.945692  0  0  0.118726  0  1.005204  0  0  0.121393  0  1.004284  0  0.092612  0  0.109098  0.116782  0  1.005888  0
H  H19  1  0.23430977  0.31244366  0.69437247  1  0  0.106555  0  0.945662  0  0  0.118756  0  1.005176  0  0  0.121423  0  1.004257  0  0.092614  0  0.109117  0.116813  0  1.00586  0
H  H20  1  0.02117903  0.75775439  0.34701690  1  0  0.117888  0  0.962451  0  0  0.125752  0  1.025311  0  0  0.128996  0  1.024195  0  0.097297  0  0.111468  0.123448  0  1.026136  0
H  H21  1  0.97882064  0.24224527  0.65298296  1  0  0.117895  0  0.962443  0  0  0.125761  0  1.025303  0  0  0.129005  0  1.024188  0  0.0973  0  0.111471  0.123457  0  1.026128  0
H  H22  1  0.99991038  0.76320670  0.70108413  1  0  0.094493  0  0.988828  0  0  0.101434  0  1.05623  0  0  0.104201  0  1.0546  0  0.119145  0  0.111812  0.099512  0  1.057292  0
H  H23  1  0.00009025  0.23679296  0.29891660  1  0  0.094476  0  0.988824  0  0  0.101422  0  1.056217  0  0  0.104188  0  1.054588  0  0.119138  0  0.111804  0.099499  0  1.057281  0
H  H24  1  0.92481099  0.57864966  0.50481143  1  0  0.097634  0  0.967645  0  0  0.105478  0  1.03204  0  0  0.107972  0  1.033236  0  0.063535  0  0.101001  0.103613  0  1.031576  0
H  H25  1  0.07519103  0.42135105  0.49518980  1  0  0.09761  0  0.967658  0  0  0.105454  0  1.032055  0  0  0.107948  0  1.03325  0  0.06367  0  0.100989  0.103589  0  1.03159  0
H  H26  1  0.76904827  0.33378836  0.46058789  1  0  0.058784  0  0.948016  0  0  0.066617  0  1.01379  0  0  0.068864  0  1.012459  0  0.078308  0  0.104377  0.065033  0  1.014727  0
H  H27  1  0.23095183  0.66621235  0.53941233  1  0  0.058756  0  0.948046  0  0  0.066574  0  1.013833  0  0  0.068818  0  1.012501  0  0.078295  0  0.104362  0.064991  0  1.014768  0
H  H28  1  0.72871546  0.24008126  0.93845093  1  0  0.116811  0  0.940639  0  0  0.123573  0  1.004721  0  0  0.126981  0  1.002266  0  0.150269  0  0.117293  0.121058  0  1.006531  0
H  H29  1  0.27128517  0.75991841  0.06154907  1  0  0.116772  0  0.940655  0  0  0.123516  0  1.004754  0  0  0.126923  0  1.002298  0  0.150276  0  0.117281  0.121001  0  1.006563  0
H  H30  1  0.52606584  0.30379595  0.97001593  1  0  0.102442  0  0.963617  0  0  0.112021  0  1.025239  0  0  0.114394  0  1.026224  0  0.086625  0  0.104213  0.110008  0  1.025406  0
H  H31  1  0.47393383  0.69620371  0.02998319  1  0  0.102434  0  0.963617  0  0  0.112013  0  1.025239  0  0  0.114387  0  1.026221  0  0.086618  0  0.104208  0.11  0  1.025405  0
H  H32  1  0.45799266  0.44706972  0.88142526  1  0  0.068719  0  0.949118  0  0  0.075714  0  1.017455  0  0  0.078534  0  1.015088  0  0.081798  0  0.106922  0.073631  0  1.019315  0
H  H33  1  0.54200743  0.55293099  0.11857496  1  0  0.06873  0  0.949153  0  0  0.075727  0  1.017481  0  0  0.078547  0  1.015115  0  0.08186  0  0.10693  0.073643  0  1.019342  0
H  H34  1  0.55556882  0.67576511  0.79434432  1  0  0.107171  0  0.940889  0  0  0.112387  0  1.008047  0  0  0.116636  0  1.004616  0  0.105943  0  0.106362  0.108902  0  1.011227  0
H  H35  1  0.44443085  0.32423455  0.20565554  1  0  0.107171  0  0.940888  0  0  0.112388  0  1.008045  0  0  0.116638  0  1.004613  0  0.105939  0  0.106366  0.108904  0  1.011224  0
H  H36  1  0.29135833  0.55404067  0.72132839  1  0  0.098835  0  0.9569  0  0  0.110615  0  1.013428  0  0  0.113918  0  1.012628  0  0.090517  0  0.103673  0.108257  0  1.014041  0
H  H37  1  0.70864133  0.44595900  0.27867147  1  0  0.098822  0  0.956888  0  0  0.110584  0  1.013433  0  0  0.113885  0  1.012634  0  0.090524  0  0.103659  0.108225  0  1.014045  0
H  H38  1  0.15399728  0.67963695  0.80794629  1  0  0.075258  0  0.958554  0  0  0.083969  0  1.021139  0  0  0.086606  0  1.019124  0  0.059828  0  0.110113  0.081933  0  1.022918  0
H  H39  1  0.84600378  0.32036376  0.19205407  1  0  0.075295  0  0.958522  0  0  0.083978  0  1.021137  0  0  0.086615  0  1.019122  0  0.059821  0  0.110121  0.081943  0  1.022915  0
C  C40  1  0.68514310  0.87975547  0.65275061  1  0  0.156388  0  3.693173  0  0  0.1284  0  3.946356  0  0  0.136304  0  3.961489  0  0.512255  0  0.061633  0.123103  0  3.935966  0
C  C41  1  0.31485657  0.12024419  0.34724925  1  0  0.156369  0  3.693156  0  0  0.128385  0  3.946323  0  0  0.13629  0  3.961454  0  0.512256  0  0.061631  0.123089  0  3.935927  0
C  C42  1  0.58644577  0.79556565  0.54534680  1  0  -0.121391  0  3.736956  0  0  -0.129813  0  3.980425  0  0  -0.137095  0  4.001948  0  -0.068034  0  -0.083516  -0.125074  0  3.965296  0
C  C43  1  0.41355390  0.20443402  0.45465305  1  0  -0.121358  0  3.736933  0  0  -0.129756  0  3.98042  0  0  -0.137038  0  4.001944  0  -0.068006  0  -0.083487  -0.125017  0  3.965291  0
C  C44  1  0.63339482  0.74965265  0.45756459  1  0  -0.044515  0  3.676604  0  0  -0.06552  0  3.918399  0  0  -0.063781  0  3.937314  0  -0.089916  0  -0.064415  -0.06596  0  3.905288  0
C  C45  1  0.36660485  0.25034701  0.54243526  1  0  -0.044461  0  3.676623  0  0  -0.065496  0  3.918388  0  0  -0.06376  0  3.937306  0  -0.089954  0  -0.064394  -0.065934  0  3.905276  0
C  C46  1  0.77950663  0.79054760  0.47739088  1  0  0.022492  0  3.800295  0  0  0.037167  0  4.032612  0  0  0.034369  0  4.058667  0  0.052046  0  -0.003593  0.038707  0  4.015208  0
C  C47  1  0.22049261  0.20945102  0.52260862  1  0  0.022476  0  3.800312  0  0  0.037145  0  4.03264  0  0  0.034347  0  4.058698  0  0.052078  0  -0.003621  0.038686  0  4.015236  0
C  C48  1  0.87147085  0.87612269  0.58869570  1  0  0.12839  0  3.766944  0  0  0.125567  0  4.006017  0  0  0.128919  0  4.027644  0  0.442722  0  0.119733  0.122976  0  3.991753  0
C  C49  1  0.12852839  0.12387593  0.41130379  1  0  0.128408  0  3.766926  0  0  0.125592  0  4.006004  0  0  0.128945  0  4.027631  0  0.442717  0  0.119782  0.123001  0  3.991742  0
C  C50  1  0.02152415  0.91957729  0.61273557  1  0  0.131323  0  3.774048  0  0  0.128794  0  4.011087  0  0  0.133208  0  4.032205  0  0.460137  0  0.122915  0.126068  0  3.996601  0
C  C51  1  0.97847552  0.08042238  0.38726429  1  0  0.131301  0  3.774055  0  0  0.128757  0  4.011112  0  0  0.133171  0  4.03223  0  0.460134  0  0.122896  0.126029  0  3.996631  0
C  C52  1  0.07468135  0.87544206  0.52486536  1  0  0.02082  0  3.778846  0  0  0.035701  0  4.012922  0  0  0.032602  0  4.037822  0  0.038337  0  -0.003184  0.037777  0  3.996045  0
C  C53  1  0.92531832  0.12455760  0.47513450  1  0  0.020785  0  3.77884  0  0  0.035658  0  4.012948  0  0  0.03256  0  4.037844  0  0.038324  0  -0.003209  0.037734  0  3.996071  0
C  C54  1  0.22216722  0.91897391  0.55197085  1  0  -0.042454  0  3.686293  0  0  -0.066596  0  3.937132  0  0  -0.063959  0  3.955044  0  -0.10618  0  -0.059867  -0.067947  0  3.924662  0
C  C55  1  0.77783245  0.08102576  0.44802900  1  0  -0.042459  0  3.68627  0  0  -0.066595  0  3.937121  0  0  -0.063951  0  3.955035  0  -0.106285  0  -0.059872  -0.067945  0  3.924649  0
C  C56  1  0.30786520  0.00085913  0.66133468  1  0  -0.12767  0  3.731899  0  0  -0.138287  0  3.980663  0  0  -0.146186  0  4.002912  0  -0.003677  0  -0.083993  -0.133385  0  3.96527  0
C  C57  1  0.69213447  0.99914053  0.33866518  1  0  -0.127673  0  3.731794  0  0  -0.138297  0  3.980576  0  0  -0.146195  0  4.00282  0  -0.003559  0  -0.083979  -0.133394  0  3.965181  0
C  C58  1  0.24580797  0.03796262  0.74301008  1  0  0.16948  0  3.691364  0  0  0.137694  0  3.952559  0  0  0.146414  0  3.968016  0  0.470395  0  0.067864  0.132152  0  3.942007  0
C  C59  1  0.75419266  0.96203705  0.25698918  1  0  0.169512  0  3.691269  0  0  0.137701  0  3.952474  0  0  0.146422  0  3.96793  0  0.470407  0  0.067855  0.13216  0  3.941921  0
C  C60  1  0.83708064  0.74977374  0.39099088  1  0  -0.100611  0  3.733796  0  0  -0.123529  0  3.990639  0  0  -0.126958  0  4.013376  0  -0.045549  0  -0.083309  -0.120837  0  3.975055  0
C  C61  1  0.16291860  0.25022488  0.60900861  1  0  -0.10059  0  3.733791  0  0  -0.1235  0  3.990633  0  0  -0.126931  0  4.013372  0  -0.04552  0  -0.083289  -0.120809  0  3.975049  0
C  C62  1  0.97903358  0.79017388  0.41369178  1  0  -0.094288  0  3.710957  0  0  -0.118869  0  3.970421  0  0  -0.121158  0  3.991917  0  -0.025925  0  -0.081266  -0.117367  0  3.955791  0
C  C63  1  0.02096566  0.20982474  0.58630771  1  0  -0.094318  0  3.710928  0  0  -0.118901  0  3.970401  0  0  -0.12119  0  3.991899  0  -0.02593  0  -0.081281  -0.117398  0  3.955772  0
C  C64  1  0.92501090  0.73286667  0.86842646  1  0  0.713981  0  3.872601  0  0  0.664901  0  4.162254  0  0  0.70035  0  4.152145  0  1.580923  0  0.226615  0.640762  0  4.168604  0
C  C65  1  0.07498834  0.26713195  0.13157450  1  0  0.713942  0  3.872614  0  0  0.664861  0  4.162277  0  0  0.700311  0  4.152169  0  1.5811  0  0.226587  0.640724  0  4.168626  0
C  C66  1  0.87792650  0.62141633  0.75296661  1  0  -0.125301  0  3.672919  0  0  -0.106058  0  3.904405  0  0  -0.117438  0  3.924042  0  0.009144  0  -0.000549  -0.099421  0  3.892405  0
C  C67  1  0.12207413  0.37858334  0.24703486  1  0  -0.125359  0  3.672799  0  0  -0.10613  0  3.904311  0  0  -0.117512  0  3.923948  0  0.008947  0  -0.000582  -0.099494  0  3.892312  0
C  C68  1  0.92802219  0.65609483  0.67490038  1  0  -0.014157  0  3.726069  0  0  -0.044073  0  3.975725  0  0  -0.03892  0  3.993172  0  -0.047745  0  -0.065466  -0.047024  0  3.96393  0
C  C69  1  0.07198036  0.34390484  0.32510064  1  0  -0.014097  0  3.726018  0  0  -0.044006  0  3.975667  0  0  -0.038852  0  3.993113  0  -0.047714  0  -0.065426  -0.046957  0  3.963872  0
C  C70  1  0.88857617  0.55399891  0.56774227  1  0  -0.138314  0  3.765058  0  0  -0.147643  0  4.012694  0  0  -0.155224  0  4.034433  0  -0.021318  0  -0.094537  -0.142948  0  3.998182  0
C  C71  1  0.11142350  0.44600076  0.43225832  1  0  -0.138296  0  3.765042  0  0  -0.147626  0  4.012672  0  0  -0.155206  0  4.034408  0  -0.021359  0  -0.094537  -0.142931  0  3.998159  0
C  C72  1  0.80147593  0.41806275  0.54341123  1  0  0.121565  0  3.761448  0  0  0.09843  0  4.018117  0  0  0.105525  0  4.034289  0  0.434441  0  0.041365  0.094043  0  4.00701  0
C  C73  1  0.19852225  0.58193796  0.45658943  1  0  0.121597  0  3.761379  0  0  0.098477  0  4.018058  0  0  0.105576  0  4.034225  0  0.434432  0  0.0414  0.094089  0  4.006951  0
C  C74  1  0.78958418  0.48141208  0.72013418  1  0  0.204962  0  3.711357  0  0  0.194147  0  3.961682  0  0  0.203058  0  3.977817  0  0.594969  0  0.139539  0.188389  0  3.950854  0
C  C75  1  0.21041549  0.51858759  0.27986568  1  0  0.204993  0  3.711144  0  0  0.194181  0  3.961477  0  0  0.203094  0  3.977608  0  0.594975  0  0.13954  0.188423  0  3.950648  0
C  C76  1  0.72440754  0.43488109  0.79575917  1  0  0.188022  0  3.739962  0  0  0.176456  0  3.994141  0  0  0.18495  0  4.00961  0  0.561714  0  0.1332  0.171016  0  3.983426  0
C  C77  1  0.27559213  0.56511858  0.20424068  1  0  0.187954  0  3.739946  0  0  0.176413  0  3.994139  0  0  0.184911  0  4.009592  0  0.561717  0  0.133192  0.170972  0  3.983424  0
C  C78  1  0.76988588  0.35460590  0.84152972  1  0  -0.115508  0  3.670979  0  0  -0.097548  0  3.902808  0  0  -0.106999  0  3.921014  0  -0.014312  0  -0.001704  -0.092013  0  3.891448  0
C  C79  1  0.23011379  0.64539376  0.15847014  1  0  -0.115402  0  3.670824  0  0  -0.097522  0  3.902748  0  0  -0.106976  0  3.920955  0  -0.014332  0  -0.001692  -0.091987  0  3.891389  0
C  C80  1  0.69654911  0.30479706  0.90390531  1  0  -0.002048  0  3.66973  0  0  -0.029292  0  3.913437  0  0  -0.024196  0  3.929578  0  -0.055415  0  -0.057305  -0.032319  0  3.902875  0
C  C81  1  0.30345152  0.69520261  0.09609469  1  0  -0.002012  0  3.669663  0  0  -0.029211  0  3.913384  0  0  -0.024114  0  3.929528  0  -0.055405  0  -0.057271  -0.032238  0  3.902822  0
C  C82  1  0.58434024  0.33936908  0.92062917  1  0  -0.141767  0  3.76734  0  0  -0.153206  0  4.018791  0  0  -0.160545  0  4.04106  0  -0.070986  0  -0.092249  -0.148743  0  4.004303  0
C  C83  1  0.41566039  0.66063059  0.07937083  1  0  -0.141766  0  3.767344  0  0  -0.153205  0  4.018789  0  0  -0.160545  0  4.041059  0  -0.071031  0  -0.092253  -0.148742  0  4.0043  0
C  C84  1  0.54699242  0.41993969  0.87167314  1  0  0.103177  0  3.767376  0  0  0.080188  0  4.027527  0  0  0.086394  0  4.043986  0  0.460874  0  0.034639  0.076324  0  4.01626  0
C  C85  1  0.45300864  0.58006102  0.12832722  1  0  0.103159  0  3.767493  0  0  0.080168  0  4.027639  0  0  0.086373  0  4.044102  0  0.460835  0  0.034638  0.076303  0  4.016373  0
C  C86  1  0.89375425  0.32088466  0.82648500  1  0  0.696869  0  3.885039  0  0  0.646437  0  4.181347  0  0  0.681482  0  4.170874  0  1.605297  0  0.221446  0.62232  0  4.188192  0
C  C87  1  0.10624681  0.67911605  0.17351536  1  0  0.696854  0  3.884974  0  0  0.64644  0  4.181284  0  0  0.681486  0  4.170811  0  1.605305  0  0.221436  0.622323  0  4.18813  0
C  C88  1  0.71473147  0.92883150  0.95342566  1  0  0.738848  0  3.890825  0  0  0.680286  0  4.202939  0  0  0.717798  0  4.187626  0  1.615172  0  0.236412  0.654694  0  4.212468  0
C  C89  1  0.28526820  0.07116817  0.04657420  1  0  0.738874  0  3.890847  0  0  0.680309  0  4.202971  0  0  0.717822  0  4.187659  0  1.615174  0  0.236433  0.654722  0  4.212491  0
C  C90  1  0.55638714  0.86519719  0.91150600  1  0  -0.111841  0  3.675965  0  0  -0.091662  0  3.909269  0  0  -0.099499  0  3.927955  0  -0.040882  0  0.000656  -0.086854  0  3.89677  0
C  C91  1  0.44361296  0.13480352  0.08849422  1  0  -0.111904  0  3.676004  0  0  -0.091734  0  3.909321  0  0  -0.099572  0  3.928005  0  -0.040876  0  0.000634  -0.086927  0  3.89682  0
C  C92  1  0.49128931  0.72910653  0.82611066  1  0  -0.046138  0  3.724621  0  0  -0.070965  0  3.971654  0  0  -0.06905  0  3.989647  0  -0.025681  0  -0.072965  -0.071836  0  3.95961  0
C  C93  1  0.50871079  0.27089418  0.17388956  1  0  -0.046104  0  3.7246  0  0  -0.070929  0  3.971629  0  0  -0.069015  0  3.989623  0  -0.025725  0  -0.072967  -0.0718  0  3.959585  0
C  C94  1  0.34512729  0.66076839  0.78635988  1  0  -0.126301  0  3.765099  0  0  -0.136274  0  4.013052  0  0  -0.141481  0  4.032786  0  -0.03213  0  -0.090634  -0.132808  0  3.999428  0
C  C95  1  0.65487238  0.33923128  0.21363998  1  0  -0.126296  0  3.765142  0  0  -0.136253  0  4.013081  0  0  -0.141458  0  4.032812  0  -0.032102  0  -0.090607  -0.132786  0  3.999457  0
C  C96  1  0.26834655  0.73133318  0.83396250  1  0  0.120088  0  3.738502  0  0  0.092475  0  3.999598  0  0  0.099149  0  4.014826  0  0.539461  0  0.043665  0.088035  0  3.989285  0
C  C97  1  0.73165354  0.26866753  0.16603698  1  0  0.12007  0  3.738551  0  0  0.092489  0  3.999633  0  0  0.099163  0  4.014861  0  0.539463  0  0.043656  0.088048  0  3.98932  0
C  C98  1  0.47021821  0.92869579  0.95396164  1  0  0.149328  0  3.751372  0  0  0.140895  0  3.997435  0  0  0.146578  0  4.017109  0  0.505934  0  0.119602  0.137112  0  3.984091  0
C  C99  1  0.52978189  0.07130492  0.04603931  1  0  0.149334  0  3.75139  0  0  0.140923  0  3.997443  0  0  0.146608  0  4.017116  0  0.529127  0  0.119611  0.13714  0  3.9841  0
N  N100  1  0.82333447  0.91754167  0.67436077  1  0  -0.413276  0  3.22919  0  0  -0.363394  0  3.496126  0  0  -0.377059  0  3.512745  0  -1.220299  0  -0.368269  -0.353848  0  3.48509  0
N  N101  1  0.17666520  0.08245799  0.32563909  1  0  -0.413316  0  3.229174  0  0  -0.363453  0  3.496133  0  0  -0.377118  0  3.51275  0  -1.220352  0  -0.368317  -0.353907  0  3.485097  0
N  N102  1  0.10729232  0.99896829  0.72012348  1  0  -0.432192  0  3.22446  0  0  -0.38066  0  3.493445  0  0  -0.395277  0  3.509299  0  -1.247485  0  -0.370774  -0.370814  0  3.482436  0
N  N103  1  0.89270735  0.00103138  0.27987565  1  0  -0.432183  0  3.224432  0  0  -0.380641  0  3.493419  0  0  -0.395259  0  3.509273  0  -1.247507  0  -0.370768  -0.370795  0  3.482411  0
N  N104  1  0.75306714  0.38143424  0.61727779  1  0  -0.350259  0  3.060633  0  0  -0.319908  0  3.33126  0  0  -0.332349  0  3.344833  0  -1.213841  0  -0.315893  -0.311765  0  3.321922  0
N  N105  1  0.24693296  0.61856647  0.38272316  1  0  -0.350267  0  3.060492  0  0  -0.319924  0  3.331124  0  0  -0.332367  0  3.344697  0  -1.213817  0  -0.31591  -0.311781  0  3.321787  0
N  N106  1  0.61438500  0.46637881  0.80953401  1  0  -0.361585  0  3.076466  0  0  -0.330225  0  3.347583  0  0  -0.342032  0  3.360222  0  -1.208115  0  -0.32331  -0.322224  0  3.338805  0
N  N107  1  0.38561467  0.53362086  0.19046511  1  0  -0.36159  0  3.076574  0  0  -0.330225  0  3.347679  0  0  -0.342034  0  3.360317  0  -1.2081  0  -0.323327  -0.322225  0  3.338902  0
N  N108  1  0.32894471  0.86157275  0.91432096  1  0  -0.308937  0  3.097897  0  0  -0.272312  0  3.363873  0  0  -0.28436  0  3.380036  0  -1.197515  0  -0.299345  -0.263991  0  3.352783  0
N  N109  1  0.67105635  0.13842796  0.08567940  1  0  -0.308946  0  3.097897  0  0  -0.272343  0  3.363874  0  0  -0.284391  0  3.380036  0  -1.19742  0  -0.299363  -0.264022  0  3.352784  0
O  O110  1  0.92671306  0.69935839  0.94811493  1  0  -0.679339  0  1.995196  0  0  -0.626393  0  2.231784  0  0  -0.651484  0  2.223965  0  -1.17178  0  -0.364965  -0.608405  0  2.236762  0
O  O111  1  0.07328704  0.30064232  0.05188602  1  0  -0.679299  0  1.99518  0  0  -0.626344  0  2.231766  0  0  -0.651439  0  2.223949  0  -1.171739  0  -0.364934  -0.608356  0  2.236743  0
O  O112  1  0.96444010  0.85953818  0.88246155  1  0  -0.796744  0  2.117909  0  0  -0.73643  0  2.382665  0  0  -0.762186  0  2.370493  0  -1.213942  0  -0.404468  -0.717741  0  2.39035  0
O  O113  1  0.03555957  0.14046148  0.11753830  1  0  -0.796751  0  2.117963  0  0  -0.73641  0  2.382656  0  0  -0.762165  0  2.370483  0  -1.213951  0  -0.404469  -0.717723  0  2.390341  0
O  O114  1  0.00231677  0.41134940  0.82896768  1  0  -0.604266  0  1.893557  0  0  -0.554166  0  2.101039  0  0  -0.578914  0  2.092796  0  -1.166682  0  -0.307934  -0.536624  0  2.106316  0
O  O115  1  0.99768386  0.58865026  0.17103232  1  0  -0.604277  0  1.893534  0  0  -0.554172  0  2.101008  0  0  -0.578921  0  2.092765  0  -1.166668  0  -0.307931  -0.536629  0  2.106286  0
O  O116  1  0.87818821  0.19713817  0.81229822  1  0  -0.765234  0  2.065719  0  0  -0.707775  0  2.324749  0  0  -0.734449  0  2.313908  0  -1.20234  0  -0.42964  -0.68842  0  2.331802  0
O  O117  1  0.12181146  0.80286149  0.18770163  1  0  -0.765239  0  2.065701  0  0  -0.707771  0  2.324713  0  0  -0.73445  0  2.313875  0  -1.202344  0  -0.429643  -0.688419  0  2.331767  0
O  O118  1  0.77659058  0.99878247  0.90801695  1  0  -0.719323  0  2.062901  0  0  -0.671754  0  2.332213  0  0  -0.696839  0  2.318778  0  -1.195945  0  -0.385992  -0.653732  0  2.340563  0
O  O119  1  0.22340952  0.00121824  0.09198326  1  0  -0.71931  0  2.062927  0  0  -0.671739  0  2.332232  0  0  -0.696826  0  2.318802  0  -1.195944  0  -0.38598  -0.653723  0  2.340587  0
O  O120  1  0.77056883  0.89115700  0.02192372  1  0  -0.726636  0  2.044435  0  0  -0.673079  0  2.308632  0  0  -0.699119  0  2.296531  0  -1.202499  0  -0.396294  -0.654423  0  2.316376  0
O  O121  1  0.22943127  0.10884371  0.97807650  1  0  -0.726661  0  2.044443  0  0  -0.673098  0  2.308644  0  0  -0.699137  0  2.296545  0  -1.202501  0  -0.396305  -0.654443  0  2.316385  0
O  O122  1  0.18555487  0.30294204  0.88052920  1  0  -0.87357  0  1.840524  0  0  -0.82667  0  2.02826  0  0  -0.8447  0  2.001461  0  -1.244626  0  -0.614099  -0.81334  0  2.046655  0
O  O123  1  0.81444480  0.69705763  0.11946992  1  0  -0.873531  0  1.840578  0  0  -0.82665  0  2.02825  0  0  -0.844684  0  2.001461  0  -1.244617  0  -0.614079  -0.813317  0  2.046651  0
