# generated using pymatgen
data_RbH5C6N8O9
_symmetry_space_group_name_H-M   'P 1'
_cell_length_a   7.25498296
_cell_length_b   7.23814420
_cell_length_c   13.11581006
_cell_angle_alpha   95.85336445
_cell_angle_beta   97.90637121
_cell_angle_gamma   94.60658612
_symmetry_Int_Tables_number   1
_chemical_formula_structural   RbH5C6N8O9
_chemical_formula_sum   'Rb2 H10 C12 N16 O18'
_cell_volume   675.52364694
_cell_formula_units_Z   2
loop_
 _symmetry_equiv_pos_site_id
 _symmetry_equiv_pos_as_xyz
  1  'x, y, z'
loop_
 _atom_site_type_symbol
 _atom_site_label
 _atom_site_symmetry_multiplicity
 _atom_site_fract_x
 _atom_site_fract_y
 _atom_site_fract_z
 _atom_site_occupancy
 _atom_site_hle17_bader_spin_density
 _atom_site_hle17_ddec_charge
 _atom_site_hle17_ddec_spin_density
 _atom_site_hle17_ddec_sum_bond_order
 _atom_site_hle17_magmom
 _atom_site_hse06_10hf_bader_spin_density
 _atom_site_hse06_10hf_ddec_charge
 _atom_site_hse06_10hf_ddec_spin_density
 _atom_site_hse06_10hf_ddec_sum_bond_order
 _atom_site_hse06_10hf_magmom
 _atom_site_hse06_bader_spin_density
 _atom_site_hse06_ddec_charge
 _atom_site_hse06_ddec_spin_density
 _atom_site_hse06_ddec_sum_bond_order
 _atom_site_hse06_magmom
 _atom_site_pbe_bader_spin_density
 _atom_site_pbe_cm5_charge
 _atom_site_pbe_ddec_charge
 _atom_site_pbe_ddec_spin_density
 _atom_site_pbe_ddec_sum_bond_order
 _atom_site_pbe_magmom
Rb  Rb0  1  0.70583479  0.86348013  0.93144837  1  0  0.924639  0  0.477538  0  0  0.861837  0  0.696131  0  0  0.878648  0  0.669321  0  0  0.767451  0.849406  0  0.715294  0
Rb  Rb1  1  0.29416885  0.13652025  0.06855026  1  0  0.924652  0  0.477516  0  0  0.861856  0  0.696109  0  0  0.878632  0  0.669328  0  0  0.767453  0.849424  0  0.715282  0
H  H2  1  0.70345091  0.29708134  0.02339713  1  0  0.397385  0  0.91106  0  0  0.365279  0  0.979544  0  0  0.375854  0  0.963564  0  0  0.283351  0.357798  0  0.990837  0
H  H3  1  0.29654530  0.70291332  0.97660288  1  0  0.397423  0  0.911005  0  0  0.365303  0  0.979513  0  0  0.37588  0  0.963531  0  0  0.28336  0.357825  0  0.990796  0
H  H4  1  0.79754367  0.25540909  0.13141730  1  0  0.407611  0  0.899327  0  0  0.371228  0  0.974175  0  0  0.382081  0  0.958018  0  0  0.281701  0.363536  0  0.985595  0
H  H5  1  0.20245717  0.74459123  0.86858186  1  0  0.407646  0  0.899267  0  0  0.371273  0  0.974098  0  0  0.38213  0  0.957935  0  0  0.281736  0.363582  0  0.985514  0
H  H6  1  0.25996216  0.50158311  0.51503920  1  0  0.30371  0  0.9433  0  0  0.260312  0  1.039643  0  0  0.272303  0  1.02992  0  0  0.293891  0.251903  0  1.046386  0
H  H7  1  0.74004744  0.49842444  0.48496868  1  0  0.303779  0  0.94315  0  0  0.260308  0  1.039597  0  0  0.272253  0  1.029973  0  0  0.293862  0.251902  0  1.04638  0
H  H8  1  0.21445075  0.78956074  0.36490218  1  0  0.137011  0  0.952714  0  0  0.136757  0  1.025473  0  0  0.140727  0  1.021172  0  0  0.125721  0.133823  0  1.028702  0
H  H9  1  0.78554441  0.21043806  0.63509644  1  0  0.136984  0  0.95275  0  0  0.136713  0  1.025557  0  0  0.140681  0  1.021262  0  0  0.125712  0.133781  0  1.028784  0
H  H10  1  0.26769610  0.21979883  0.62481569  1  0  0.157397  0  0.925699  0  0  0.155806  0  0.997583  0  0  0.160359  0  0.992427  0  0  0.141389  0.152342  0  1.001567  0
H  H11  1  0.73230462  0.78020011  0.37518415  1  0  0.157397  0  0.925682  0  0  0.15581  0  0.997574  0  0  0.160356  0  0.992449  0  0  0.141381  0.152343  0  1.00159  0
C  C12  1  0.04561067  0.36496178  0.33240686  1  0  0.324314  0  3.768849  0  0  0.270608  0  4.068624  0  0  0.277695  0  4.086488  0  0  0.286994  0.266577  0  4.055941  0
C  C13  1  0.95438698  0.63503290  0.66759098  1  0  0.324387  0  3.768949  0  0  0.270758  0  4.068598  0  0  0.277863  0  4.08642  0  0  0.287055  0.266721  0  4.055885  0
C  C14  1  0.03723175  0.58460525  0.24126265  1  0  0.144587  0  3.75033  0  0  0.104273  0  4.03593  0  0  0.099099  0  4.060104  0  0  0.17604  0.107361  0  4.019856  0
C  C15  1  0.96276354  0.41539494  0.75873453  1  0  0.144582  0  3.750458  0  0  0.104243  0  4.036062  0  0  0.099074  0  4.060228  0  0  0.176079  0.107326  0  4.01998  0
C  C16  1  0.14615176  0.65129216  0.33737581  1  0  0.038545  0  3.609256  0  0  -0.014309  0  3.900444  0  0  -0.008133  0  3.915322  0  0  0.033052  -0.018249  0  3.890408  0
C  C17  1  0.85384479  0.34870668  0.66262292  1  0  0.038644  0  3.609261  0  0  -0.014228  0  3.900404  0  0  -0.00806  0  3.915316  0  0  0.033054  -0.018158  0  3.890364  0
C  C18  1  0.44496285  0.64777476  0.65142497  1  0  0.355179  0  3.703702  0  0  0.297575  0  3.997341  0  0  0.305766  0  4.01319  0  0  0.312192  0.287585  0  3.984657  0
C  C19  1  0.55504041  0.35222146  0.34857722  1  0  0.355029  0  3.703886  0  0  0.297446  0  3.9975  0  0  0.306899  0  4.012406  0  0  0.312215  0.291809  0  3.986933  0
C  C20  1  0.34124052  0.35654806  0.65082767  1  0  0.074747  0  3.492517  0  0  0.013677  0  3.770171  0  0  0.022579  0  3.782339  0  0  0.063657  0.00801  0  3.761972  0
C  C21  1  0.65876267  0.64344675  0.34917215  1  0  0.07475  0  3.492502  0  0  0.013566  0  3.770188  0  0  0.022392  0  3.782461  0  0  0.063606  0.007911  0  3.762121  0
C  C22  1  0.45656377  0.42835737  0.74319849  1  0  0.153944  0  3.742983  0  0  0.118915  0  4.02956  0  0  0.114295  0  4.051511  0  0  0.18637  0.121555  0  4.0149  0
C  C23  1  0.54344225  0.57163748  0.25679927  1  0  0.153841  0  3.743258  0  0  0.119024  0  4.029614  0  0  0.114301  0  4.051732  0  0  0.18647  0.121663  0  4.015112  0
N  N24  1  0.97200025  0.40260722  0.23872819  1  0  -0.421672  0  3.051919  0  0  -0.384065  0  3.32295  0  0  -0.393475  0  3.337801  0  0  -0.310788  -0.377517  0  3.312781  0
N  N25  1  0.02799923  0.59739305  0.76126857  1  0  -0.421702  0  3.051989  0  0  -0.384143  0  3.323024  0  0  -0.393538  0  3.337848  0  0  -0.31082  -0.377594  0  3.312839  0
N  N26  1  0.15079993  0.50761682  0.39547340  1  0  -0.386608  0  3.094164  0  0  -0.339022  0  3.369085  0  0  -0.354514  0  3.386208  0  0  -0.325587  -0.328589  0  3.357116  0
N  N27  1  0.84919834  0.49238622  0.60452494  1  0  -0.386798  0  3.094301  0  0  -0.339125  0  3.369119  0  0  -0.354619  0  3.386293  0  0  -0.325636  -0.328686  0  3.357166  0
N  N28  1  0.01759903  0.18263148  0.36590238  1  0  0.421165  0  3.978212  0  0  0.46708  0  4.264772  0  0  0.484621  0  4.273141  0  0  0.055026  0.453647  0  4.259494  0
N  N29  1  0.98240192  0.81737023  0.63409610  1  0  0.421251  0  3.978263  0  0  0.467065  0  4.264896  0  0  0.484634  0  4.273198  0  0  0.055048  0.453629  0  4.259559  0
N  N30  1  0.99595630  0.68664697  0.15499254  1  0  0.464487  0  3.989241  0  0  0.53214  0  4.233982  0  0  0.554701  0  4.24169  0  0  0.046147  0.517063  0  4.228722  0
N  N31  1  0.00404336  0.31335610  0.84500591  1  0  0.464437  0  3.989236  0  0  0.53217  0  4.233891  0  0  0.554733  0  4.241595  0  0  0.046109  0.517085  0  4.228634  0
N  N32  1  0.52103221  0.60906584  0.74268895  1  0  -0.411683  0  3.079278  0  0  -0.395235  0  3.3739  0  0  -0.40232  0  3.388431  0  0  -0.374817  -0.390348  0  3.365344  0
N  N33  1  0.47897697  0.39093468  0.25731243  1  0  -0.411628  0  3.07939  0  0  -0.395252  0  3.374001  0  0  -0.402588  0  3.388243  0  0  -0.37487  -0.390116  0  3.364268  0
N  N34  1  0.33551867  0.50109718  0.59270167  1  0  -0.298722  0  3.365054  0  0  -0.229488  0  3.612681  0  0  -0.247226  0  3.628378  0  0  -0.339276  -0.217768  0  3.60287  0
N  N35  1  0.66448449  0.49889765  0.40730044  1  0  -0.298723  0  3.364974  0  0  -0.229453  0  3.612674  0  0  -0.247439  0  3.628223  0  0  -0.339241  -0.217554  0  3.601984  0
N  N36  1  0.46707310  0.83069639  0.61795438  1  0  0.420368  0  3.997014  0  0  0.465319  0  4.284076  0  0  0.484782  0  4.292174  0  0  0.057946  0.467494  0  4.254353  0
N  N37  1  0.53292112  0.16930940  0.38204835  1  0  0.420793  0  3.997007  0  0  0.46572  0  4.284076  0  0  0.482649  0  4.29284  0  0  0.058019  0.452554  0  4.278776  0
N  N38  1  0.50508990  0.33639131  0.83304767  1  0  0.463026  0  3.972978  0  0  0.523245  0  4.224598  0  0  0.545402  0  4.233128  0  0  0.055328  0.50844  0  4.218829  0
N  N39  1  0.49491201  0.66360486  0.16695213  1  0  0.463044  0  3.973127  0  0  0.523174  0  4.224762  0  0  0.54532  0  4.233321  0  0  0.055282  0.508362  0  4.219037  0
O  O40  1  0.11377322  0.15409953  0.44787638  1  0  -0.336524  0  1.781604  0  0  -0.328562  0  1.997061  0  0  -0.338055  0  1.992976  0  0  -0.132652  -0.321246  0  1.999964  0
O  O41  1  0.88623045  0.84590083  0.55212073  1  0  -0.33656  0  1.781636  0  0  -0.328528  0  1.997061  0  0  -0.338025  0  1.992971  0  0  -0.132633  -0.321213  0  2.000006  0
O  O42  1  0.90019458  0.06624335  0.31100399  1  0  -0.327155  0  1.773321  0  0  -0.318871  0  1.979978  0  0  -0.328428  0  1.977085  0  0  -0.123262  -0.311488  0  1.982065  0
O  O43  1  0.09980347  0.93375691  0.68899495  1  0  -0.327218  0  1.773469  0  0  -0.318894  0  1.980146  0  0  -0.328454  0  1.977264  0  0  -0.12329  -0.311535  0  1.982355  0
O  O44  1  0.87810506  0.61431568  0.08021731  1  0  -0.382802  0  1.79247  0  0  -0.377342  0  1.998633  0  0  -0.390161  0  1.993485  0  0  -0.17428  -0.368592  0  2.002257  0
O  O45  1  0.12189333  0.38568875  0.91978034  1  0  -0.382718  0  1.792491  0  0  -0.377304  0  1.998638  0  0  -0.390122  0  1.99349  0  0  -0.174227  -0.36855  0  2.002263  0
O  O46  1  0.08054647  0.84493284  0.15903122  1  0  -0.397728  0  1.791326  0  0  -0.396081  0  2.000388  0  0  -0.409491  0  1.995838  0  0  -0.182754  -0.386948  0  2.003652  0
O  O47  1  0.91945585  0.15506892  0.84096890  1  0  -0.397737  0  1.791225  0  0  -0.396106  0  2.000257  0  0  -0.409495  0  1.995673  0  0  -0.182762  -0.386966  0  2.003512  0
O  O48  1  0.57728727  0.95005501  0.67473477  1  0  -0.316301  0  1.80498  0  0  -0.317463  0  2.026862  0  0  -0.328288  0  2.024252  0  0  -0.114719  -0.315424  0  2.021333  0
O  O49  1  0.42271059  0.04994391  0.32526942  1  0  -0.316532  0  1.804997  0  0  -0.317645  0  2.026815  0  0  -0.327204  0  2.02416  0  0  -0.114753  -0.310334  0  2.028862  0
O  O50  1  0.37104053  0.85431022  0.53532182  1  0  -0.310323  0  1.80052  0  0  -0.303692  0  2.016526  0  0  -0.314315  0  2.01313  0  0  -0.113116  -0.301822  0  2.011566  0
O  O51  1  0.62894450  0.14570376  0.46468441  1  0  -0.310452  0  1.800451  0  0  -0.303856  0  2.016521  0  0  -0.313147  0  2.012987  0  0  -0.113199  -0.296747  0  2.019122  0
O  O52  1  0.43257010  0.17569020  0.83463102  1  0  -0.333519  0  1.773082  0  0  -0.329548  0  1.972748  0  0  -0.342223  0  1.970364  0  0  -0.12596  -0.32097  0  1.974492  0
O  O53  1  0.56743173  0.82430457  0.16536716  1  0  -0.333477  0  1.773105  0  0  -0.329514  0  1.972803  0  0  -0.342234  0  1.970471  0  0  -0.125928  -0.320923  0  1.974534  0
O  O54  1  0.61820773  0.42539495  0.90549481  1  0  -0.36785  0  1.820262  0  0  -0.35673  0  2.027028  0  0  -0.371389  0  2.02278  0  0  -0.140271  -0.346898  0  2.030103  0
O  O55  1  0.38179414  0.57460124  0.09450727  1  0  -0.367848  0  1.820286  0  0  -0.356683  0  2.027071  0  0  -0.371357  0  2.022829  0  0  -0.140256  -0.346855  0  2.03015  0
O  O56  1  0.70960116  0.19903855  0.06969546  1  0  -0.897211  0  1.828396  0  0  -0.853642  0  2.004938  0  0  -0.871177  0  1.9724  0  0  -0.708786  -0.840653  0  2.027575  0
O  O57  1  0.29039674  0.80096034  0.93030568  1  0  -0.897264  0  1.828312  0  0  -0.853698  0  2.004856  0  0  -0.871228  0  1.972299  0  0  -0.708815  -0.840715  0  2.027489  0
