# generated using pymatgen
data_Cd3H22C20S2(NO10)2
_symmetry_space_group_name_H-M   'P 1'
_cell_length_a   8.41229302
_cell_length_b   8.53924097
_cell_length_c   11.35818394
_cell_angle_alpha   95.42140416
_cell_angle_beta   88.56202311
_cell_angle_gamma   104.67192208
_symmetry_Int_Tables_number   1
_chemical_formula_structural   Cd3H22C20S2(NO10)2
_chemical_formula_sum   'Cd3 H22 C20 S2 N2 O20'
_cell_volume   785.77400574
_cell_formula_units_Z   1
loop_
 _symmetry_equiv_pos_site_id
 _symmetry_equiv_pos_as_xyz
  1  'x, y, z'
loop_
 _atom_site_type_symbol
 _atom_site_label
 _atom_site_symmetry_multiplicity
 _atom_site_fract_x
 _atom_site_fract_y
 _atom_site_fract_z
 _atom_site_occupancy
 _atom_site_hle17_bader_spin_density
 _atom_site_hle17_ddec_charge
 _atom_site_hle17_ddec_spin_density
 _atom_site_hle17_ddec_sum_bond_order
 _atom_site_hle17_magmom
 _atom_site_hse06_10hf_bader_spin_density
 _atom_site_hse06_10hf_ddec_charge
 _atom_site_hse06_10hf_ddec_spin_density
 _atom_site_hse06_10hf_ddec_sum_bond_order
 _atom_site_hse06_10hf_magmom
 _atom_site_hse06_bader_spin_density
 _atom_site_hse06_ddec_charge
 _atom_site_hse06_ddec_spin_density
 _atom_site_hse06_ddec_sum_bond_order
 _atom_site_hse06_magmom
 _atom_site_pbe_bader_spin_density
 _atom_site_pbe_cm5_charge
 _atom_site_pbe_ddec_charge
 _atom_site_pbe_ddec_spin_density
 _atom_site_pbe_ddec_sum_bond_order
 _atom_site_pbe_magmom
Cd  Cd0  1  0.09311647  0.43837682  0.30398985  1  0  1.176346  0  1.641535  0  0  0.990303  0  2.088556  0  0  1.048407  0  2.032614  0  0  0.777487  0.949014  0  2.126676  0
Cd  Cd1  1  0.90689095  0.56163018  0.69601398  1  0  1.176368  0  1.641403  0  0  0.990302  0  2.088415  0  0  1.048411  0  2.032466  0  0  0.777465  0.949009  0  2.126533  0
Cd  Cd2  1  0.49999862  0.99999930  0.99999660  1  0  1.30745  0  1.598816  0  0  1.154946  0  2.046296  0  0  1.203891  0  1.986145  0  0  0.783249  1.119296  0  2.088372  0
H  H3  1  0.60260550  0.91849897  0.29084828  1  0  0.11243  0  0.951466  0  0  0.120024  0  1.017666  0  0  0.124153  0  1.013685  0  0  0.110397  0.117106  0  1.020311  0
H  H4  1  0.39740820  0.08149570  0.70915122  1  0  0.112472  0  0.951457  0  0  0.120039  0  1.017701  0  0  0.12417  0  1.013717  0  0  0.110367  0.117119  0  1.020344  0
H  H5  1  0.47859075  0.68120420  0.61060983  1  0  0.118914  0  0.920859  0  0  0.129275  0  0.978815  0  0  0.133235  0  0.975158  0  0  0.116373  0.126276  0  0.98162  0
H  H6  1  0.52142117  0.31879659  0.38938567  1  0  0.11894  0  0.920873  0  0  0.129294  0  0.978842  0  0  0.133256  0  0.975185  0  0  0.116376  0.126296  0  0.981647  0
H  H7  1  0.89756968  0.09171439  0.60419046  1  0  0.113536  0  0.940872  0  0  0.123411  0  1.003782  0  0  0.126659  0  1.001315  0  0  0.113228  0.121006  0  1.005638  0
H  H8  1  0.10243927  0.90828890  0.39580785  1  0  0.11358  0  0.940848  0  0  0.123454  0  1.003759  0  0  0.126701  0  1.001292  0  0  0.113265  0.121051  0  1.005618  0
H  H9  1  0.96367068  0.68862578  0.16738549  1  0  0.1147  0  0.922424  0  0  0.122958  0  0.980562  0  0  0.125651  0  0.978633  0  0  0.130236  0.121014  0  0.981992  0
H  H10  1  0.03628277  0.31135896  0.83263116  1  0  0.114522  0  0.922462  0  0  0.122839  0  0.980577  0  0  0.12553  0  0.97865  0  0  0.130216  0.120894  0  0.982005  0
H  H11  1  0.09667011  0.26587948  0.04271636  1  0  0.099056  0  0.951667  0  0  0.103971  0  1.017748  0  0  0.106972  0  1.015457  0  0  0.123514  0.10169  0  1.019626  0
H  H12  1  0.90329233  0.73410755  0.95729865  1  0  0.09909  0  0.951772  0  0  0.104023  0  1.017757  0  0  0.107028  0  1.015465  0  0  0.123526  0.10174  0  1.019642  0
H  H13  1  0.94799146  0.66319009  0.43295034  1  0  0.429042  0  0.87497  0  0  0.397357  0  0.940257  0  0  0.408744  0  0.923794  0  0  0.289243  0.38927  0  0.951927  0
H  H14  1  0.05201380  0.33682181  0.56705118  1  0  0.429116  0  0.874891  0  0  0.397343  0  0.940337  0  0  0.40873  0  0.923874  0  0  0.289184  0.389252  0  0.952014  0
H  H15  1  0.80766686  0.50869745  0.41047605  1  0  0.435922  0  0.849643  0  0  0.408477  0  0.908535  0  0  0.419054  0  0.893179  0  0  0.297837  0.400862  0  0.919581  0
H  H16  1  0.19233902  0.49131199  0.58952179  1  0  0.435877  0  0.849762  0  0  0.408414  0  0.908637  0  0  0.418999  0  0.893272  0  0  0.297778  0.400798  0  0.919683  0
H  H17  1  0.50213318  0.31876383  0.96835331  1  0  0.422584  0  0.820875  0  0  0.408874  0  0.869863  0  0  0.416901  0  0.861058  0  0  0.320646  0.403102  0  0.876253  0
H  H18  1  0.49785787  0.68123359  0.03163323  1  0  0.422582  0  0.820924  0  0  0.408895  0  0.869877  0  0  0.416911  0  0.861095  0  0  0.320693  0.403129  0  0.876257  0
H  H19  1  0.60492264  0.27743940  0.85680046  1  0  0.445331  0  0.850381  0  0  0.411454  0  0.918125  0  0  0.422924  0  0.901447  0  0  0.291263  0.403288  0  0.929956  0
H  H20  1  0.39507761  0.72256155  0.14318891  1  0  0.445424  0  0.850272  0  0  0.41155  0  0.918006  0  0  0.423021  0  0.901328  0  0  0.291273  0.403386  0  0.929834  0
H  H21  1  0.83305851  0.02259952  0.00023650  1  0  0.41938  0  0.863468  0  0  0.391659  0  0.929679  0  0  0.400989  0  0.916031  0  0  0.297889  0.385112  0  0.939257  0
H  H22  1  0.16693914  0.97739661  0.99975610  1  0  0.419366  0  0.863586  0  0  0.391658  0  0.929683  0  0  0.400985  0  0.916042  0  0  0.297887  0.385111  0  0.93926  0
H  H23  1  0.79486277  0.04953383  0.14037769  1  0  0.448586  0  0.846043  0  0  0.416455  0  0.910326  0  0  0.427946  0  0.893779  0  0  0.29028  0.408306  0  0.922033  0
H  H24  1  0.20514232  0.95046339  0.85961495  1  0  0.448605  0  0.846043  0  0  0.416473  0  0.910322  0  0  0.427966  0  0.893773  0  0  0.290324  0.408323  0  0.92203  0
C  C25  1  0.76479306  0.01520865  0.43841279  1  0  -0.070841  0  3.736057  0  0  -0.043234  0  3.97615  0  0  -0.054918  0  3.99932  0  0  -0.014271  -0.036031  0  3.960751  0
C  C26  1  0.23521765  0.98479216  0.56158359  1  0  -0.071014  0  3.736089  0  0  -0.043268  0  3.976042  0  0  -0.054952  0  3.999212  0  0  -0.014332  -0.036059  0  3.960633  0
C  C27  1  0.63012503  0.90572793  0.38197076  1  0  -0.034136  0  3.654561  0  0  -0.073403  0  3.899592  0  0  -0.067189  0  3.915761  0  0  -0.062902  -0.076555  0  3.88798  0
C  C28  1  0.36988870  0.09426675  0.61802786  1  0  -0.03428  0  3.654409  0  0  -0.073596  0  3.899469  0  0  -0.067377  0  3.915626  0  0  -0.062853  -0.076753  0  3.887869  0
C  C29  1  0.52735113  0.78451861  0.44335161  1  0  -0.070643  0  3.747959  0  0  -0.04256  0  3.985077  0  0  -0.054015  0  4.008321  0  0  -0.013355  -0.035626  0  3.969763  0
C  C30  1  0.47265750  0.21548837  0.55665134  1  0  -0.070306  0  3.747616  0  0  -0.042192  0  3.984689  0  0  -0.053644  0  4.007931  0  0  -0.013279  -0.035268  0  3.969385  0
C  C31  1  0.55936532  0.77390499  0.56208409  1  0  -0.017234  0  3.65942  0  0  -0.061327  0  3.913392  0  0  -0.054639  0  3.928807  0  0  -0.06255  -0.065331  0  3.90312  0
C  C32  1  0.44064641  0.22610437  0.43791636  1  0  -0.01733  0  3.659333  0  0  -0.061462  0  3.913341  0  0  -0.054769  0  3.928765  0  0  -0.062501  -0.065463  0  3.903068  0
C  C33  1  0.69160876  0.88578223  0.61846646  1  0  -0.121083  0  3.73858  0  0  -0.08955  0  3.990623  0  0  -0.100297  0  4.012916  0  0  -0.014721  -0.082939  0  3.976045  0
C  C34  1  0.30840370  0.11421610  0.38152800  1  0  -0.120987  0  3.738432  0  0  -0.089402  0  3.990423  0  0  -0.100172  0  4.012746  0  0  -0.014628  -0.08279  0  3.975846  0
C  C35  1  0.79535070  0.00568838  0.55812005  1  0  -0.029661  0  3.681094  0  0  -0.075743  0  3.938572  0  0  -0.069396  0  3.955316  0  0  -0.068153  -0.079546  0  3.927376  0
C  C36  1  0.20466109  0.99430752  0.44187514  1  0  -0.02974  0  3.681191  0  0  -0.075883  0  3.938647  0  0  -0.069526  0  3.955392  0  0  -0.06827  -0.07969  0  3.927454  0
C  C37  1  0.87094503  0.14800766  0.37390024  1  0  0.658764  0  3.894891  0  0  0.603847  0  4.187451  0  0  0.638334  0  4.181977  0  0  0.207735  0.580391  0  4.190602  0
C  C38  1  0.12906661  0.85199681  0.62609813  1  0  0.658996  0  3.894546  0  0  0.604026  0  4.18711  0  0  0.638512  0  4.181628  0  0  0.207796  0.580565  0  4.190263  0
C  C39  1  0.37807513  0.67125087  0.38672312  1  0  0.653896  0  3.906988  0  0  0.601929  0  4.19553  0  0  0.636145  0  4.190856  0  0  0.20532  0.57875  0  4.197905  0
C  C40  1  0.62193230  0.32875613  0.61328071  1  0  0.653351  0  3.907155  0  0  0.60139  0  4.195712  0  0  0.635602  0  4.191053  0  0  0.20508  0.578214  0  4.198075  0
C  C41  1  0.97960699  0.60466485  0.09235207  1  0  0.099511  0  3.633005  0  0  0.070522  0  3.879247  0  0  0.07319  0  3.897773  0  0  0.068903  0.068563  0  3.866839  0
C  C42  1  0.02034441  0.39532115  0.90766467  1  0  0.099754  0  3.633026  0  0  0.07065  0  3.879461  0  0  0.073324  0  3.897978  0  0  0.068886  0.068687  0  3.867055  0
C  C43  1  0.05201418  0.36960458  0.02293467  1  0  0.092965  0  3.652848  0  0  0.064496  0  3.901543  0  0  0.06715  0  3.919679  0  0  0.064813  0.062586  0  3.889527  0
C  C44  1  0.94795209  0.63038362  0.97708217  1  0  0.092887  0  3.653372  0  0  0.064519  0  3.901742  0  0  0.067166  0  3.919886  0  0  0.064823  0.062607  0  3.889724  0
S  S45  1  0.71217653  0.87662240  0.77272762  1  0  1.316528  0  5.614801  0  0  1.217455  0  6.129976  0  0  1.266246  0  6.108008  0  0  0.513501  1.183658  0  6.144297  0
S  S46  1  0.28782889  0.12338094  0.22726983  1  0  1.3169  0  5.614486  0  0  1.217811  0  6.129656  0  0  1.26661  0  6.107684  0  0  0.513595  1.184013  0  6.143989  0
N  N47  1  0.03138698  0.47414533  0.11418990  1  0  -0.266924  0  3.254673  0  0  -0.191472  0  3.514682  0  0  -0.20795  0  3.533879  0  0  -0.302113  -0.180043  0  3.501443  0
N  N48  1  0.96858204  0.52584403  0.88582524  1  0  -0.267023  0  3.254954  0  0  -0.191572  0  3.514966  0  0  -0.208053  0  3.534166  0  0  -0.302114  -0.180141  0  3.501722  0
O  O49  1  0.84569634  0.16286915  0.26685726  1  0  -0.631074  0  1.973711  0  0  -0.572038  0  2.199784  0  0  -0.598478  0  2.189949  0  0  -0.313437  -0.553686  0  2.20613  0
O  O50  1  0.15431754  0.83712186  0.73314288  1  0  -0.631188  0  1.97358  0  0  -0.572135  0  2.199662  0  0  -0.598575  0  2.189825  0  0  -0.31351  -0.55378  0  2.206009  0
O  O51  1  0.98820358  0.24910578  0.43300953  1  0  -0.681727  0  2.109199  0  0  -0.603213  0  2.356346  0  0  -0.635915  0  2.348316  0  0  -0.325385  -0.580281  0  2.361041  0
O  O52  1  0.01180166  0.75089760  0.56699496  1  0  -0.681731  0  2.10921  0  0  -0.603244  0  2.356373  0  0  -0.635959  0  2.348369  0  0  -0.325367  -0.580326  0  2.361094  0
O  O53  1  0.33941468  0.68307410  0.28098501  1  0  -0.650841  0  1.988572  0  0  -0.585805  0  2.218529  0  0  -0.614247  0  2.208761  0  0  -0.318053  -0.565963  0  2.224624  0
O  O54  1  0.66061151  0.31694479  0.71901601  1  0  -0.650459  0  1.988518  0  0  -0.585411  0  2.218458  0  0  -0.613853  0  2.208703  0  0  -0.317852  -0.565565  0  2.22454  0
O  O55  1  0.28864323  0.56426372  0.44875115  1  0  -0.659443  0  2.017739  0  0  -0.589731  0  2.25958  0  0  -0.620359  0  2.250262  0  0  -0.322768  -0.568054  0  2.265134  0
O  O56  1  0.71135599  0.43573359  0.55123976  1  0  -0.659339  0  2.017544  0  0  -0.589656  0  2.259401  0  0  -0.620281  0  2.250084  0  0  -0.322792  -0.567984  0  2.264954  0
O  O57  1  0.72916507  0.71208270  0.78975528  1  0  -0.694052  0  2.014005  0  0  -0.633971  0  2.284482  0  0  -0.657627  0  2.266891  0  0  -0.350923  -0.6172  0  2.296041  0
O  O58  1  0.27083960  0.28791822  0.21024553  1  0  -0.694148  0  2.013946  0  0  -0.634064  0  2.284413  0  0  -0.657717  0  2.266814  0  0  -0.350944  -0.617293  0  2.295974  0
O  O59  1  0.54993177  0.89386083  0.81831583  1  0  -0.701379  0  2.035352  0  0  -0.634897  0  2.306827  0  0  -0.660219  0  2.290068  0  0  -0.35245  -0.616863  0  2.317802  0
O  O60  1  0.45007281  0.10613884  0.18167610  1  0  -0.701563  0  2.035253  0  0  -0.635015  0  2.306642  0  0  -0.660338  0  2.289878  0  0  -0.352461  -0.616985  0  2.317628  0
O  O61  1  0.85097351  0.00773638  0.81786352  1  0  -0.657194  0  1.917476  0  0  -0.60805  0  2.155751  0  0  -0.628645  0  2.142546  0  0  -0.338302  -0.593527  0  2.164394  0
O  O62  1  0.14902978  0.99226823  0.18213754  1  0  -0.657254  0  1.917355  0  0  -0.608153  0  2.155665  0  0  -0.628742  0  2.142447  0  0  -0.338371  -0.593628  0  2.164312  0
O  O63  1  0.89529188  0.58153245  0.36749753  1  0  -0.831673  0  1.807098  0  0  -0.77315  0  1.986784  0  0  -0.79544  0  1.952843  0  0  -0.587811  -0.757338  0  2.010461  0
O  O64  1  0.10471338  0.41847945  0.63250398  1  0  -0.831707  0  1.807173  0  0  -0.773081  0  1.986828  0  0  -0.795386  0  1.952874  0  0  -0.587703  -0.757266  0  2.01051  0
O  O65  1  0.59042328  0.26795948  0.94397963  1  0  -0.831296  0  1.8097  0  0  -0.778244  0  1.98822  0  0  -0.79963  0  1.960121  0  0  -0.576809  -0.762967  0  2.007888  0
O  O66  1  0.40957120  0.73203791  0.05601130  1  0  -0.83134  0  1.80964  0  0  -0.778314  0  1.988166  0  0  -0.799689  0  1.960083  0  0  -0.576863  -0.763047  0  2.007819  0
O  O67  1  0.75711605  0.98272463  0.06387749  1  0  -0.862071  0  1.8356  0  0  -0.803625  0  2.024837  0  0  -0.825753  0  1.990653  0  0  -0.586276  -0.787746  0  2.048468  0
O  O68  1  0.24288367  0.01727514  0.93611886  1  0  -0.862087  0  1.835781  0  0  -0.803637  0  2.024948  0  0  -0.825764  0  1.990767  0  0  -0.586326  -0.787757  0  2.048577  0
