# generated using pymatgen
data_Zn3H38C48(NO3)4
_symmetry_space_group_name_H-M   'P 1'
_cell_length_a   9.67189787
_cell_length_b   9.91353446
_cell_length_c   13.44370000
_cell_angle_alpha   105.02362077
_cell_angle_beta   104.39547909
_cell_angle_gamma   104.81564816
_symmetry_Int_Tables_number   1
_chemical_formula_structural   Zn3H38C48(NO3)4
_chemical_formula_sum   'Zn3 H38 C48 N4 O12'
_cell_volume   1133.05494424
_cell_formula_units_Z   1
loop_
 _symmetry_equiv_pos_site_id
 _symmetry_equiv_pos_as_xyz
  1  'x, y, z'
loop_
 _atom_site_type_symbol
 _atom_site_label
 _atom_site_symmetry_multiplicity
 _atom_site_fract_x
 _atom_site_fract_y
 _atom_site_fract_z
 _atom_site_occupancy
 _atom_site_hle17_bader_spin_density
 _atom_site_hle17_ddec_charge
 _atom_site_hle17_ddec_spin_density
 _atom_site_hle17_ddec_sum_bond_order
 _atom_site_hle17_magmom
 _atom_site_hse06_10hf_bader_spin_density
 _atom_site_hse06_10hf_ddec_charge
 _atom_site_hse06_10hf_ddec_spin_density
 _atom_site_hse06_10hf_ddec_sum_bond_order
 _atom_site_hse06_10hf_magmom
 _atom_site_hse06_bader_spin_density
 _atom_site_hse06_ddec_charge
 _atom_site_hse06_ddec_spin_density
 _atom_site_hse06_ddec_sum_bond_order
 _atom_site_hse06_magmom
 _atom_site_pbe_bader_charge
 _atom_site_pbe_bader_spin_density
 _atom_site_pbe_cm5_charge
 _atom_site_pbe_ddec_charge
 _atom_site_pbe_ddec_spin_density
 _atom_site_pbe_ddec_sum_bond_order
 _atom_site_pbe_magmom
Zn  Zn0  1  0.99999712  0.99999844  0.99999941  1  0  1.087984  0  1.805567  0  0  0.902258  0  2.2624  0  0  0.950847  0  2.207432  0  1.348837  0  0.704859  0.867899  0  2.300006  0
Zn  Zn1  1  0.71309788  0.99398723  0.75173554  1  0  1.061744  0  1.790268  0  0  0.876447  0  2.262119  0  0  0.928215  0  2.201277  0  1.289999  0  0.670109  0.840057  0  2.303848  0
Zn  Zn2  1  0.28690137  0.00601121  0.24826350  1  0  1.061674  0  1.790343  0  0  0.876384  0  2.262207  0  0  0.928143  0  2.201363  0  1.290062  0  0.670055  0.839986  0  2.303935  0
H  H3  1  0.33837436  0.65758175  0.97857133  1  0  0.114094  0  0.949578  0  0  0.125114  0  1.010056  0  0  0.128508  0  1.008614  0  0.102712  0  0.10187  0.122704  0  1.011217  0
H  H4  1  0.66162421  0.34241780  0.02142855  1  0  0.114091  0  0.94961  0  0  0.125092  0  1.010112  0  0  0.128485  0  1.008672  0  0.102729  0  0.101853  0.122682  0  1.011272  0
H  H5  1  0.58475414  0.48322330  0.78224121  1  0  0.085921  0  0.94481  0  0  0.102683  0  0.99994  0  0  0.105341  0  0.999096  0  0.027  0  0.093869  0.100428  0  1.001305  0
H  H6  1  0.41524773  0.51677959  0.21775990  1  0  0.085922  0  0.944757  0  0  0.102675  0  0.999898  0  0  0.105333  0  0.999054  0  0.026968  0  0.093855  0.100419  0  1.001262  0
H  H7  1  0.16085054  0.19720616  0.77113278  1  0  0.078792  0  0.989944  0  0  0.089368  0  1.059131  0  0  0.091763  0  1.058391  0  0.032107  0  0.089802  0.08799  0  1.059033  0
H  H8  1  0.83915231  0.80279339  0.22886712  1  0  0.078788  0  0.989963  0  0  0.089359  0  1.05915  0  0  0.091751  0  1.058412  0  0.032099  0  0.089821  0.087967  0  1.059069  0
H  H9  1  0.13333003  0.46566207  0.00268675  1  0  0.113244  0  0.917393  0  0  0.131291  0  0.970784  0  0  0.133177  0  0.970049  0  0.075748  0  0.105204  0.129474  0  0.972188  0
H  H10  1  0.86666922  0.53433637  0.99731155  1  0  0.113209  0  0.917397  0  0  0.131256  0  0.97079  0  0  0.13314  0  0.970057  0  0.07571  0  0.105185  0.129437  0  0.972195  0
H  H11  1  0.02249287  0.46334340  0.87502818  1  0  0.100763  0  0.953188  0  0  0.114135  0  1.017626  0  0  0.11594  0  1.017339  0  0.062559  0  0.095092  0.11246  0  1.01881  0
H  H12  1  0.97750745  0.53665504  0.12497105  1  0  0.100775  0  0.953232  0  0  0.114159  0  1.017657  0  0  0.115965  0  1.01737  0  0.06237  0  0.095101  0.112481  0  1.01884  0
H  H13  1  0.56268552  0.81242377  0.99117108  1  0  0.137395  0  0.917354  0  0  0.153659  0  0.971895  0  0  0.156854  0  0.969714  0  0.073095  0  0.113888  0.151287  0  0.973591  0
H  H14  1  0.43731451  0.18757689  0.00882928  1  0  0.137397  0  0.917345  0  0  0.153654  0  0.971891  0  0  0.156845  0  0.969715  0  0.073107  0  0.113894  0.151283  0  0.973586  0
H  H15  1  0.70279030  0.73252847  0.97966526  1  0  0.125527  0  0.972057  0  0  0.136531  0  1.038332  0  0  0.139288  0  1.037439  0  0.108675  0  0.102736  0.134413  0  1.039073  0
H  H16  1  0.29720934  0.26747108  0.02033407  1  0  0.125555  0  0.972021  0  0  0.136548  0  1.038315  0  0  0.139308  0  1.037419  0  0.108649  0  0.102736  0.13443  0  1.039056  0
H  H17  1  0.43163437  0.22989546  0.62718139  1  0  0.103156  0  0.937245  0  0  0.117149  0  0.996669  0  0  0.119599  0  0.995624  0  0.074927  0  0.094571  0.115538  0  0.99736  0
H  H18  1  0.56836634  0.77010410  0.37281814  1  0  0.103156  0  0.937225  0  0  0.117131  0  0.996659  0  0  0.11958  0  0.995615  0  0.07493  0  0.094565  0.115526  0  0.997345  0
H  H19  1  0.27987029  0.10813732  0.64502353  1  0  0.093742  0  0.935151  0  0  0.109728  0  0.995901  0  0  0.111697  0  0.995466  0  0.01844  0  0.093944  0.108148  0  0.996465  0
H  H20  1  0.72013187  0.89186334  0.35497795  1  0  0.093755  0  0.93511  0  0  0.109734  0  0.995869  0  0  0.111701  0  0.995434  0  0.018448  0  0.09395  0.108153  0  0.996433  0
H  H21  1  0.96349007  0.02912458  0.65530744  1  0  0.075334  0  0.957666  0  0  0.083231  0  1.024933  0  0  0.085695  0  1.022498  0  0.118048  0  0.116238  0.081387  0  1.026775  0
H  H22  1  0.03651103  0.97087608  0.34469385  1  0  0.075372  0  0.957661  0  0  0.083267  0  1.024929  0  0  0.085731  0  1.022494  0  0.118057  0  0.11626  0.081424  0  1.026768  0
H  H23  1  0.04807916  0.87022832  0.52272414  1  0  0.108016  0  0.941962  0  0  0.12034  0  0.997828  0  0  0.123439  0  0.997303  0  0.0753  0  0.110849  0.11807  0  0.998508  0
H  H24  1  0.95192193  0.12977234  0.47727641  1  0  0.107989  0  0.941943  0  0  0.12031  0  0.997818  0  0  0.123409  0  0.997293  0  0.07532  0  0.110841  0.118041  0  0.998498  0
H  H25  1  0.64603931  0.50399799  0.46380284  1  0  0.107548  0  0.954377  0  0  0.12089  0  1.009138  0  0  0.12387  0  1.008307  0  0.101525  0  0.111904  0.118732  0  1.00986  0
H  H26  1  0.35396247  0.49600157  0.53619910  1  0  0.10753  0  0.954413  0  0  0.120869  0  1.009172  0  0  0.123849  0  1.008341  0  0.101519  0  0.111897  0.118716  0  1.009888  0
H  H27  1  0.58365854  0.67783290  0.60270919  1  0  0.087016  0  0.967043  0  0  0.09535  0  1.030482  0  0  0.098195  0  1.027611  0  0.13995  0  0.11756  0.093197  0  1.032592  0
H  H28  1  0.41634149  0.32216776  0.39729191  1  0  0.087033  0  0.967029  0  0  0.09537  0  1.030463  0  0  0.098214  0  1.027593  0  0.140203  0  0.117568  0.09322  0  1.032572  0
H  H29  1  0.01367016  0.63175955  0.39926289  1  0  0.095477  0  0.935849  0  0  0.109135  0  0.990595  0  0  0.112276  0  0.989026  0  0.056092  0  0.107137  0.106973  0  0.991504  0
H  H30  1  0.98632948  0.36824000  0.60073569  1  0  0.095485  0  0.935831  0  0  0.109144  0  0.990577  0  0  0.112286  0  0.989006  0  0.056109  0  0.107145  0.106983  0  0.991484  0
H  H31  1  0.71366701  0.37884076  0.34897963  1  0  0.108465  0  0.961545  0  0  0.11817  0  1.023622  0  0  0.121805  0  1.020641  0  0.108883  0  0.108329  0.115593  0  1.025599  0
H  H32  1  0.28633302  0.62115990  0.65102147  1  0  0.108471  0  0.961555  0  0  0.11819  0  1.023625  0  0  0.121819  0  1.02065  0  0.108904  0  0.10833  0.115611  0  1.025606  0
H  H33  1  0.09253148  0.49455656  0.29308145  1  0  0.108456  0  0.93943  0  0  0.122793  0  0.990534  0  0  0.126096  0  0.989161  0  0.073844  0  0.112391  0.120477  0  0.991648  0
H  H34  1  0.90746884  0.50544188  0.70692002  1  0  0.108495  0  0.939379  0  0  0.122821  0  0.990496  0  0  0.126124  0  0.989123  0  0.073842  0  0.112394  0.120505  0  0.99161  0
H  H35  1  0.15060662  0.31337103  0.15896972  1  0  0.079349  0  0.947761  0  0  0.088856  0  1.012436  0  0  0.090793  0  1.010658  0  0.096321  0  0.117847  0.087495  0  1.013709  0
H  H36  1  0.84939302  0.68662852  0.84103184  1  0  0.079369  0  0.947804  0  0  0.08888  0  1.012463  0  0  0.090819  0  1.010682  0  0.096418  0  0.117851  0.087514  0  1.013742  0
H  H37  1  0.75774745  0.97401841  0.10592878  1  0  0.086769  0  0.958838  0  0  0.093916  0  1.026435  0  0  0.095951  0  1.024599  0  0.116038  0  0.121408  0.09256  0  1.027447  0
H  H38  1  0.24224899  0.02598115  0.89407146  1  0  0.086719  0  0.958877  0  0  0.093891  0  1.026444  0  0  0.095926  0  1.024609  0  0.116042  0  0.121387  0.092537  0  1.027457  0
H  H39  1  0.67478803  0.14273846  0.23104015  1  0  0.128676  0  0.955104  0  0  0.137468  0  1.013259  0  0  0.140556  0  1.013207  0  0.147255  0  0.113264  0.135709  0  1.012745  0
H  H40  1  0.32521093  0.85726220  0.76896076  1  0  0.128675  0  0.955159  0  0  0.137456  0  1.013325  0  0  0.140543  0  1.013275  0  0.147352  0  0.113271  0.135696  0  1.012813  0
C  C41  1  0.23198104  0.42549878  0.87692768  1  0  0.131024  0  3.768375  0  0  0.154197  0  4.005671  0  0  0.155822  0  4.030544  0  0.00833  0  -0.012036  0.153394  0  3.987907  0
C  C42  1  0.76801928  0.57449966  0.12307156  1  0  0.13103  0  3.768375  0  0  0.154197  0  4.005669  0  0  0.155824  0  4.030544  0  0.008341  0  -0.012033  0.153394  0  3.987901  0
C  C43  1  0.34600792  0.56485038  0.91776055  1  0  -0.179291  0  3.681446  0  0  -0.209419  0  3.927933  0  0  -0.214669  0  3.949873  0  -0.05412  0  -0.093761  -0.205713  0  3.912837  0
C  C44  1  0.65399133  0.43514806  0.08223850  1  0  -0.179265  0  3.681462  0  0  -0.209385  0  3.927952  0  0  -0.214635  0  3.949892  0  -0.054202  0  -0.09374  -0.205679  0  3.912857  0
C  C45  1  0.47280438  0.58703339  0.88390047  1  0  0.152673  0  3.76572  0  0  0.173859  0  4.004446  0  0  0.176061  0  4.02891  0  -0.000415  0  -0.006572  0.171962  0  3.987812  0
C  C46  1  0.52719603  0.41296839  0.11610017  1  0  0.152651  0  3.765667  0  0  0.173862  0  4.004354  0  0  0.176068  0  4.028813  0  -1.3e-05  0  -0.006558  0.171965  0  3.98772  0
C  C47  1  0.48556233  0.46710930  0.80888773  1  0  -0.178913  0  3.694542  0  0  -0.211184  0  3.94407  0  0  -0.215996  0  3.965523  0  -0.078618  0  -0.098496  -0.207426  0  3.929735  0
C  C48  1  0.51443955  0.53289359  0.19111412  1  0  -0.178883  0  3.694419  0  0  -0.211141  0  3.943944  0  0  -0.215951  0  3.965393  0  -0.078505  0  -0.098472  -0.207378  0  3.929605  0
C  C49  1  0.37416419  0.32609039  0.76804120  1  0  0.1327  0  3.799759  0  0  0.154704  0  4.037667  0  0  0.156696  0  4.062411  0  0.020255  0  -0.014715  0.153266  0  4.020633  0
C  C50  1  0.62583730  0.67391139  0.23195889  1  0  0.13268  0  3.799794  0  0  0.154657  0  4.037725  0  0  0.15665  0  4.062466  0  0.020153  0  -0.014737  0.15322  0  4.020688  0
C  C51  1  0.24759666  0.30737872  0.80253660  1  0  -0.196876  0  3.729032  0  0  -0.226826  0  3.977557  0  0  -0.232155  0  3.999952  0  -0.067829  0  -0.106048  -0.222802  0  3.961081  0
C  C52  1  0.75240512  0.69262084  0.19746312  1  0  -0.196873  0  3.729084  0  0  -0.226801  0  3.977606  0  0  -0.23213  0  4.000001  0  -0.067819  0  -0.106059  -0.222772  0  3.961149  0
C  C53  1  0.09465131  0.40885235  0.91368873  1  0  -0.309359  0  3.698129  0  0  -0.354262  0  3.940575  0  0  -0.359854  0  3.947204  0  -0.050625  0  -0.161008  -0.350002  0  3.935542  0
C  C54  1  0.90534901  0.59114609  0.08630977  1  0  -0.309379  0  3.698199  0  0  -0.354262  0  3.940628  0  0  -0.359858  0  3.947261  0  -0.050439  0  -0.161008  -0.349998  0  3.935589  0
C  C55  1  0.00158436  0.24748114  0.88623121  1  0  0.732635  0  3.828887  0  0  0.685247  0  4.123713  0  0  0.720097  0  4.114216  0  1.576939  0  0.220281  0.661638  0  4.128996  0
C  C56  1  0.99841596  0.75251730  0.11376802  1  0  0.732802  0  3.82881  0  0  0.685373  0  4.12368  0  0  0.720224  0  4.114185  0  1.576931  0  0.220343  0.661762  0  4.128964  0
C  C57  1  0.59485071  0.73736478  0.93209655  1  0  -0.337467  0  3.697749  0  0  -0.377453  0  3.931567  0  0  -0.384764  0  3.938542  0  -0.051061  0  -0.164361  -0.372318  0  3.926586  0
C  C58  1  0.40514971  0.26263699  0.06790334  1  0  -0.337454  0  3.697728  0  0  -0.377459  0  3.9316  0  0  -0.384773  0  3.938576  0  -0.051415  0  -0.164374  -0.372325  0  3.92662  0
C  C59  1  0.62703241  0.81224259  0.85166935  1  0  0.709398  0  3.804688  0  0  0.661168  0  4.10282  0  0  0.694955  0  4.095464  0  1.518213  0  0.209828  0.638703  0  4.105895  0
C  C60  1  0.37296694  0.18775918  0.14833035  1  0  0.709338  0  3.804726  0  0  0.661129  0  4.102856  0  0  0.694918  0  4.095493  0  1.518242  0  0.209854  0.638663  0  4.105925  0
C  C61  1  0.39090280  0.19738068  0.68974178  1  0  -0.300993  0  3.714681  0  0  -0.342819  0  3.954275  0  0  -0.34893  0  3.962607  0  -0.048703  0  -0.164672  -0.33847  0  3.948324  0
C  C62  1  0.60909898  0.80261888  0.31025793  1  0  -0.300975  0  3.714638  0  0  -0.342774  0  3.954254  0  0  -0.348881  0  3.962583  0  -0.048711  0  -0.164666  -0.338431  0  3.948305  0
C  C63  1  0.49849744  0.12598088  0.74292118  1  0  0.687609  0  3.876858  0  0  0.648546  0  4.170554  0  0  0.681067  0  4.164842  0  1.579255  0  0.194534  0.626462  0  4.173674  0
C  C64  1  0.50150434  0.87401867  0.25707779  1  0  0.687366  0  3.877076  0  0  0.648297  0  4.170786  0  0  0.680817  0  4.165075  0  1.579253  0  0.1944  0.626213  0  4.173904  0
C  C65  1  0.89721035  0.91174324  0.61081400  1  0  0.135  0  3.716713  0  0  0.102072  0  3.970256  0  0  0.110204  0  3.988582  0  0.442378  0  0.049882  0.09666  0  3.95832  0
C  C66  1  0.10279036  0.08825631  0.38918627  1  0  0.134944  0  3.716736  0  0  0.102012  0  3.970289  0  0  0.110141  0  3.988615  0  0.442563  0  0.049841  0.096601  0  3.95835  0
C  C67  1  0.94262091  0.82277888  0.53652237  1  0  -0.173559  0  3.699055  0  0  -0.19116  0  3.949394  0  0  -0.200202  0  3.970725  0  -0.02397  0  -0.080863  -0.185626  0  3.935552  0
C  C68  1  0.05737980  0.17722067  0.46347790  1  0  -0.17348  0  3.698991  0  0  -0.191075  0  3.949318  0  0  -0.200115  0  3.97065  0  -0.02398  0  -0.080831  -0.18554  0  3.935476  0
C  C69  1  0.85426831  0.67166941  0.48070779  1  0  0.153777  0  3.791614  0  0  0.166397  0  4.02484  0  0  0.173654  0  4.046588  0  0.000993  0  0.017272  0.161647  0  4.010005  0
C  C70  1  0.14573279  0.32833125  0.51929275  1  0  0.153737  0  3.791613  0  0  0.166361  0  4.024823  0  0  0.173619  0  4.046573  0  0.001128  0  0.01727  0.161611  0  4.009992  0
C  C71  1  0.72037502  0.61951927  0.50395226  1  0  -0.156089  0  3.690832  0  0  -0.171781  0  3.934005  0  0  -0.180384  0  3.955373  0  -0.035789  0  -0.07563  -0.166166  0  3.919705  0
C  C72  1  0.27962608  0.38048139  0.49604977  1  0  -0.1561  0  3.690852  0  0  -0.171778  0  3.934006  0  0  -0.180382  0  3.955374  0  -0.035943  0  -0.075669  -0.166168  0  3.919706  0
C  C73  1  0.68354169  0.71481719  0.57988631  1  0  0.120093  0  3.723915  0  0  0.087816  0  3.974258  0  0  0.095021  0  3.992753  0  0.46007  0  0.046232  0.083116  0  3.961719  0
C  C74  1  0.31645941  0.28518348  0.42011498  1  0  0.120069  0  3.723907  0  0  0.087782  0  3.974256  0  0  0.094985  0  3.992751  0  0.459825  0  0.046238  0.083079  0  3.961721  0
C  C75  1  0.90417675  0.57735743  0.40555951  1  0  -0.104196  0  3.713682  0  0  -0.12484  0  3.969511  0  0  -0.129906  0  3.991087  0  -0.03678  0  -0.077493  -0.12121  0  3.954409  0
C  C76  1  0.09582328  0.42264323  0.59444085  1  0  -0.104171  0  3.713617  0  0  -0.124816  0  3.969465  0  0  -0.129877  0  3.991024  0  -0.036805  0  -0.077477  -0.121187  0  3.954363  0
C  C77  1  0.82579992  0.43222805  0.34639055  1  0  -0.076872  0  3.684412  0  0  -0.102113  0  3.939444  0  0  -0.103679  0  3.95855  0  0.002979  0  -0.069343  -0.100899  0  3.926305  0
C  C78  1  0.17419905  0.56777262  0.65361036  1  0  -0.076817  0  3.684417  0  0  -0.102128  0  3.939435  0  0  -0.103656  0  3.958568  0  0.002963  0  -0.069361  -0.100924  0  3.926289  0
C  C79  1  0.87572637  0.33492491  0.27330321  1  0  0.141815  0  3.792836  0  0  0.157224  0  4.02562  0  0  0.162568  0  4.048268  0  0.017836  0  0.01413  0.1535  0  4.010216  0
C  C80  1  0.12427152  0.66507575  0.72669676  1  0  0.141593  0  3.793094  0  0  0.15715  0  4.025689  0  0  0.162394  0  4.048477  0  0.017852  0  0.014103  0.153463  0  4.010234  0
C  C81  1  0.01320018  0.38079929  0.25306152  1  0  -0.168287  0  3.712507  0  0  -0.186024  0  3.960483  0  0  -0.194033  0  3.982162  0  0.0088  0  -0.081066  -0.180093  0  3.945357  0
C  C82  1  0.98679985  0.61920137  0.74693958  1  0  -0.168318  0  3.712637  0  0  -0.186087  0  3.96058  0  0  -0.194065  0  3.982286  0  0.00894  0  -0.081068  -0.180169  0  3.945444  0
C  C83  1  0.04759258  0.28017376  0.17900418  1  0  0.13111  0  3.721339  0  0  0.096853  0  3.977191  0  0  0.103764  0  3.996842  0  0.468431  0  0.044022  0.092529  0  3.963252  0
C  C84  1  0.95240639  0.71982690  0.82099599  1  0  0.131154  0  3.72141  0  0  0.096888  0  3.977253  0  0  0.103803  0  3.9969  0  0.468209  0  0.044028  0.092563  0  3.963316  0
C  C85  1  0.82738158  0.09060166  0.14789800  1  0  0.143447  0  3.685522  0  0  0.111199  0  3.935209  0  0  0.119289  0  3.952959  0  0.46398  0  0.051891  0.105681  0  3.92324  0
C  C86  1  0.17261739  0.90939901  0.85210216  1  0  0.143542  0  3.685496  0  0  0.111275  0  3.935195  0  0  0.119368  0  3.952941  0  0.463892  0  0.051921  0.105748  0  3.923227  0
C  C87  1  0.78291454  0.18491253  0.21918287  1  0  -0.151079  0  3.650066  0  0  -0.168131  0  3.891101  0  0  -0.176945  0  3.912714  0  -0.057393  0  -0.073753  -0.162931  0  3.876671  0
C  C88  1  0.21708520  0.81509036  0.78081637  1  0  -0.150968  0  3.650123  0  0  -0.168063  0  3.891141  0  0  -0.176844  0  3.912784  0  -0.057429  0  -0.073734  -0.162874  0  3.876704  0
N  N89  1  0.77047668  0.85929188  0.63366287  1  0  -0.325747  0  3.276877  0  0  -0.241998  0  3.549585  0  0  -0.261699  0  3.564331  0  -1.258009  0  -0.323313  -0.228963  0  3.539812  0
N  N90  1  0.22952374  0.14070990  0.36633851  1  0  -0.325708  0  3.27689  0  0  -0.241961  0  3.549602  0  0  -0.261654  0  3.56434  0  -1.258167  0  -0.323277  -0.228923  0  3.539826  0
N  N91  1  0.95637356  0.13722300  0.12617966  1  0  -0.330117  0  3.294824  0  0  -0.248693  0  3.562923  0  0  -0.268503  0  3.579797  0  -1.257589  0  -0.32658  -0.235015  0  3.550958  0
N  N92  1  0.04362540  0.86277767  0.87382051  1  0  -0.33019  0  3.294836  0  0  -0.248753  0  3.562938  0  0  -0.268571  0  3.57982  0  -1.257612  0  -0.326593  -0.235062  0  3.550962  0
O  O93  1  0.05177406  0.18230930  0.94904788  1  0  -0.664604  0  2.115037  0  0  -0.595724  0  2.387013  0  0  -0.623925  0  2.374358  0  -1.205588  0  -0.31647  -0.575871  0  2.394885  0
O  O94  1  0.94822413  0.81768914  0.05095098  1  0  -0.664658  0  2.114955  0  0  -0.595801  0  2.387022  0  0  -0.623989  0  2.374327  0  -1.205622  0  -0.316488  -0.57594  0  2.394882  0
O  O95  1  0.88410023  0.18931645  0.80021744  1  0  -0.646925  0  2.023334  0  0  -0.578462  0  2.287787  0  0  -0.605889  0  2.270488  0  -1.194114  0  -0.32768  -0.559549  0  2.299194  0
O  O96  1  0.11590009  0.81068199  0.19978031  1  0  -0.646978  0  2.023366  0  0  -0.578487  0  2.287835  0  0  -0.605912  0  2.270531  0  -1.194053  0  -0.327695  -0.559577  0  2.299249  0
O  O97  1  0.55138279  0.05338506  0.67529043  1  0  -0.667346  0  1.995057  0  0  -0.597496  0  2.251461  0  0  -0.626352  0  2.234808  0  -1.163971  0  -0.357475  -0.577714  0  2.262185  0
O  O98  1  0.44861500  0.94661227  0.32470740  1  0  -0.667278  0  1.995104  0  0  -0.597427  0  2.251509  0  0  -0.62628  0  2.234854  0  -1.16403  0  -0.357444  -0.577642  0  2.262233  0
O  O99  1  0.52752291  0.13714964  0.84113630  1  0  -0.62891  0  1.876841  0  0  -0.583221  0  2.089194  0  0  -0.605856  0  2.081079  0  -1.186438  0  -0.334211  -0.567646  0  2.094308  0
O  O100  1  0.47248139  0.86285103  0.15886333  1  0  -0.628747  0  1.876956  0  0  -0.583044  0  2.08929  0  0  -0.60569  0  2.081197  0  -1.186448  0  -0.334099  -0.567467  0  2.094398  0
O  O101  1  0.53675776  0.77098110  0.75573421  1  0  -0.625871  0  1.955858  0  0  -0.572895  0  2.193949  0  0  -0.597442  0  2.183822  0  -1.19212  0  -0.308859  -0.555952  0  2.199108  0
O  O102  1  0.46324197  0.22902179  0.24426577  1  0  -0.625831  0  1.955883  0  0  -0.572843  0  2.193947  0  0  -0.597394  0  2.183831  0  -1.192133  0  -0.308849  -0.555908  0  2.199123  0
O  O103  1  0.75249394  0.92623440  0.88616147  1  0  -0.692287  0  2.078506  0  0  -0.612183  0  2.369764  0  0  -0.642519  0  2.351486  0  -1.178253  0  -0.32412  -0.590853  0  2.380968  0
O  O104  1  0.24750502  0.07376627  0.11383795  1  0  -0.692253  0  2.078422  0  0  -0.612193  0  2.369713  0  0  -0.642526  0  2.351434  0  -1.178233  0  -0.324144  -0.590861  0  2.380917  0
