# generated using pymatgen
data_GdH6C3(NO)6
_symmetry_space_group_name_H-M   'P 1'
_cell_length_a   8.89048129
_cell_length_b   10.10060461
_cell_length_c   12.76177082
_cell_angle_alpha   90.00018396
_cell_angle_beta   89.99946914
_cell_angle_gamma   106.47502005
_symmetry_Int_Tables_number   1
_chemical_formula_structural   GdH6C3(NO)6
_chemical_formula_sum   'Gd4 H24 C12 N24 O24'
_cell_volume   1098.94660056
_cell_formula_units_Z   4
loop_
 _symmetry_equiv_pos_site_id
 _symmetry_equiv_pos_as_xyz
  1  'x, y, z'
loop_
 _atom_site_type_symbol
 _atom_site_label
 _atom_site_symmetry_multiplicity
 _atom_site_fract_x
 _atom_site_fract_y
 _atom_site_fract_z
 _atom_site_occupancy
 _atom_site_hle17_bader_spin_density
 _atom_site_hle17_ddec_charge
 _atom_site_hle17_ddec_spin_density
 _atom_site_hle17_ddec_sum_bond_order
 _atom_site_hle17_magmom
 _atom_site_hse06_10hf_bader_spin_density
 _atom_site_hse06_10hf_ddec_charge
 _atom_site_hse06_10hf_ddec_spin_density
 _atom_site_hse06_10hf_ddec_sum_bond_order
 _atom_site_hse06_10hf_magmom
 _atom_site_hse06_bader_spin_density
 _atom_site_hse06_ddec_charge
 _atom_site_hse06_ddec_spin_density
 _atom_site_hse06_ddec_sum_bond_order
 _atom_site_hse06_magmom
 _atom_site_pbe_bader_spin_density
 _atom_site_pbe_cm5_charge
 _atom_site_pbe_ddec_charge
 _atom_site_pbe_ddec_spin_density
 _atom_site_pbe_ddec_sum_bond_order
 _atom_site_pbe_magmom
Gd  Gd0  1  0.22409451  0.12946252  0.32217573  1  0  2.033009  0  1.888283  0  0  1.888453  0  2.295429  0  0  1.94651  0  2.238486  0  0  1.487856  1.844666  0  2.339713  0
Gd  Gd1  1  0.72409947  0.12946288  0.67782931  1  0  2.033034  0  1.888227  0  0  1.88846  0  2.295365  0  0  1.946506  0  2.238448  0  0  1.487908  1.844676  0  2.33963  0
Gd  Gd2  1  0.85351973  0.57778161  0.17637868  1  0  2.229397  0  1.68617  0  0  2.141105  0  2.026773  0  0  2.18364  0  1.982379  0  0  1.474591  2.105615  0  2.066209  0
Gd  Gd3  1  0.35352933  0.57779050  0.82361491  1  0  2.229413  0  1.686147  0  0  2.141179  0  2.026613  0  0  2.183716  0  1.982217  0  0  1.474618  2.105603  0  2.066199  0
H  H4  1  0.85077028  0.51502471  0.42217208  1  0  0.422965  0  0.879251  0  0  0.380618  0  0.961097  0  0  0.392194  0  0.944261  0  0  0.305254  0.372051  0  0.973622  0
H  H5  1  0.35075827  0.51502361  0.57782450  1  0  0.422927  0  0.879283  0  0  0.380601  0  0.961101  0  0  0.392179  0  0.944259  0  0  0.305223  0.372027  0  0.973641  0
H  H6  1  0.81465192  0.65829897  0.39478746  1  0  0.463433  0  0.787086  0  0  0.447514  0  0.829132  0  0  0.456744  0  0.815671  0  0  0.338468  0.440418  0  0.839664  0
H  H7  1  0.31465548  0.65830478  0.60519952  1  0  0.463515  0  0.787027  0  0  0.447599  0  0.829011  0  0  0.456824  0  0.815559  0  0  0.338558  0.440507  0  0.839535  0
H  H8  1  0.74719492  0.84463104  0.24243131  1  0  0.469322  0  0.772281  0  0  0.452293  0  0.81652  0  0  0.460453  0  0.804816  0  0  0.350515  0.445638  0  0.826279  0
H  H9  1  0.24720017  0.84464105  0.75756363  1  0  0.469333  0  0.772359  0  0  0.452307  0  0.816523  0  0  0.460468  0  0.804818  0  0  0.350535  0.445653  0  0.826279  0
H  H10  1  0.92354379  0.85449995  0.27303545  1  0  0.452803  0  0.838783  0  0  0.418424  0  0.908421  0  0  0.429629  0  0.891774  0  0  0.3156  0.410425  0  0.920276  0
H  H11  1  0.42354724  0.85450686  0.72695995  1  0  0.452818  0  0.83876  0  0  0.418456  0  0.908366  0  0  0.429657  0  0.891727  0  0  0.315617  0.410457  0  0.920221  0
H  H12  1  0.90058150  0.35733437  0.00866328  1  0  0.425416  0  0.867691  0  0  0.384202  0  0.947817  0  0  0.395438  0  0.931408  0  0  0.304014  0.375545  0  0.960411  0
H  H13  1  0.40057817  0.35733847  0.99132945  1  0  0.425395  0  0.867713  0  0  0.384182  0  0.947841  0  0  0.395418  0  0.931432  0  0  0.30403  0.375524  0  0.960433  0
H  H14  1  0.93978907  0.50339990  0.95722292  1  0  0.449821  0  0.826239  0  0  0.425083  0  0.881384  0  0  0.4353  0  0.866203  0  0  0.315267  0.417623  0  0.892506  0
H  H15  1  0.43978964  0.50339822  0.04277385  1  0  0.449804  0  0.826259  0  0  0.42507  0  0.881394  0  0  0.435287  0  0.866213  0  0  0.315262  0.417608  0  0.892518  0
H  H16  1  0.07946341  0.48258927  0.30912359  1  0  0.401298  0  0.919549  0  0  0.356876  0  1.005404  0  0  0.368559  0  0.988523  0  0  0.299952  0.348608  0  1.017323  0
H  H17  1  0.57945782  0.48258574  0.69087387  1  0  0.401214  0  0.91966  0  0  0.356796  0  1.005511  0  0  0.368479  0  0.988629  0  0  0.299937  0.348527  0  1.017429  0
H  H18  1  0.16223791  0.48729962  0.19967927  1  0  0.461996  0  0.794019  0  0  0.441789  0  0.841859  0  0  0.451639  0  0.827347  0  0  0.327109  0.434538  0  0.852591  0
H  H19  1  0.66225006  0.48731548  0.80031532  1  0  0.462001  0  0.793861  0  0  0.441791  0  0.841825  0  0  0.451641  0  0.827312  0  0  0.32715  0.434538  0  0.85256  0
H  H20  1  0.69165980  0.67565879  0.98841553  1  0  0.44711  0  0.835273  0  0  0.422326  0  0.887406  0  0  0.432546  0  0.872365  0  0  0.313621  0.415038  0  0.898151  0
H  H21  1  0.19165637  0.67565094  0.01158561  1  0  0.447103  0  0.835276  0  0  0.422337  0  0.887383  0  0  0.432563  0  0.872334  0  0  0.313647  0.415047  0  0.898129  0
H  H22  1  0.83186792  0.79420027  0.02708469  1  0  0.403241  0  0.917405  0  0  0.358608  0  1.005026  0  0  0.370326  0  0.98812  0  0  0.290909  0.350059  0  1.017315  0
H  H23  1  0.33186226  0.79420026  0.97291350  1  0  0.403261  0  0.91738  0  0  0.358617  0  1.005015  0  0  0.370335  0  0.988111  0  0  0.290939  0.350068  0  1.017302  0
H  H24  1  0.00046708  0.12144970  0.14092417  1  0  0.397361  0  0.924719  0  0  0.352975  0  1.011434  0  0  0.364327  0  0.995043  0  0  0.289735  0.345013  0  1.022884  0
H  H25  1  0.50046962  0.12145646  0.85908152  1  0  0.39737  0  0.924702  0  0  0.353001  0  1.011388  0  0  0.364353  0  0.994999  0  0  0.28975  0.345037  0  1.022841  0
H  H26  1  0.92435253  0.17339507  0.23966618  1  0  0.39193  0  0.935806  0  0  0.346311  0  1.024458  0  0  0.357501  0  1.008534  0  0  0.291771  0.338481  0  1.035554  0
H  H27  1  0.42436104  0.17341124  0.76033926  1  0  0.3919  0  0.935824  0  0  0.346273  0  1.024487  0  0  0.35746  0  1.008566  0  0  0.291743  0.338444  0  1.035581  0
C  C28  1  0.46276219  0.19303794  0.52018283  1  0  0.142536  0  3.861456  0  0  0.121843  0  4.139068  0  0  0.125121  0  4.156661  0  0  0.212711  0.119636  0  4.126824  0
C  C29  1  0.96278259  0.19305864  0.47982476  1  0  0.142059  0  3.862118  0  0  0.121502  0  4.13954  0  0  0.124687  0  4.157253  0  0  0.2127  0.119346  0  4.127234  0
C  C30  1  0.43811246  0.04284830  0.50436909  1  0  0.64564  0  3.954827  0  0  0.595545  0  4.265  0  0  0.630271  0  4.253508  0  0  0.221438  0.572009  0  4.271753  0
C  C31  1  0.93811187  0.04286434  0.49564690  1  0  0.645802  0  3.954683  0  0  0.595762  0  4.26467  0  0  0.630513  0  4.253186  0  0  0.221611  0.572215  0  4.271417  0
C  C32  1  0.26806578  0.97172060  0.09520658  1  0  0.140385  0  3.792282  0  0  0.124055  0  4.062288  0  0  0.12591  0  4.079046  0  0  0.213266  0.122811  0  4.050927  0
C  C33  1  0.76805991  0.97172761  0.90479325  1  0  0.140361  0  3.791991  0  0  0.124045  0  4.06211  0  0  0.1259  0  4.078871  0  0  0.213177  0.122804  0  4.050747  0
C  C34  1  0.15553408  0.86393391  0.15766601  1  0  0.673313  0  3.877725  0  0  0.620985  0  4.175694  0  0  0.656597  0  4.164365  0  0  0.247526  0.596767  0  4.182467  0
C  C35  1  0.65554639  0.86395500  0.84233427  1  0  0.673473  0  3.877408  0  0  0.620905  0  4.175667  0  0  0.656517  0  4.164336  0  0  0.247417  0.596684  0  4.18244  0
C  C36  1  0.57569439  0.30837368  0.24592365  1  0  0.146018  0  3.887026  0  0  0.124373  0  4.164865  0  0  0.128001  0  4.181201  0  0  0.208263  0.122173  0  4.152933  0
C  C37  1  0.07569336  0.30838489  0.75406948  1  0  0.145774  0  3.887128  0  0  0.124147  0  4.164973  0  0  0.12778  0  4.181308  0  0  0.208087  0.121949  0  4.153036  0
C  C38  1  0.48497051  0.40631789  0.22078257  1  0  0.645705  0  3.944842  0  0  0.594275  0  4.257071  0  0  0.629373  0  4.244201  0  0  0.228559  0.570419  0  4.264668  0
C  C39  1  0.98497516  0.40633081  0.77921209  1  0  0.645831  0  3.944619  0  0  0.594387  0  4.256857  0  0  0.629477  0  4.244001  0  0  0.228582  0.57053  0  4.264453  0
N  N40  1  0.37887349  0.26791784  0.47447011  1  0  -0.363113  0  3.187418  0  0  -0.337288  0  3.481757  0  0  -0.351196  0  3.500709  0  0  -0.280089  -0.3274  0  3.468753  0
N  N41  1  0.87888999  0.26793241  0.52553508  1  0  -0.362912  0  3.187494  0  0  -0.337143  0  3.481783  0  0  -0.35102  0  3.50076  0  0  -0.280093  -0.327272  0  3.468762  0
N  N42  1  0.43342315  0.39501455  0.51486730  1  0  -0.058816  0  2.973417  0  0  -0.043508  0  3.258586  0  0  -0.043301  0  3.268185  0  0  -0.076138  -0.043161  0  3.252059  0
N  N43  1  0.93343833  0.39502705  0.48513785  1  0  -0.058742  0  2.973249  0  0  -0.043419  0  3.258434  0  0  -0.04321  0  3.268023  0  0  -0.076129  -0.043074  0  3.25191  0
N  N44  1  0.54810966  0.39562716  0.58138984  1  0  -0.057725  0  3.042253  0  0  -0.027215  0  3.316241  0  0  -0.028845  0  3.326127  0  0  -0.07249  -0.0259  0  3.30946  0
N  N45  1  0.04812305  0.39563783  0.41861074  1  0  -0.057872  0  3.042415  0  0  -0.027367  0  3.316418  0  0  -0.028996  0  3.326296  0  0  -0.07253  -0.026054  0  3.309641  0
N  N46  1  0.56803218  0.26984280  0.58648217  1  0  -0.338464  0  3.19042  0  0  -0.30598  0  3.47004  0  0  -0.318579  0  3.487  0  0  -0.283031  -0.297068  0  3.458532  0
N  N47  1  0.06804266  0.26985459  0.41351875  1  0  -0.338224  0  3.190629  0  0  -0.3058  0  3.470215  0  0  -0.318367  0  3.487201  0  0  -0.283011  -0.296904  0  3.458694  0
N  N48  1  0.29375037  0.10527126  0.12096516  1  0  -0.335849  0  3.159747  0  0  -0.305671  0  3.439693  0  0  -0.318319  0  3.459258  0  0  -0.251032  -0.296666  0  3.426154  0
N  N49  1  0.79374964  0.10528229  0.87903781  1  0  -0.335742  0  3.159467  0  0  -0.305554  0  3.439404  0  0  -0.318205  0  3.458975  0  0  -0.251001  -0.296551  0  3.425859  0
N  N50  1  0.38931541  0.17645848  0.04668998  1  0  -0.074452  0  2.986148  0  0  -0.054542  0  3.270348  0  0  -0.056968  0  3.282776  0  0  -0.073306  -0.052225  0  3.261786  0
N  N51  1  0.88932078  0.17646731  0.95331491  1  0  -0.074508  0  2.986155  0  0  -0.054608  0  3.270331  0  0  -0.057036  0  3.282759  0  0  -0.073317  -0.052289  0  3.261772  0
N  N52  1  0.42311106  0.08785532  0.98039404  1  0  -0.067931  0  3.038582  0  0  -0.043115  0  3.320718  0  0  -0.044947  0  3.331471  0  0  -0.075554  -0.041806  0  3.313492  0
N  N53  1  0.92312640  0.08786654  0.01960649  1  0  -0.067911  0  3.038383  0  0  -0.043058  0  3.320489  0  0  -0.044887  0  3.331241  0  0  -0.075553  -0.041754  0  3.31327  0
N  N54  1  0.34736883  0.95873861  0.00813375  1  0  -0.254481  0  3.03546  0  0  -0.219858  0  3.297547  0  0  -0.229107  0  3.309668  0  0  -0.196313  -0.213267  0  3.28957  0
N  N55  1  0.84737295  0.95874853  0.99186945  1  0  -0.254414  0  3.034811  0  0  -0.219827  0  3.296932  0  0  -0.229077  0  3.309054  0  0  -0.196169  -0.213238  0  3.288961  0
N  N56  1  0.72920184  0.33288128  0.22750960  1  0  -0.391573  0  3.166225  0  0  -0.365876  0  3.448805  0  0  -0.377906  0  3.464722  0  0  -0.306312  -0.356573  0  3.437214  0
N  N57  1  0.22920394  0.33288929  0.77248809  1  0  -0.39136  0  3.165843  0  0  -0.365667  0  3.448417  0  0  -0.377697  0  3.464336  0  0  -0.306211  -0.356352  0  3.436826  0
N  N58  1  0.76241442  0.21710550  0.25728030  1  0  -0.03968  0  3.057024  0  0  -0.003465  0  3.33997  0  0  -0.006084  0  3.351452  0  0  -0.068271  -0.001622  0  3.331956  0
N  N59  1  0.26242062  0.21711444  0.74272316  1  0  -0.03987  0  3.056779  0  0  -0.003686  0  3.339786  0  0  -0.006302  0  3.351265  0  0  -0.068397  -0.001845  0  3.331772  0
N  N60  1  0.63421864  0.12516632  0.29088878  1  0  -0.031212  0  2.855927  0  0  -0.038552  0  3.140127  0  0  -0.034847  0  3.149852  0  0  -0.078874  -0.040891  0  3.134101  0
N  N61  1  0.13421939  0.12516809  0.70912545  1  0  -0.031069  0  2.855894  0  0  -0.038397  0  3.140085  0  0  -0.03469  0  3.149805  0  0  -0.07879  -0.040737  0  3.13406  0
N  N62  1  0.51495100  0.18150706  0.28455156  1  0  -0.376145  0  3.238821  0  0  -0.337765  0  3.523601  0  0  -0.352568  0  3.542846  0  0  -0.286675  -0.327434  0  3.510511  0
N  N63  1  0.01495201  0.18151300  0.71544791  1  0  -0.376098  0  3.238878  0  0  -0.337716  0  3.523642  0  0  -0.352518  0  3.542881  0  0  -0.286565  -0.327387  0  3.510551  0
O  O64  1  0.82403796  0.57215500  0.36495604  1  0  -0.904308  0  1.867147  0  0  -0.859958  0  2.049099  0  0  -0.879596  0  2.017775  0  0  -0.627883  -0.845595  0  2.072317  0
O  O65  1  0.32403812  0.57216508  0.63503851  1  0  -0.904375  0  1.867202  0  0  -0.860033  0  2.049054  0  0  -0.879677  0  2.017754  0  0  -0.627964  -0.845657  0  2.072274  0
O  O66  1  0.81963528  0.79019105  0.25520667  1  0  -0.896274  0  1.832636  0  0  -0.855458  0  2.007958  0  0  -0.873274  0  1.975464  0  0  -0.610992  -0.842063  0  2.032225  0
O  O67  1  0.31963961  0.79019795  0.74479080  1  0  -0.896306  0  1.832798  0  0  -0.855519  0  2.008013  0  0  -0.873329  0  1.975519  0  0  -0.611048  -0.842125  0  2.032314  0
O  O68  1  0.90406745  0.45488270  0.02363623  1  0  -0.904377  0  1.853743  0  0  -0.861984  0  2.039106  0  0  -0.880146  0  2.005248  0  0  -0.629922  -0.848454  0  2.064416  0
O  O69  1  0.40405987  0.45488378  0.97635986  1  0  -0.904299  0  1.853747  0  0  -0.861927  0  2.039076  0  0  -0.88009  0  2.00522  0  0  -0.629931  -0.848378  0  2.064404  0
O  O70  1  0.07814381  0.51555378  0.23409252  1  0  -0.920911  0  1.879878  0  0  -0.881119  0  2.075086  0  0  -0.898974  0  2.040709  0  0  -0.64873  -0.867587  0  2.099465  0
O  O71  1  0.57814904  0.51556147  0.76590268  1  0  -0.920817  0  1.879811  0  0  -0.881035  0  2.075087  0  0  -0.898887  0  2.040711  0  0  -0.648742  -0.867487  0  2.099476  0
O  O72  1  0.78799054  0.69033421  0.03009917  1  0  -0.922072  0  1.921704  0  0  -0.880162  0  2.11668  0  0  -0.898952  0  2.082577  0  0  -0.663657  -0.866049  0  2.141419  0
O  O73  1  0.28799200  0.69033193  0.96989982  1  0  -0.922094  0  1.921622  0  0  -0.880222  0  2.116674  0  0  -0.89902  0  2.082557  0  0  -0.663711  -0.866095  0  2.141425  0
O  O74  1  0.01442267  0.13692302  0.21831074  1  0  -0.956021  0  2.059285  0  0  -0.904946  0  2.287459  0  0  -0.927344  0  2.25576  0  0  -0.687992  -0.888577  0  2.309464  0
O  O75  1  0.51443170  0.13694207  0.78169568  1  0  -0.956012  0  2.059204  0  0  -0.904937  0  2.287398  0  0  -0.927334  0  2.255696  0  0  -0.688022  -0.888575  0  2.309405  0
O  O76  1  0.33994745  0.98536713  0.43507456  1  0  -0.626973  0  1.969302  0  0  -0.59065  0  2.201883  0  0  -0.613933  0  2.189475  0  0  -0.352666  -0.574136  0  2.210388  0
O  O77  1  0.83996007  0.98538494  0.56492014  1  0  -0.626856  0  1.969762  0  0  -0.590578  0  2.202341  0  0  -0.613849  0  2.189921  0  0  -0.3527  -0.574072  0  2.21085  0
O  O78  1  0.51829091  0.98881984  0.56479032  1  0  -0.650425  0  1.968139  0  0  -0.606167  0  2.204432  0  0  -0.630916  0  2.191965  0  0  -0.366894  -0.588385  0  2.212933  0
O  O79  1  0.01830480  0.98883572  0.43521429  1  0  -0.650561  0  1.967613  0  0  -0.606323  0  2.203852  0  0  -0.631077  0  2.19138  0  0  -0.367031  -0.588537  0  2.212356  0
O  O80  1  0.13092878  0.89930193  0.25015329  1  0  -0.651612  0  2.066093  0  0  -0.595629  0  2.300971  0  0  -0.621539  0  2.288409  0  0  -0.343203  -0.577264  0  2.309254  0
O  O81  1  0.63093378  0.89931795  0.74984488  1  0  -0.651642  0  2.066172  0  0  -0.595508  0  2.301068  0  0  -0.621407  0  2.288496  0  0  -0.343045  -0.577142  0  2.309349  0
O  O82  1  0.08409360  0.74939633  0.11524957  1  0  -0.683917  0  2.045118  0  0  -0.62967  0  2.279179  0  0  -0.655598  0  2.266817  0  0  -0.363998  -0.611037  0  2.28725  0
O  O83  1  0.58410176  0.74940089  0.88474932  1  0  -0.68425  0  2.044603  0  0  -0.629825  0  2.278653  0  0  -0.655755  0  2.266289  0  0  -0.364097  -0.611179  0  2.286733  0
O  O84  1  0.56293584  0.51785823  0.17483038  1  0  -0.707997  0  1.948724  0  0  -0.662862  0  2.179115  0  0  -0.686432  0  2.164753  0  0  -0.367278  -0.645509  0  2.188668  0
O  O85  1  0.06293905  0.51787458  0.82516728  1  0  -0.708063  0  1.948467  0  0  -0.662928  0  2.178833  0  0  -0.686505  0  2.164499  0  0  -0.367295  -0.645559  0  2.188383  0
O  O86  1  0.34032855  0.36991156  0.24241087  1  0  -0.6284  0  1.955957  0  0  -0.586279  0  2.190977  0  0  -0.610773  0  2.178815  0  0  -0.325137  -0.568923  0  2.198988  0
O  O87  1  0.84033387  0.36992237  0.75758777  1  0  -0.628364  0  1.955896  0  0  -0.586274  0  2.190969  0  0  -0.610763  0  2.178812  0  0  -0.325122  -0.56892  0  2.19898  0
