# generated using pymatgen
data_Co2H14C24N4Cl4O9
_symmetry_space_group_name_H-M   'P 1'
_cell_length_a   11.13590472
_cell_length_b   11.13618935
_cell_length_c   14.46069936
_cell_angle_alpha   109.69137889
_cell_angle_beta   109.69136488
_cell_angle_gamma   95.40554581
_symmetry_Int_Tables_number   1
_chemical_formula_structural   Co2H14C24N4Cl4O9
_chemical_formula_sum   'Co4 H28 C48 N8 Cl8 O18'
_cell_volume   1545.41821225
_cell_formula_units_Z   2
loop_
 _symmetry_equiv_pos_site_id
 _symmetry_equiv_pos_as_xyz
  1  'x, y, z'
loop_
 _atom_site_type_symbol
 _atom_site_label
 _atom_site_symmetry_multiplicity
 _atom_site_fract_x
 _atom_site_fract_y
 _atom_site_fract_z
 _atom_site_occupancy
 _atom_site_pbe_bader_charge
 _atom_site_pbe_bader_spin_density
 _atom_site_pbe_cm5_charge
 _atom_site_pbe_ddec_charge
 _atom_site_pbe_ddec_spin_density
 _atom_site_pbe_ddec_sum_bond_order
 _atom_site_pbe_magmom
Co  Co0  1  0.53151352  0.78406119  0.79386788  1  1.296898  2.607731  0.673305  0.917216  2.830761  2.410372  2.59
Co  Co1  1  0.71593499  0.96850009  0.70613640  1  1.297181  2.607691  0.673356  0.917263  2.830713  2.410507  2.59
Co  Co2  1  0.46848799  0.21593335  0.20613974  1  1.296951  2.60769  0.673343  0.917251  2.830727  2.410848  2.59
Co  Co3  1  0.28407242  0.03151111  0.29386740  1  1.296575  2.607741  0.673157  0.917071  2.830732  2.410125  2.59
H  H4  1  0.91912444  0.19725970  0.07004711  1  0.135782  1.6e-05  0.114525  0.140218  -0.000229  1.002117  0.0
H  H5  1  0.30275014  0.58087598  0.42995388  1  0.135577  1.5e-05  0.114537  0.14027  -0.000229  1.002205  0.0
H  H6  1  0.08087316  0.80274635  0.92995211  1  0.135664  1.5e-05  0.114547  0.14029  -0.000229  1.002164  0.0
H  H7  1  0.69725140  0.41912240  0.57004091  1  0.135688  1.6e-05  0.114556  0.140256  -0.000229  1.002167  0.0
H  H8  1  0.76846619  0.31581394  0.31886135  1  0.121706  0.00168  0.120719  0.108128  0.000321  1.001966  0.001
H  H9  1  0.18419353  0.73152797  0.18114731  1  0.12185  0.001679  0.120724  0.108119  0.00032  1.002049  0.001
H  H10  1  0.23152651  0.68419285  0.68113956  1  0.121673  0.00168  0.120724  0.108153  0.000321  1.001872  0.001
H  H11  1  0.81580409  0.26846949  0.81884760  1  0.121902  0.001679  0.12072  0.108108  0.00032  1.002105  0.001
H  H12  1  0.50430989  0.11828063  0.00497388  1  0.12661  0.001866  0.119007  0.098572  0.000582  1.03435  0.001
H  H13  1  0.38172808  0.99568441  0.49503330  1  0.124867  0.001867  0.118982  0.098546  0.000582  1.034312  0.001
H  H14  1  0.49568379  0.88171877  0.99502328  1  0.12574  0.001867  0.118999  0.098592  0.000582  1.034401  0.001
H  H15  1  0.61827345  0.00431396  0.50496910  1  0.125412  0.001867  0.119  0.09856  0.000582  1.034298  0.001
H  H16  1  0.42845347  0.54985211  0.58765822  1  0.137216  0.001762  0.119902  0.099071  0.000636  1.044822  0.001
H  H17  1  0.95014502  0.07153675  0.91234017  1  0.137059  0.001761  0.119906  0.099147  0.000636  1.044808  0.001
H  H18  1  0.57154512  0.45014462  0.41234367  1  0.136995  0.001761  0.119923  0.099135  0.000636  1.044843  0.001
H  H19  1  0.04985356  0.92845330  0.08765998  1  0.137227  0.00176  0.119895  0.099004  0.000636  1.044802  0.001
H  H20  1  0.56139670  0.58742363  0.90286327  1  0.122387  0.001527  0.11532  0.102119  0.000251  1.020806  0.001
H  H21  1  0.91257558  0.93859924  0.59712951  1  0.122396  0.001526  0.115315  0.102186  0.00025  1.020869  0.001
H  H22  1  0.43859797  0.41257314  0.09713139  1  0.12245  0.001526  0.11533  0.102203  0.000251  1.020798  0.001
H  H23  1  0.08742006  0.06139871  0.40286779  1  0.122935  0.001525  0.115359  0.102239  0.000251  1.020849  0.001
H  H24  1  0.39176712  0.19890536  0.65021459  1  0.124318  5.9e-05  0.108778  0.127738  -0.000188  1.012054  0.0
H  H25  1  0.30110324  0.10823467  0.84979187  1  0.124299  5.9e-05  0.108812  0.127815  -0.000188  1.011963  0.0
H  H26  1  0.60823244  0.80109540  0.34979068  1  0.124377  5.8e-05  0.108789  0.127744  -0.000188  1.012009  0.0
H  H27  1  0.69889829  0.89176561  0.15021171  1  0.124236  5.9e-05  0.108812  0.127847  -0.000187  1.011986  0.0
H  H28  1  0.77005913  0.80773423  0.81706042  1  0.64623  0.000398  0.285058  0.375632  0.000442  0.980306  0.001
H  H29  1  0.69224515  0.72991729  0.68292631  1  0.645964  0.0004  0.285047  0.375651  0.000443  0.980322  0.001
H  H30  1  0.22992083  0.19225051  0.18292659  1  0.646006  0.000399  0.285045  0.375628  0.000443  0.980332  0.001
H  H31  1  0.30773872  0.27007121  0.31707100  1  0.646133  0.000399  0.285064  0.375617  0.000443  0.980368  0.001
C  C32  1  0.66883410  0.06995472  0.90535547  1  1.607934  0.009927  0.216906  0.586278  0.006988  4.183872  0.007
C  C33  1  0.43007176  0.83116612  0.59466726  1  1.608488  0.009932  0.216904  0.586265  0.006991  4.183878  0.007
C  C34  1  0.33118117  0.93007550  0.09465117  1  1.608702  0.009927  0.216964  0.58637  0.006988  4.18381  0.007
C  C35  1  0.56995038  0.16885616  0.40534326  1  1.608843  0.009919  0.216995  0.586404  0.006983  4.184283  0.007
C  C36  1  0.70694618  0.14998851  0.02224343  1  0.043532  0.014732  -0.011553  -0.054805  0.007705  3.955914  0.012
C  C37  1  0.35004557  0.79305680  0.47777409  1  0.04461  0.014731  -0.011363  -0.054366  0.007704  3.955917  0.012
C  C38  1  0.29306517  0.85003888  0.97776076  1  0.04477  0.01473  -0.011376  -0.054465  0.007704  3.956134  0.012
C  C39  1  0.64997067  0.20694979  0.52223289  1  0.044234  0.014734  -0.011405  -0.054427  0.007706  3.95576  0.012
C  C40  1  0.83725051  0.20445519  0.09543166  1  0.007511  -0.013309  -0.069874  -0.127071  -0.014501  3.892192  -0.008
C  C41  1  0.29556610  0.66275613  0.40458461  1  0.006708  -0.013293  -0.070027  -0.127369  -0.014485  3.892773  -0.008
C  C42  1  0.16275690  0.79556268  0.90457872  1  0.006559  -0.013307  -0.070002  -0.12729  -0.014499  3.892634  -0.008
C  C43  1  0.70444327  0.33724789  0.59542337  1  0.006582  -0.013308  -0.069946  -0.127236  -0.014499  3.89264  -0.008
C  C44  1  0.85930974  0.26321736  0.20360182  1  0.030759  0.006225  0.014851  0.101154  0.002926  4.064356  0.005
C  C45  1  0.23680530  0.64068221  0.29641249  1  0.030513  0.006221  0.014988  0.101348  0.002924  4.06423  0.005
C  C46  1  0.14068197  0.73679587  0.79640396  1  0.031115  0.006226  0.01492  0.101184  0.002926  4.064212  0.005
C  C47  1  0.76320507  0.35931347  0.70358804  1  0.030806  0.006225  0.014944  0.101321  0.002926  4.064416  0.005
C  C48  1  0.75375912  0.27140158  0.23505250  1  0.543591  -0.009452  0.042149  0.018239  -0.0105  3.92217  -0.006
C  C49  1  0.22860686  0.74622237  0.26495302  1  0.543688  -0.009442  0.04222  0.018375  -0.01049  3.922347  -0.006
C  C50  1  0.24622769  0.72860002  0.76494691  1  0.54337  -0.009451  0.042303  0.018519  -0.010499  3.922169  -0.006
C  C51  1  0.77139075  0.25376936  0.73504455  1  0.543687  -0.009456  0.042261  0.018431  -0.010504  3.922194  -0.006
C  C52  1  0.60642951  0.16048471  0.05969900  1  0.489878  -0.007232  0.046085  0.064107  -0.007717  3.89881  -0.005
C  C53  1  0.33954203  0.89356187  0.44031605  1  0.491433  -0.00722  0.045982  0.063961  -0.007702  3.899045  -0.005
C  C54  1  0.39356908  0.83952347  0.94030104  1  0.490438  -0.007224  0.046042  0.063965  -0.007707  3.899168  -0.005
C  C55  1  0.66046048  0.10643673  0.55968735  1  0.49074  -0.007231  0.045969  0.06394  -0.007715  3.89903  -0.005
C  C56  1  0.33935103  0.29040004  0.48493983  1  1.515486  0.001147  0.212505  0.57876  0.000172  4.185606  0.0
C  C57  1  0.20964194  0.16065237  0.01505503  1  1.518269  0.00115  0.212631  0.57927  0.000175  4.184949  0.0
C  C58  1  0.66064854  0.70960455  0.51506090  1  1.515651  0.001151  0.212527  0.57873  0.000175  4.185291  0.0
C  C59  1  0.79036647  0.83933618  0.98493899  1  1.517218  0.001147  0.212592  0.578918  0.000172  4.18491  0.0
C  C60  1  0.40021963  0.36523549  0.60428398  1  0.092583  0.00971  -0.011736  -0.057164  0.004989  3.95514  0.008
C  C61  1  0.13476717  0.09977236  0.89570993  1  0.086414  0.00971  -0.011661  -0.057122  0.004988  3.954957  0.008
C  C62  1  0.59978191  0.63475431  0.39571134  1  0.092288  0.009711  -0.011824  -0.057246  0.004989  3.954953  0.008
C  C63  1  0.86522456  0.90020846  0.10427774  1  0.092296  0.009706  -0.011714  -0.057197  0.004986  3.955195  0.008
C  C64  1  0.44131673  0.50137709  0.64289005  1  0.469236  -0.006099  0.050301  0.076152  -0.006801  3.888541  -0.004
C  C65  1  0.99861949  0.05867623  0.85710940  1  0.469455  -0.006107  0.050302  0.075964  -0.006809  3.888327  -0.004
C  C66  1  0.55868971  0.49861194  0.35710843  1  0.469353  -0.006107  0.050222  0.075844  -0.006808  3.888462  -0.004
C  C67  1  0.00137223  0.94131126  0.14288554  1  0.469278  -0.006098  0.050346  0.076385  -0.0068  3.888292  -0.004
C  C68  1  0.51567221  0.52218204  0.81861995  1  0.550173  -0.010133  0.040926  0.016012  -0.011439  3.943328  -0.007
C  C69  1  0.97780823  0.98432123  0.68137462  1  0.549942  -0.010138  0.040952  0.015977  -0.011445  3.943293  -0.007
C  C70  1  0.48432833  0.47780466  0.18137915  1  0.549904  -0.010139  0.040895  0.015883  -0.011445  3.943402  -0.007
C  C71  1  0.02218250  0.01567079  0.31862469  1  0.549553  -0.010132  0.040889  0.015939  -0.011438  3.943368  -0.007
C  C72  1  0.47959825  0.38627051  0.78564239  1  0.054299  0.005669  0.014905  0.100265  0.002589  4.055995  0.005
C  C73  1  0.11372169  0.02039596  0.71435402  1  0.054447  0.005669  0.014855  0.100107  0.002589  4.056131  0.005
C  C74  1  0.52039935  0.61371264  0.21435433  1  0.054994  0.005671  0.014938  0.100178  0.00259  4.055854  0.005
C  C75  1  0.88626708  0.97959847  0.28564333  1  0.0543  0.005666  0.014948  0.100398  0.002587  4.055893  0.005
C  C76  1  0.42047070  0.30510896  0.67715742  1  -0.008187  -0.013708  -0.069409  -0.119153  -0.014799  3.909027  -0.008
C  C77  1  0.19489002  0.07952251  0.82283627  1  -0.002177  -0.013716  -0.069474  -0.119261  -0.014809  3.909043  -0.008
C  C78  1  0.57952985  0.69488633  0.32284045  1  -0.008073  -0.013722  -0.069389  -0.119058  -0.014815  3.908642  -0.008
C  C79  1  0.80510661  0.92047091  0.17715872  1  -0.007987  -0.013705  -0.06945  -0.11938  -0.014796  3.909168  -0.008
N  N80  1  0.62914945  0.22135585  0.16342119  1  -1.239536  0.059797  -0.324008  -0.21663  0.031593  3.604283  0.053
N  N81  1  0.27865845  0.87083208  0.33659027  1  -1.239419  0.059791  -0.324033  -0.216833  0.031586  3.604634  0.053
N  N82  1  0.37083638  0.77863883  0.83657823  1  -1.23922  0.059795  -0.324168  -0.216918  0.031589  3.604837  0.053
N  N83  1  0.72133915  0.12916155  0.66341057  1  -1.239358  0.059797  -0.324107  -0.216898  0.03159  3.604587  0.053
N  N84  1  0.49663322  0.57860685  0.74752610  1  -1.239916  0.062376  -0.322732  -0.236946  0.033364  3.60159  0.053
N  N85  1  0.92137901  0.00335912  0.75246909  1  -1.239852  0.062346  -0.322778  -0.236856  0.033348  3.60141  0.053
N  N86  1  0.50336733  0.42137127  0.25246939  1  -1.239972  0.062367  -0.322669  -0.236675  0.033359  3.601368  0.053
N  N87  1  0.07860878  0.99662840  0.24752691  1  -1.239687  0.062342  -0.322693  -0.237036  0.033348  3.601416  0.053
Cl  Cl88  1  0.01613027  0.32182519  0.30150917  1  -0.176927  0.00305  0.011071  -0.051309  0.001572  1.597325  0.002
Cl  Cl89  1  0.17819495  0.48386222  0.19850260  1  -0.177306  0.003049  0.010993  -0.0514  0.001572  1.597177  0.002
Cl  Cl90  1  0.98385064  0.67818932  0.69849897  1  -0.177026  0.00305  0.011003  -0.051378  0.001572  1.597315  0.002
Cl  Cl91  1  0.82179287  0.51613773  0.80147797  1  -0.177242  0.00305  0.011028  -0.051401  0.001572  1.597411  0.002
Cl  Cl92  1  0.51055027  0.32082090  0.88180939  1  -0.207492  0.002494  0.015863  -0.054067  0.001212  1.54903  0.002
Cl  Cl93  1  0.17918651  0.98944419  0.61819930  1  -0.207675  0.002495  0.015876  -0.054013  0.001213  1.549138  0.002
Cl  Cl94  1  0.48943753  0.67916185  0.11818675  1  -0.207676  0.002496  0.015813  -0.054073  0.001213  1.548936  0.002
Cl  Cl95  1  0.82082383  0.01056482  0.38181645  1  -0.207634  0.002493  0.015831  -0.054118  0.001212  1.548958  0.002
O  O96  1  0.56145287  0.98381569  0.85988647  1  -1.158248  0.07103  -0.309775  -0.552534  0.036339  2.400472  0.058
O  O97  1  0.51622034  0.93855298  0.64012329  1  -1.158639  0.071084  -0.309766  -0.552497  0.036373  2.400271  0.058
O  O98  1  0.43855455  0.01623081  0.14012445  1  -1.158594  0.071073  -0.3098  -0.552505  0.036367  2.400294  0.058
O  O99  1  0.48379593  0.06148129  0.35987914  1  -1.158367  0.071095  -0.309801  -0.552557  0.036376  2.400885  0.058
O  O100  1  0.74592944  0.09177944  0.86177371  1  -1.158226  0.083268  -0.298806  -0.539098  0.042978  2.350073  0.07
O  O101  1  0.40820983  0.75407871  0.63823223  1  -1.158472  0.083248  -0.298777  -0.539133  0.042969  2.350515  0.07
O  O102  1  0.25408291  0.90819955  0.13820917  1  -1.158672  0.083242  -0.298858  -0.539296  0.04297  2.350316  0.07
O  O103  1  0.59179857  0.24594035  0.36177042  1  -1.158777  0.083255  -0.298863  -0.53929  0.042975  2.350625  0.07
O  O104  1  0.32761722  0.35851469  0.42872825  1  -1.157541  0.00412  -0.311768  -0.530486  0.001615  2.198293  0.003
O  O105  1  0.14152189  0.17238749  0.07126375  1  -1.159336  0.004126  -0.311947  -0.530824  0.001617  2.198146  0.003
O  O106  1  0.67238628  0.64148701  0.57127068  1  -1.157677  0.004124  -0.311797  -0.530514  0.001617  2.198202  0.003
O  O107  1  0.85848456  0.82760346  0.92872762  1  -1.158529  0.004125  -0.311888  -0.530578  0.001617  2.197831  0.003
O  O108  1  0.30649702  0.16551067  0.44951964  1  -1.140162  0.061576  -0.310132  -0.564035  0.032032  2.332786  0.053
O  O109  1  0.33453294  0.19352027  0.05049208  1  -1.141002  0.061579  -0.310163  -0.564232  0.032037  2.332776  0.053
O  O110  1  0.69351626  0.83449807  0.55050164  1  -1.1403  0.061592  -0.310172  -0.564005  0.032038  2.332715  0.053
O  O111  1  0.66547055  0.80646998  0.94950594  1  -1.140839  0.061591  -0.310125  -0.564062  0.032042  2.332687  0.053
O  O112  1  0.69518797  0.80478704  0.74999688  1  -1.259089  0.099547  -0.56473  -0.812672  0.054241  2.414964  0.083
O  O113  1  0.30480179  0.19521335  0.24999813  1  -1.259096  0.099555  -0.564691  -0.812555  0.05424  2.414772  0.083
