# generated using pymatgen
data_LiH4C5N3O5
_symmetry_space_group_name_H-M   'P 1'
_cell_length_a   9.37292189
_cell_length_b   12.42744536
_cell_length_c   12.81000000
_cell_angle_alpha   90.00000000
_cell_angle_beta   90.00000000
_cell_angle_gamma   90.00000000
_symmetry_Int_Tables_number   1
_chemical_formula_structural   LiH4C5N3O5
_chemical_formula_sum   'Li8 H32 C40 N24 O40'
_cell_volume   1492.12769036
_cell_formula_units_Z   8
loop_
 _symmetry_equiv_pos_site_id
 _symmetry_equiv_pos_as_xyz
  1  'x, y, z'
loop_
 _atom_site_type_symbol
 _atom_site_label
 _atom_site_symmetry_multiplicity
 _atom_site_fract_x
 _atom_site_fract_y
 _atom_site_fract_z
 _atom_site_occupancy
 _atom_site_hle17_bader_spin_density
 _atom_site_hle17_ddec_charge
 _atom_site_hle17_ddec_spin_density
 _atom_site_hle17_ddec_sum_bond_order
 _atom_site_hle17_magmom
 _atom_site_hse06_10hf_bader_spin_density
 _atom_site_hse06_10hf_ddec_charge
 _atom_site_hse06_10hf_ddec_spin_density
 _atom_site_hse06_10hf_ddec_sum_bond_order
 _atom_site_hse06_10hf_magmom
 _atom_site_hse06_bader_spin_density
 _atom_site_hse06_ddec_charge
 _atom_site_hse06_ddec_spin_density
 _atom_site_hse06_ddec_sum_bond_order
 _atom_site_hse06_magmom
 _atom_site_pbe_bader_charge
 _atom_site_pbe_bader_spin_density
 _atom_site_pbe_cm5_charge
 _atom_site_pbe_ddec_charge
 _atom_site_pbe_ddec_spin_density
 _atom_site_pbe_ddec_sum_bond_order
 _atom_site_pbe_magmom
Li  Li0  1  0.47693452  0.39288042  0.61073849  1  0  0.855943  0  0.390978  0  0  0.804008  0  0.51786  0  0  0.815381  0  0.498593  0  0.875116  0  0.490989  0.795839  0  0.531564  0
Li  Li1  1  0.52306421  0.10711856  0.11073927  1  0  0.855966  0  0.390919  0  0  0.804026  0  0.517812  0  0  0.815397  0  0.498544  0  0.875104  0  0.490981  0.795858  0  0.531516  0
Li  Li2  1  0.97693655  0.60711834  0.88926151  1  0  0.855964  0  0.390932  0  0  0.804029  0  0.517828  0  0  0.815399  0  0.498561  0  0.875103  0  0.490993  0.79586  0  0.531532  0
Li  Li3  1  0.02306218  0.89288021  0.38926151  1  0  0.855961  0  0.390938  0  0  0.80402  0  0.517831  0  0  0.81539  0  0.498565  0  0.875107  0  0.490986  0.795851  0  0.531536  0
Li  Li4  1  0.52306314  0.60711834  0.38926151  1  0  0.855957  0  0.390946  0  0  0.80401  0  0.517853  0  0  0.81538  0  0.498586  0  0.875104  0  0.490981  0.79584  0  0.531558  0
Li  Li5  1  0.47693772  0.89287940  0.88926073  1  0  0.855973  0  0.390894  0  0  0.804042  0  0.517772  0  0  0.815413  0  0.498505  0  0.875115  0  0.490994  0.795875  0  0.531474  0
Li  Li6  1  0.02306538  0.39288042  0.11073927  1  0  0.855949  0  0.390968  0  0  0.804018  0  0.517844  0  0  0.815391  0  0.498575  0  0.875104  0  0.490996  0.795849  0  0.531548  0
Li  Li7  1  0.97693549  0.10711856  0.61073927  1  0  0.855967  0  0.390917  0  0  0.80403  0  0.517805  0  0  0.815401  0  0.498538  0  0.875108  0  0.490984  0.795862  0  0.531509  0
H  H8  1  0.13832186  0.48356117  0.64757689  1  0  0.114341  0  0.94736  0  0  0.116262  0  1.018611  0  0  0.120594  0  1.013689  0  0.226387  0  0.13734  0.113207  0  1.021987  0
H  H9  1  0.86167580  0.01643540  0.14757455  1  0  0.114335  0  0.94737  0  0  0.116272  0  1.018596  0  0  0.120596  0  1.013687  0  0.226373  0  0.137325  0.113216  0  1.021974  0
H  H10  1  0.63832283  0.51643840  0.85242311  1  0  0.114331  0  0.947362  0  0  0.116256  0  1.018603  0  0  0.120583  0  1.013685  0  0.226374  0  0.13733  0.113201  0  1.021979  0
H  H11  1  0.36167377  0.98356417  0.35242545  1  0  0.114323  0  0.947373  0  0  0.116252  0  1.018615  0  0  0.120577  0  1.013697  0  0.226353  0  0.137321  0.113196  0  1.021992  0
H  H12  1  0.86167687  0.51643518  0.35242545  1  0  0.114313  0  0.94736  0  0  0.116263  0  1.018596  0  0  0.120589  0  1.013679  0  0.226312  0  0.137334  0.113207  0  1.021973  0
H  H13  1  0.13832506  0.98356337  0.85242467  1  0  0.114294  0  0.947393  0  0  0.116241  0  1.018621  0  0  0.120564  0  1.013713  0  0.22634  0  0.137321  0.113185  0  1.021999  0
H  H14  1  0.36168017  0.48356278  0.14757689  1  0  0.114393  0  0.947326  0  0  0.116321  0  1.018554  0  0  0.120649  0  1.013642  0  0.226413  0  0.137347  0.113266  0  1.02193  0
H  H15  1  0.63832389  0.01643540  0.64757455  1  0  0.114321  0  0.947388  0  0  0.116253  0  1.018616  0  0  0.120576  0  1.013708  0  0.226367  0  0.137321  0.113198  0  1.021993  0
H  H16  1  0.99514966  0.65531409  0.61663154  1  0  0.148201  0  0.932693  0  0  0.150192  0  0.998133  0  0  0.154782  0  0.9959  0  0.160804  0  0.126364  0.146649  0  1.000354  0
H  H17  1  0.00485548  0.84468527  0.11662763  1  0  0.148145  0  0.932582  0  0  0.150163  0  0.99802  0  0  0.154758  0  0.995786  0  0.160856  0  0.126359  0.146622  0  1.000241  0
H  H18  1  0.49514976  0.34468468  0.88337002  1  0  0.148191  0  0.932695  0  0  0.150197  0  0.998118  0  0  0.15479  0  0.995888  0  0.160788  0  0.126365  0.146653  0  1.000342  0
H  H19  1  0.50485324  0.15531269  0.38337237  1  0  0.148195  0  0.932544  0  0  0.150178  0  0.998019  0  0  0.154773  0  0.995784  0  0.160858  0  0.126352  0.146635  0  1.000241  0
H  H20  1  0.00485548  0.34468548  0.38337080  1  0  0.148184  0  0.932606  0  0  0.150219  0  0.998021  0  0  0.154815  0  0.995788  0  0.160857  0  0.126381  0.146675  0  1.000243  0
H  H21  1  0.99514432  0.15531430  0.88336924  1  0  0.148172  0  0.932593  0  0  0.15016  0  0.998063  0  0  0.154749  0  0.995829  0  0.160854  0  0.12634  0.146619  0  1.000282  0
H  H22  1  0.50485111  0.65531650  0.11662920  1  0  0.148185  0  0.932634  0  0  0.150193  0  0.99807  0  0  0.154786  0  0.995836  0  0.160775  0  0.12638  0.146649  0  1.000294  0
H  H23  1  0.49514549  0.84468527  0.61662763  1  0  0.148135  0  0.93259  0  0  0.150157  0  0.998028  0  0  0.154751  0  0.995794  0  0.160837  0  0.126356  0.146615  0  1.000247  0
H  H24  1  0.72609588  0.63557069  0.60113349  1  0  0.107743  0  0.938166  0  0  0.113304  0  0.999793  0  0  0.116647  0  0.995684  0  0.177544  0  0.133193  0.110838  0  1.002782  0
H  H25  1  0.27390712  0.86443671  0.10113037  1  0  0.107827  0  0.938062  0  0  0.11336  0  0.999715  0  0  0.116701  0  0.995611  0  0.177813  0  0.13321  0.110897  0  1.002699  0
H  H26  1  0.22609705  0.36442969  0.89886963  1  0  0.107823  0  0.938115  0  0  0.113322  0  0.999805  0  0  0.116663  0  0.995698  0  0.177481  0  0.133199  0.110856  0  1.002792  0
H  H27  1  0.77390595  0.13556205  0.39886963  1  0  0.107831  0  0.938079  0  0  0.11333  0  0.999763  0  0  0.116671  0  0.995661  0  0.177834  0  0.133212  0.110868  0  1.002744  0
H  H28  1  0.27390925  0.36443612  0.39886807  1  0  0.107794  0  0.938076  0  0  0.113321  0  0.99974  0  0  0.116662  0  0.995635  0  0.177832  0  0.133186  0.110856  0  1.002727  0
H  H29  1  0.72609268  0.13556286  0.89886729  1  0  0.107798  0  0.93811  0  0  0.113317  0  0.999778  0  0  0.116656  0  0.995676  0  0.177779  0  0.133179  0.110853  0  1.002763  0
H  H30  1  0.77390595  0.63557149  0.10113193  1  0  0.107808  0  0.938119  0  0  0.11332  0  0.99979  0  0  0.116663  0  0.995682  0  0.177503  0  0.133172  0.110854  0  1.002779  0
H  H31  1  0.22609278  0.86443671  0.60113037  1  0  0.107822  0  0.938066  0  0  0.113353  0  0.999724  0  0  0.116693  0  0.995619  0  0.177816  0  0.133208  0.11089  0  1.002707  0
H  H32  1  0.01711313  0.31636671  0.66257455  1  0  0.328084  0  0.924038  0  0  0.299225  0  0.994949  0  0  0.31102  0  0.985714  0  0.582584  0  0.313136  0.290803  0  1.001529  0
H  H33  1  0.98287920  0.18363468  0.16257689  1  0  0.328014  0  0.924061  0  0  0.29916  0  0.994959  0  0  0.310956  0  0.985727  0  0.582549  0  0.313099  0.29074  0  1.001539  0
H  H34  1  0.51711409  0.68363286  0.83742467  1  0  0.328112  0  0.923982  0  0  0.29925  0  0.994898  0  0  0.311047  0  0.985662  0  0.582595  0  0.313148  0.290829  0  1.001477  0
H  H35  1  0.48287824  0.81636488  0.33742389  1  0  0.328038  0  0.924051  0  0  0.299195  0  0.994934  0  0  0.310982  0  0.98572  0  0.582541  0  0.313097  0.290777  0  1.001508  0
H  H36  1  0.98287814  0.68363447  0.33742389  1  0  0.328034  0  0.924057  0  0  0.299199  0  0.994927  0  0  0.310987  0  0.985713  0  0.582522  0  0.313099  0.29078  0  1.001502  0
H  H37  1  0.01712273  0.81636408  0.83742311  1  0  0.328033  0  0.924012  0  0  0.299132  0  0.994998  0  0  0.310926  0  0.985769  0  0.582533  0  0.313099  0.290712  0  1.001573  0
H  H38  1  0.48288571  0.31636751  0.16257533  1  0  0.328108  0  0.923998  0  0  0.299245  0  0.994916  0  0  0.311041  0  0.98568  0  0.58259  0  0.31314  0.290824  0  1.001496  0
H  H39  1  0.51712156  0.18363549  0.66257611  1  0  0.32802  0  0.92406  0  0  0.299172  0  0.994956  0  0  0.310966  0  0.985727  0  0.582542  0  0.313088  0.290753  0  1.001532  0
C  C40  1  0.80995981  0.38501075  0.64466823  1  0  0.289166  0  3.66144  0  0  0.262884  0  3.925626  0  0  0.27406  0  3.937191  0  1.114751  0  0.277381  0.255472  0  3.918037  0
C  C41  1  0.19003572  0.11499387  0.14467057  1  0  0.28915  0  3.661347  0  0  0.262913  0  3.925387  0  0  0.274094  0  3.936959  0  1.114748  0  0.277443  0.255501  0  3.917801  0
C  C42  1  0.30995991  0.61498802  0.85533255  1  0  0.2892  0  3.661393  0  0  0.262855  0  3.925658  0  0  0.274029  0  3.937226  0  1.114889  0  0.277382  0.255443  0  3.918069  0
C  C43  1  0.69003456  0.88500570  0.35532943  1  0  0.289166  0  3.661317  0  0  0.262914  0  3.925351  0  0  0.274098  0  3.936923  0  1.11474  0  0.277478  0.255501  0  3.917763  0
C  C44  1  0.19003572  0.61499285  0.35532943  1  0  0.289082  0  3.661407  0  0  0.262841  0  3.925443  0  0  0.274023  0  3.937014  0  1.115002  0  0.277424  0.25543  0  3.917855  0
C  C45  1  0.80996514  0.88500570  0.85532943  1  0  0.289179  0  3.661258  0  0  0.262944  0  3.925274  0  0  0.274128  0  3.936845  0  1.114751  0  0.277471  0.255532  0  3.917686  0
C  C46  1  0.69003882  0.38501155  0.14466979  1  0  0.289155  0  3.661507  0  0  0.262885  0  3.92569  0  0  0.274058  0  3.937257  0  1.114986  0  0.277401  0.255473  0  3.918099  0
C  C47  1  0.30996524  0.11499306  0.64467057  1  0  0.289147  0  3.66134  0  0  0.262905  0  3.925381  0  0  0.274087  0  3.936951  0  1.115003  0  0.277436  0.255494  0  3.917795  0
C  C48  1  0.02189392  0.48500877  0.64137939  1  0  0.196589  0  3.556877  0  0  0.15131  0  3.814284  0  0  0.162463  0  3.827451  0  0.389492  0  0.098542  0.144287  0  3.805155  0
C  C49  1  0.97810481  0.01499182  0.14137861  1  0  0.196468  0  3.557005  0  0  0.1512  0  3.814413  0  0  0.162355  0  3.827576  0  0.389443  0  0.098479  0.144177  0  3.805285  0
C  C50  1  0.52189489  0.51499080  0.85861983  1  0  0.196561  0  3.556901  0  0  0.151311  0  3.814277  0  0  0.162469  0  3.827437  0  0.389486  0  0.098528  0.144289  0  3.805147  0
C  C51  1  0.47810385  0.98500695  0.35862139  1  0  0.196494  0  3.557022  0  0  0.151233  0  3.814419  0  0  0.16239  0  3.82758  0  0.389435  0  0.098485  0.14421  0  3.80529  0
C  C52  1  0.97810481  0.51499080  0.35862061  1  0  0.196631  0  3.556776  0  0  0.151309  0  3.81426  0  0  0.162467  0  3.82742  0  0.389511  0  0.098533  0.144287  0  3.805131  0
C  C53  1  0.02189712  0.98500775  0.85862061  1  0  0.196536  0  3.556941  0  0  0.151237  0  3.814374  0  0  0.162394  0  3.827534  0  0.38946  0  0.09848  0.144215  0  3.805248  0
C  C54  1  0.47810705  0.48500958  0.14137861  1  0  0.19643  0  3.556929  0  0  0.151182  0  3.814321  0  0  0.162331  0  3.827488  0  0.389449  0  0.098475  0.14416  0  3.805191  0
C  C55  1  0.52189595  0.01499182  0.64137939  1  0  0.196504  0  3.556982  0  0  0.151266  0  3.814364  0  0  0.162422  0  3.827525  0  0.389464  0  0.098505  0.144243  0  3.805235  0
C  C56  1  0.73702097  0.27620077  0.65824746  1  0  0.633861  0  3.922353  0  0  0.580115  0  4.231399  0  0  0.612326  0  4.221125  0  1.660577  0  0.236774  0.558293  0  4.237597  0
C  C57  1  0.26297776  0.22380304  0.15824902  1  0  0.633743  0  3.922769  0  0  0.580109  0  4.23157  0  0  0.612302  0  4.221318  0  1.660338  0  0.236763  0.558284  0  4.237773  0
C  C58  1  0.23702214  0.72379880  0.84175254  1  0  0.633829  0  3.922485  0  0  0.580115  0  4.2315  0  0  0.612326  0  4.221221  0  1.659853  0  0.23676  0.558292  0  4.2377  0
C  C59  1  0.76297552  0.77619653  0.34175176  1  0  0.633815  0  3.922599  0  0  0.580216  0  4.231355  0  0  0.612401  0  4.221116  0  1.660334  0  0.236799  0.558399  0  4.237549  0
C  C60  1  0.26297563  0.72380282  0.34175098  1  0  0.633855  0  3.922538  0  0  0.580236  0  4.23132  0  0  0.612428  0  4.22107  0  1.659866  0  0.236815  0.558413  0  4.23752  0
C  C61  1  0.73702417  0.77619573  0.84175098  1  0  0.633784  0  3.922642  0  0  0.580156  0  4.231445  0  0  0.612342  0  4.221202  0  1.660334  0  0.236748  0.558332  0  4.237646  0
C  C62  1  0.76297979  0.27620238  0.15824746  1  0  0.633791  0  3.922442  0  0  0.580014  0  4.231541  0  0  0.612228  0  4.221261  0  1.66064  0  0.236732  0.558193  0  4.237737  0
C  C63  1  0.23702427  0.22380304  0.65824902  1  0  0.633748  0  3.922675  0  0  0.580133  0  4.23145  0  0  0.612326  0  4.2212  0  1.659861  0  0.236774  0.558308  0  4.237654  0
C  C64  1  0.94266656  0.57759176  0.62431304  1  0  -0.141881  0  3.623485  0  0  -0.156788  0  3.884563  0  0  -0.167231  0  3.90295  0  0.008767  0  -0.050709  -0.150484  0  3.873073  0
C  C65  1  0.05733431  0.92241001  0.12431069  1  0  -0.141718  0  3.623305  0  0  -0.156674  0  3.884367  0  0  -0.167122  0  3.902758  0  0.008782  0  -0.050655  -0.150372  0  3.872881  0
C  C66  1  0.44266772  0.42240781  0.87568774  1  0  -0.141847  0  3.623489  0  0  -0.156781  0  3.884543  0  0  -0.16723  0  3.902935  0  0.008783  0  -0.050718  -0.150478  0  3.873054  0
C  C67  1  0.55733314  0.07758875  0.37568931  1  0  -0.141751  0  3.623327  0  0  -0.156681  0  3.884397  0  0  -0.167129  0  3.902785  0  0.008835  0  -0.050657  -0.150379  0  3.87291  0
C  C68  1  0.05733538  0.42240942  0.37568852  1  0  -0.141867  0  3.623334  0  0  -0.156825  0  3.884418  0  0  -0.167278  0  3.902809  0  0.008776  0  -0.050708  -0.150522  0  3.87293  0
C  C69  1  0.94266762  0.07758875  0.87568852  1  0  -0.141765  0  3.623347  0  0  -0.156689  0  3.884448  0  0  -0.167131  0  3.902834  0  0.0088  0  -0.050645  -0.150389  0  3.872964  0
C  C70  1  0.55733314  0.57759256  0.12430991  1  0  -0.14172  0  3.623371  0  0  -0.15667  0  3.884429  0  0  -0.167115  0  3.90282  0  0.008738  0  -0.050659  -0.150367  0  3.872939  0
C  C71  1  0.44266666  0.92241001  0.62431069  1  0  -0.141753  0  3.623289  0  0  -0.156728  0  3.884365  0  0  -0.167177  0  3.902755  0  0.008826  0  -0.050683  -0.150425  0  3.872877  0
C  C72  1  0.79458360  0.56651466  0.61668618  1  0  0.220011  0  3.585438  0  0  0.186436  0  3.848386  0  0  0.198322  0  3.858959  0  0.55437  0  0.103265  0.178605  0  3.84158  0
C  C73  1  0.20541620  0.93349032  0.11668384  1  0  0.219923  0  3.585391  0  0  0.186373  0  3.848356  0  0  0.198258  0  3.858937  0  0.554135  0  0.103255  0.178543  0  3.841552  0
C  C74  1  0.29458583  0.43348491  0.88331616  1  0  0.219871  0  3.585513  0  0  0.186344  0  3.848472  0  0  0.198229  0  3.859046  0  0.554174  0  0.103227  0.178513  0  3.841667  0
C  C75  1  0.70541610  0.06650924  0.38331694  1  0  0.219869  0  3.585369  0  0  0.186348  0  3.848335  0  0  0.198233  0  3.858913  0  0.553971  0  0.103238  0.178518  0  3.841529  0
C  C76  1  0.20541727  0.43348974  0.38331460  1  0  0.22001  0  3.585307  0  0  0.186469  0  3.848261  0  0  0.198354  0  3.858841  0  0.554103  0  0.103295  0.178638  0  3.841456  0
C  C77  1  0.79458360  0.06650924  0.88331460  1  0  0.219966  0  3.585377  0  0  0.186431  0  3.848329  0  0  0.198315  0  3.858913  0  0.554306  0  0.10329  0.178601  0  3.841522  0
C  C78  1  0.70541610  0.56651547  0.11668384  1  0  0.21985  0  3.585461  0  0  0.186328  0  3.848418  0  0  0.198214  0  3.858989  0  0.554176  0  0.103254  0.178497  0  3.841611  0
C  C79  1  0.29458370  0.93349032  0.61668384  1  0  0.219941  0  3.585371  0  0  0.186396  0  3.848339  0  0  0.198281  0  3.85892  0  0.554111  0  0.103266  0.178566  0  3.841534  0
N  N80  1  0.95348069  0.39003591  0.65006479  1  0  -0.263023  0  3.3646  0  0  -0.189018  0  3.580164  0  0  -0.207976  0  3.595713  0  -1.276142  0  -0.30863  -0.176493  0  3.56985  0
N  N81  1  0.04651591  0.10996629  0.15006714  1  0  -0.262791  0  3.364628  0  0  -0.188814  0  3.580138  0  0  -0.207771  0  3.59569  0  -1.276174  0  -0.308488  -0.17629  0  3.569823  0
N  N82  1  0.45348079  0.60996366  0.84993443  1  0  -0.263004  0  3.36456  0  0  -0.188996  0  3.580134  0  0  -0.207953  0  3.59568  0  -1.276132  0  -0.308587  -0.176471  0  3.569818  0
N  N83  1  0.54651474  0.89003328  0.34993286  1  0  -0.262833  0  3.364666  0  0  -0.188865  0  3.580173  0  0  -0.207817  0  3.595727  0  -1.276208  0  -0.308498  -0.176339  0  3.569858  0
N  N84  1  0.04651484  0.60996526  0.34993365  1  0  -0.262865  0  3.364512  0  0  -0.18889  0  3.580051  0  0  -0.207843  0  3.595606  0  -1.276145  0  -0.308552  -0.176366  0  3.569736  0
N  N85  1  0.95348602  0.89003248  0.84993286  1  0  -0.262833  0  3.364528  0  0  -0.188822  0  3.580079  0  0  -0.207779  0  3.595629  0  -1.276193  0  -0.308504  -0.176296  0  3.569762  0
N  N86  1  0.54651901  0.39003672  0.15006557  1  0  -0.262997  0  3.364655  0  0  -0.189009  0  3.580217  0  0  -0.207965  0  3.595767  0  -1.276139  0  -0.308608  -0.176485  0  3.569903  0
N  N87  1  0.45348506  0.10996629  0.65006714  1  0  -0.26279  0  3.364586  0  0  -0.188832  0  3.5801  0  0  -0.207789  0  3.595651  0  -1.276197  0  -0.308484  -0.176307  0  3.569786  0
N  N88  1  0.72895625  0.47089887  0.62759173  1  0  -0.366556  0  3.071097  0  0  -0.337186  0  3.351105  0  0  -0.350978  0  3.362706  0  -1.212208  0  -0.288622  -0.328098  0  3.343473  0
N  N89  1  0.27104035  0.02910574  0.12759251  1  0  -0.366706  0  3.071019  0  0  -0.337356  0  3.350999  0  0  -0.351141  0  3.362582  0  -1.21256  0  -0.288744  -0.328269  0  3.343369  0
N  N90  1  0.22895742  0.52909989  0.87240906  1  0  -0.366539  0  3.071146  0  0  -0.337145  0  3.351154  0  0  -0.350937  0  3.362755  0  -1.211996  0  -0.288615  -0.328057  0  3.343522  0
N  N91  1  0.77104025  0.97089302  0.37240827  1  0  -0.366658  0  3.070886  0  0  -0.337298  0  3.350856  0  0  -0.351083  0  3.362442  0  -1.212405  0  -0.288724  -0.32821  0  3.343227  0
N  N92  1  0.27104141  0.52910552  0.37240593  1  0  -0.3667  0  3.070994  0  0  -0.33734  0  3.350966  0  0  -0.351125  0  3.36255  0  -1.212359  0  -0.288719  -0.328252  0  3.343333  0
N  N93  1  0.72895945  0.97089302  0.87240593  1  0  -0.366709  0  3.070882  0  0  -0.337357  0  3.35086  0  0  -0.351141  0  3.362442  0  -1.212633  0  -0.288738  -0.328269  0  3.34323  0
N  N94  1  0.77104345  0.47089968  0.12759251  1  0  -0.366523  0  3.071098  0  0  -0.337159  0  3.351095  0  0  -0.350949  0  3.362693  0  -1.21219  0  -0.28863  -0.328071  0  3.343463  0
N  N95  1  0.22895955  0.02910574  0.62759251  1  0  -0.366719  0  3.071033  0  0  -0.33737  0  3.351013  0  0  -0.351155  0  3.362596  0  -1.212344  0  -0.288745  -0.328282  0  3.343383  0
N  N96  1  0.37578356  0.61707051  0.58774941  1  0  0.716174  0  4.160353  0  0  0.748684  0  4.457305  0  0  0.776202  0  4.462564  0  0.85017  0  0.105104  0.7303  0  4.453245  0
N  N97  1  0.62421623  0.88292885  0.08774941  1  0  0.716132  0  4.160469  0  0  0.74862  0  4.45743  0  0  0.776141  0  4.462682  0  0.850161  0  0.105048  0.730236  0  4.453373  0
N  N98  1  0.87578453  0.38292826  0.91225059  1  0  0.716167  0  4.160395  0  0  0.748674  0  4.45735  0  0  0.776189  0  4.46261  0  0.850187  0  0.105081  0.730287  0  4.453291  0
N  N99  1  0.12421633  0.11707072  0.41224980  1  0  0.716151  0  4.160406  0  0  0.748643  0  4.457359  0  0  0.776163  0  4.462614  0  0.850158  0  0.105064  0.73026  0  4.453302  0
N  N100  1  0.62421623  0.38292826  0.41225059  1  0  0.716182  0  4.160395  0  0  0.748659  0  4.457377  0  0  0.77618  0  4.462629  0  0.850169  0  0.105071  0.730274  0  4.453318  0
N  N101  1  0.37578356  0.11707072  0.91225059  1  0  0.716165  0  4.160355  0  0  0.748673  0  4.457312  0  0  0.776191  0  4.462569  0  0.850176  0  0.10508  0.73029  0  4.453256  0
N  N102  1  0.12421633  0.61707051  0.08775020  1  0  0.71611  0  4.160404  0  0  0.748622  0  4.457349  0  0  0.776139  0  4.462609  0  0.850164  0  0.105056  0.730237  0  4.453291  0
N  N103  1  0.87578453  0.88292885  0.58774941  1  0  0.716099  0  4.160466  0  0  0.748589  0  4.457421  0  0  0.776107  0  4.46268  0  0.850161  0  0.10507  0.730205  0  4.453363  0
O  O104  1  0.60310009  0.28329475  0.67482904  1  0  -0.668771  0  2.10208  0  0  -0.621628  0  2.344113  0  0  -0.645749  0  2.33362  0  -1.178902  0  -0.3608  -0.604646  0  2.351032  0
O  O105  1  0.39689651  0.21670826  0.17482904  1  0  -0.668665  0  2.102218  0  0  -0.621553  0  2.344195  0  0  -0.645666  0  2.333706  0  -1.178826  0  -0.360731  -0.604571  0  2.351114  0
O  O106  1  0.10310125  0.71670482  0.82517174  1  0  -0.66877  0  2.102052  0  0  -0.621608  0  2.344092  0  0  -0.645723  0  2.333596  0  -1.178892  0  -0.360797  -0.604626  0  2.351012  0
O  O107  1  0.89689641  0.78329292  0.32517174  1  0  -0.668705  0  2.102104  0  0  -0.621631  0  2.344067  0  0  -0.645735  0  2.333588  0  -1.178818  0  -0.360784  -0.604651  0  2.350986  0
O  O108  1  0.39689544  0.71670723  0.32517096  1  0  -0.668707  0  2.102096  0  0  -0.621621  0  2.344066  0  0  -0.645729  0  2.333582  0  -1.178811  0  -0.360779  -0.604639  0  2.350986  0
O  O109  1  0.60310435  0.78329131  0.82517174  1  0  -0.66869  0  2.102122  0  0  -0.621586  0  2.344097  0  0  -0.645696  0  2.33361  0  -1.178806  0  -0.360743  -0.604605  0  2.351016  0
O  O110  1  0.89689961  0.28329555  0.17482826  1  0  -0.668715  0  2.102074  0  0  -0.621566  0  2.344129  0  0  -0.645685  0  2.333632  0  -1.178905  0  -0.360788  -0.604584  0  2.351046  0
O  O111  1  0.10310445  0.21670745  0.67482904  1  0  -0.668679  0  2.102137  0  0  -0.621577  0  2.344111  0  0  -0.64569  0  2.333621  0  -1.178795  0  -0.360742  -0.604595  0  2.351032  0
O  O112  1  0.36719179  0.52584178  0.63297892  1  0  -0.557444  0  1.818766  0  0  -0.552485  0  2.060488  0  0  -0.56688  0  2.052923  0  -0.620231  0  -0.250792  -0.542162  0  2.065254  0
O  O113  1  0.63280694  0.97415757  0.13297892  1  0  -0.557385  0  1.818751  0  0  -0.552447  0  2.060505  0  0  -0.566839  0  2.052934  0  -0.620208  0  -0.250773  -0.542125  0  2.065271  0
O  O114  1  0.86719169  0.47415859  0.86702264  1  0  -0.557436  0  1.818796  0  0  -0.552468  0  2.060524  0  0  -0.56686  0  2.052957  0  -0.620215  0  -0.25077  -0.542144  0  2.065289  0
O  O115  1  0.13280811  0.02584200  0.36702108  1  0  -0.557409  0  1.818766  0  0  -0.552434  0  2.060479  0  0  -0.566824  0  2.052909  0  -0.620219  0  -0.250764  -0.542113  0  2.065245  0
O  O116  1  0.63280800  0.47415779  0.36702108  1  0  -0.557411  0  1.818782  0  0  -0.552443  0  2.06049  0  0  -0.566834  0  2.05292  0  -0.6202  0  -0.250771  -0.54212  0  2.065256  0
O  O117  1  0.36719286  0.02584119  0.86702108  1  0  -0.557412  0  1.818717  0  0  -0.552476  0  2.060469  0  0  -0.566868  0  2.052898  0  -0.620237  0  -0.250762  -0.542156  0  2.065236  0
O  O118  1  0.13280917  0.52584178  0.13297970  1  0  -0.557394  0  1.818776  0  0  -0.552438  0  2.06049  0  0  -0.566834  0  2.052925  0  -0.620232  0  -0.250756  -0.542116  0  2.065254  0
O  O119  1  0.86719276  0.97415757  0.63297892  1  0  -0.55738  0  1.818738  0  0  -0.552444  0  2.060514  0  0  -0.566836  0  2.052944  0  -0.620205  0  -0.250774  -0.542122  0  2.065279  0
O  O120  1  0.80901453  0.19221247  0.65207416  1  0  -0.624491  0  1.964929  0  0  -0.580571  0  2.200985  0  0  -0.601939  0  2.191341  0  -1.190827  0  -0.353669  -0.565614  0  2.207251  0
O  O121  1  0.19098420  0.30779294  0.15207338  1  0  -0.624521  0  1.965087  0  0  -0.580665  0  2.201087  0  0  -0.602036  0  2.191467  0  -1.19024  0  -0.353749  -0.565706  0  2.207356  0
O  O122  1  0.30901570  0.80778710  0.84792662  1  0  -0.624494  0  1.96511  0  0  -0.580567  0  2.201109  0  0  -0.60195  0  2.191493  0  -1.190206  0  -0.353666  -0.56561  0  2.207376  0
O  O123  1  0.69098517  0.69220582  0.34792584  1  0  -0.624543  0  1.965034  0  0  -0.580685  0  2.201003  0  0  -0.602055  0  2.191392  0  -1.190256  0  -0.353745  -0.565729  0  2.207269  0
O  O124  1  0.19098420  0.80779353  0.34792662  1  0  -0.624552  0  1.965048  0  0  -0.580687  0  2.20103  0  0  -0.602059  0  2.191413  0  -1.190247  0  -0.35374  -0.56573  0  2.207299  0
O  O125  1  0.80901666  0.69220662  0.84792584  1  0  -0.624541  0  1.965072  0  0  -0.580675  0  2.201047  0  0  -0.60205  0  2.191446  0  -1.190273  0  -0.353726  -0.565716  0  2.207316  0
O  O126  1  0.69098623  0.19221247  0.15207260  1  0  -0.624465  0  1.96493  0  0  -0.580526  0  2.200981  0  0  -0.601901  0  2.191348  0  -1.190868  0  -0.353656  -0.565568  0  2.207246  0
O  O127  1  0.30901570  0.30779294  0.65207416  1  0  -0.624495  0  1.965077  0  0  -0.580642  0  2.20107  0  0  -0.602012  0  2.191447  0  -1.190252  0  -0.35374  -0.565683  0  2.20734  0
O  O128  1  0.48967121  0.64280951  0.53988368  1  0  -0.547018  0  1.776821  0  0  -0.543831  0  2.011779  0  0  -0.556343  0  2.001548  0  -0.596931  0  -0.237728  -0.535434  0  2.019104  0
O  O129  1  0.51032966  0.85718985  0.03988368  1  0  -0.547029  0  1.776882  0  0  -0.543836  0  2.011827  0  0  -0.556345  0  2.001594  0  -0.596919  0  -0.237713  -0.53544  0  2.019151  0
O  O130  1  0.98967218  0.35718926  0.96011553  1  0  -0.547028  0  1.776878  0  0  -0.543835  0  2.011801  0  0  -0.556345  0  2.001571  0  -0.596938  0  -0.237719  -0.535438  0  2.019127  0
O  O131  1  0.01032869  0.14280972  0.46011632  1  0  -0.547041  0  1.776839  0  0  -0.543828  0  2.011771  0  0  -0.556339  0  2.00154  0  -0.596924  0  -0.237729  -0.535431  0  2.019096  0
O  O132  1  0.51032859  0.35718926  0.46011632  1  0  -0.547049  0  1.776883  0  0  -0.54384  0  2.011838  0  0  -0.55635  0  2.001606  0  -0.596937  0  -0.237725  -0.535443  0  2.019162  0
O  O133  1  0.48967121  0.14280972  0.96011632  1  0  -0.54704  0  1.776842  0  0  -0.543836  0  2.011772  0  0  -0.556346  0  2.001543  0  -0.596927  0  -0.237727  -0.535439  0  2.019097  0
O  O134  1  0.01032869  0.64280951  0.03988447  1  0  -0.54703  0  1.776863  0  0  -0.543827  0  2.011804  0  0  -0.556336  0  2.001573  0  -0.596927  0  -0.237719  -0.53543  0  2.01913  0
O  O135  1  0.98967111  0.85718985  0.53988368  1  0  -0.547024  0  1.776873  0  0  -0.54382  0  2.011807  0  0  -0.556329  0  2.001574  0  -0.596934  0  -0.237735  -0.535423  0  2.019131  0
O  O136  1  0.27176477  0.68053407  0.59148322  1  0  -0.440905  0  1.722904  0  0  -0.4309  0  1.928681  0  0  -0.444675  0  1.924349  0  -0.52535  0  -0.17114  -0.421356  0  1.931715  0
O  O137  1  0.72823609  0.81946609  0.09148322  1  0  -0.440903  0  1.722929  0  0  -0.430879  0  1.928722  0  0  -0.444672  0  1.924411  0  -0.525345  0  -0.171112  -0.421324  0  1.931736  0
O  O138  1  0.77176467  0.31946469  0.90851678  1  0  -0.440926  0  1.722907  0  0  -0.430918  0  1.928681  0  0  -0.444692  0  1.924348  0  -0.525357  0  -0.171154  -0.421376  0  1.931721  0
O  O139  1  0.22823619  0.18053429  0.40851678  1  0  -0.440896  0  1.722921  0  0  -0.430898  0  1.928717  0  0  -0.444689  0  1.924403  0  -0.525341  0  -0.171115  -0.421346  0  1.931735  0
O  O140  1  0.72823609  0.31946469  0.40851678  1  0  -0.440925  0  1.722905  0  0  -0.430901  0  1.928699  0  0  -0.444695  0  1.92439  0  -0.525377  0  -0.171129  -0.421357  0  1.931732  0
O  O141  1  0.27176477  0.18053429  0.90851678  1  0  -0.440917  0  1.722921  0  0  -0.430909  0  1.928707  0  0  -0.444691  0  1.924381  0  -0.525329  0  -0.171142  -0.421349  0  1.931709  0
O  O142  1  0.22823513  0.68053488  0.09148322  1  0  -0.440898  0  1.722897  0  0  -0.4309  0  1.92868  0  0  -0.444676  0  1.924349  0  -0.525345  0  -0.171139  -0.421355  0  1.931711  0
O  O143  1  0.77176467  0.81946609  0.59148400  1  0  -0.44088  0  1.722949  0  0  -0.430859  0  1.928725  0  0  -0.444644  0  1.924403  0  -0.525314  0  -0.17112  -0.421311  0  1.931752  0
