# generated using pymatgen
data_ZnH15C14(NO2)2
_symmetry_space_group_name_H-M   'P 1'
_cell_length_a   8.65819004
_cell_length_b   9.44980896
_cell_length_c   10.57392607
_cell_angle_alpha   70.00814071
_cell_angle_beta   80.28590090
_cell_angle_gamma   79.32560292
_symmetry_Int_Tables_number   1
_chemical_formula_structural   ZnH15C14(NO2)2
_chemical_formula_sum   'Zn2 H30 C28 N4 O8'
_cell_volume   793.71794257
_cell_formula_units_Z   2
loop_
 _symmetry_equiv_pos_site_id
 _symmetry_equiv_pos_as_xyz
  1  'x, y, z'
loop_
 _atom_site_type_symbol
 _atom_site_label
 _atom_site_symmetry_multiplicity
 _atom_site_fract_x
 _atom_site_fract_y
 _atom_site_fract_z
 _atom_site_occupancy
 _atom_site_pbe_bader_spin_density
 _atom_site_pbe_cm5_charge
 _atom_site_pbe_ddec_charge
 _atom_site_pbe_ddec_spin_density
 _atom_site_pbe_ddec_sum_bond_order
 _atom_site_pbe_magmom
Zn  Zn0  1  0.48069456  0.15827150  0.93173324  1  0  0.663986  0.810793  0  2.423504  0
Zn  Zn1  1  0.51930581  0.84172721  0.06826761  1  0  0.663967  0.810767  0  2.423485  0
H  H2  1  0.19692035  0.08503879  0.37515015  1  0  0.096013  0.072398  0  1.007401  0
H  H3  1  0.80308085  0.91496221  0.62485366  1  0  0.09604  0.072409  0  1.007403  0
H  H4  1  0.94314589  0.23625039  0.32804127  1  0  0.0794  0.067808  0  1.015316  0
H  H5  1  0.05685535  0.76375059  0.67195782  1  0  0.0794  0.067802  0  1.015326  0
H  H6  1  0.08586149  0.31400310  0.19209146  1  0  0.088982  0.091161  0  0.99257  0
H  H7  1  0.91414092  0.68599786  0.80790652  1  0  0.088989  0.091173  0  0.992581  0
H  H8  1  0.83412593  0.30030190  0.11006712  1  0  0.085465  0.083387  0  1.000368  0
H  H9  1  0.16587413  0.69969908  0.88993307  1  0  0.085468  0.083395  0  1.000371  0
H  H10  1  0.99829715  0.19040208  0.04909023  1  0  0.090051  0.093286  0  0.982236  0
H  H11  1  0.00170308  0.80959776  0.95090840  1  0  0.09006  0.093294  0  0.98224  0
H  H12  1  0.76190171  0.07018065  0.29708449  1  0  0.09629  0.078974  0  0.992455  0
H  H13  1  0.23809718  0.92982033  0.70291397  1  0  0.096302  0.078994  0  0.992494  0
H  H14  1  0.03623510  0.89387715  0.16545678  1  0  0.090656  0.095703  0  0.979981  0
H  H15  1  0.96376261  0.10612385  0.83454467  1  0  0.090647  0.095683  0  0.979961  0
H  H16  1  0.89530241  0.81396501  0.30041106  1  0  0.084811  0.080717  0  1.000796  0
H  H17  1  0.10469765  0.18603597  0.69958818  1  0  0.084799  0.080685  0  1.000814  0
H  H18  1  0.14255833  0.82792362  0.38663005  1  0  0.082249  0.074861  0  1.02451  0
H  H19  1  0.85743821  0.17207738  0.61337155  1  0  0.08224  0.074835  0  1.024547  0
H  H20  1  0.97555676  0.93872789  0.44422469  1  0  0.084481  0.076199  0  1.034905  0
H  H21  1  0.02444213  0.06127310  0.55577471  1  0  0.084489  0.076215  0  1.034873  0
H  H22  1  0.31228963  0.33970351  0.69409227  1  0  0.123537  0.100148  0  1.001932  0
H  H23  1  0.68771075  0.66029520  0.30590763  1  0  0.123547  0.100154  0  1.001915  0
H  H24  1  0.30708526  0.60144798  0.51989730  1  0  0.114486  0.122009  0  0.992559  0
H  H25  1  0.69291496  0.39855187  0.48010322  1  0  0.114492  0.122008  0  0.992577  0
H  H26  1  0.60547807  0.70655370  0.75639428  1  0  0.11643  0.131777  0  1.025796  0
H  H27  1  0.39451995  0.29344502  0.24360783  1  0  0.116435  0.131789  0  1.02577  0
H  H28  1  0.60836527  0.43742040  0.91239448  1  0  0.126254  0.102318  0  0.992707  0
H  H29  1  0.39163129  0.56258058  0.08760334  1  0  0.126273  0.102327  0  0.992736  0
H  H30  1  0.40220042  0.85102342  0.43022976  1  0  0.122254  0.097671  0  1.020651  0
H  H31  1  0.59779861  0.14897644  0.56977186  1  0  0.122249  0.097655  0  1.020638  0
C  C32  1  0.27910817  0.05222814  0.18850712  1  0  0.216568  0.604754  0  4.110833  0
C  C33  1  0.72089454  0.94777056  0.81149436  1  0  0.216554  0.604769  0  4.110707  0
C  C34  1  0.13990053  0.07180167  0.29454317  1  0  -0.093159  -0.118985  0  3.872991  0
C  C35  1  0.86010187  0.92819931  0.70545765  1  0  -0.093151  -0.11895  0  3.872954  0
C  C36  1  0.02211179  0.21530546  0.24087571  1  0  -0.168848  -0.157293  0  3.932394  0
C  C37  1  0.97788811  0.78469665  0.75912320  1  0  -0.168882  -0.157321  0  3.932483  0
C  C38  1  0.92198607  0.19878240  0.14160338  1  0  -0.168383  -0.15789  0  3.920343  0
C  C39  1  0.07801415  0.80121744  0.85839619  1  0  -0.168399  -0.157932  0  3.920395  0
C  C40  1  0.83862539  0.05699214  0.20577648  1  0  -0.091204  -0.107898  0  3.87472  0
C  C41  1  0.16137600  0.94300770  0.79422293  1  0  -0.0912  -0.107875  0  3.874718  0
C  C42  1  0.95796157  0.91357711  0.25324426  1  0  -0.169062  -0.153723  0  3.918867  0
C  C43  1  0.04203716  0.08642502  0.74675576  1  0  -0.169029  -0.153646  0  3.918773  0
C  C44  1  0.05562278  0.92983767  0.35381986  1  0  -0.170712  -0.16389  0  3.940652  0
C  C45  1  0.94437696  0.07016559  0.64617967  1  0  -0.170711  -0.163884  0  3.940618  0
C  C46  1  0.72191746  0.04121297  0.12009827  1  0  0.218376  0.60932  0  4.11415  0
C  C47  1  0.27808511  0.95878685  0.87990004  1  0  0.218327  0.609195  0  4.114266  0
C  C48  1  0.37631675  0.42530307  0.70136473  1  0  0.055771  0.097207  0  3.919781  0
C  C49  1  0.62368230  0.57469678  0.29863500  1  0  0.055809  0.097252  0  3.919747  0
C  C50  1  0.37349810  0.56985035  0.60666342  1  0  -0.073791  -0.171028  0  3.953644  0
C  C51  1  0.62650078  0.43015064  0.39333692  1  0  -0.073839  -0.171065  0  3.953729  0
C  C52  1  0.45791361  0.67426036  0.62349374  1  0  0.013423  0.104852  0  4.011152  0
C  C53  1  0.54208527  0.32574063  0.37650661  1  0  0.013474  0.104919  0  4.011115  0
C  C54  1  0.54191691  0.62819557  0.73695816  1  0  -0.064339  -0.142649  0  3.885415  0
C  C55  1  0.45808096  0.37180428  0.26304267  1  0  -0.064361  -0.14272  0  3.885375  0
C  C56  1  0.54147023  0.48078781  0.82506387  1  0  0.057126  0.095968  0  3.907247  0
C  C57  1  0.45852632  0.51921318  0.17493490  1  0  0.057146  0.09602  0  3.907209  0
C  C58  1  0.45420015  0.82641488  0.52483784  1  0  0.085513  0.051572  0  3.873441  0
C  C59  1  0.54580225  0.17358609  0.47516204  1  0  0.085509  0.051566  0  3.873363  0
N  N60  1  0.46026572  0.38106707  0.80779051  1  0  -0.317719  -0.196271  0  3.510508  0
N  N61  1  0.53973231  0.61893164  0.19220971  1  0  -0.317795  -0.196349  0  3.510508  0
N  N62  1  0.50933220  0.93068604  0.55083947  1  0  -0.1996  -0.151019  0  3.301042  0
N  N63  1  0.49066700  0.06931268  0.44916248  1  0  -0.199555  -0.150919  0  3.300938  0
O  O64  1  0.31828779  0.17136512  0.09563749  1  0  -0.317312  -0.544705  0  2.327947  0
O  O65  1  0.68171510  0.82863243  0.90436054  1  0  -0.317258  -0.544698  0  2.32785  0
O  O66  1  0.34901925  0.91755579  0.20333961  1  0  -0.320675  -0.564228  0  2.365238  0
O  O67  1  0.65097776  0.08244180  0.79666393  1  0  -0.320703  -0.564236  0  2.365184  0
O  O68  1  0.66016600  0.16184238  0.03565900  1  0  -0.317278  -0.550548  0  2.337088  0
O  O69  1  0.33983539  0.83815745  0.96434041  1  0  -0.317255  -0.550511  0  2.337144  0
O  O70  1  0.68954065  0.90796552  0.14278330  1  0  -0.320059  -0.562791  0  2.36195  0
O  O71  1  0.31045942  0.09203545  0.85721500  1  0  -0.320058  -0.562764  0  2.36193  0
