# generated using pymatgen
data_GdH8C6SNO9
_symmetry_space_group_name_H-M   'P 1'
_cell_length_a   6.82760096
_cell_length_b   8.72354450
_cell_length_c   9.85710490
_cell_angle_alpha   94.70048956
_cell_angle_beta   103.17527569
_cell_angle_gamma   98.11244382
_symmetry_Int_Tables_number   1
_chemical_formula_structural   GdH8C6SNO9
_chemical_formula_sum   'Gd2 H16 C12 S2 N2 O18'
_cell_volume   561.94400130
_cell_formula_units_Z   2
loop_
 _symmetry_equiv_pos_site_id
 _symmetry_equiv_pos_as_xyz
  1  'x, y, z'
loop_
 _atom_site_type_symbol
 _atom_site_label
 _atom_site_symmetry_multiplicity
 _atom_site_fract_x
 _atom_site_fract_y
 _atom_site_fract_z
 _atom_site_occupancy
 _atom_site_hle17_bader_spin_density
 _atom_site_hle17_ddec_charge
 _atom_site_hle17_ddec_spin_density
 _atom_site_hle17_ddec_sum_bond_order
 _atom_site_hle17_magmom
 _atom_site_hse06_10hf_bader_spin_density
 _atom_site_hse06_10hf_ddec_charge
 _atom_site_hse06_10hf_ddec_spin_density
 _atom_site_hse06_10hf_ddec_sum_bond_order
 _atom_site_hse06_10hf_magmom
 _atom_site_hse06_bader_spin_density
 _atom_site_hse06_ddec_charge
 _atom_site_hse06_ddec_spin_density
 _atom_site_hse06_ddec_sum_bond_order
 _atom_site_hse06_magmom
 _atom_site_pbe_bader_spin_density
 _atom_site_pbe_cm5_charge
 _atom_site_pbe_ddec_charge
 _atom_site_pbe_ddec_spin_density
 _atom_site_pbe_ddec_sum_bond_order
 _atom_site_pbe_magmom
Gd  Gd0  1  0.20114213  0.38455980  0.90351012  1  0  2.278444  0  1.722467  0  0  2.203019  0  2.055743  0  0  2.246444  0  2.014451  0  0  1.482768  2.165909  0  2.093745  0
Gd  Gd1  1  0.79885699  0.61544020  0.09648978  1  0  2.278455  0  1.72247  0  0  2.203037  0  2.055744  0  0  2.24646  0  2.014456  0  0  1.48278  2.165935  0  2.093733  0
H  H2  1  0.86916003  0.34622258  0.62295343  1  0  0.107818  0  0.961299  0  0  0.113619  0  1.029066  0  0  0.118069  0  1.022985  0  0  0.118969  0.110284  0  1.033499  0
H  H3  1  0.13084034  0.65377625  0.37704657  1  0  0.107794  0  0.96131  0  0  0.113637  0  1.029037  0  0  0.118088  0  1.022955  0  0  0.118967  0.110296  0  1.033473  0
H  H4  1  0.73362896  0.24584010  0.36887929  1  0  0.135483  0  0.980704  0  0  0.138589  0  1.044722  0  0  0.143318  0  1.042626  0  0  0.109244  0.135134  0  1.046635  0
H  H5  1  0.26637015  0.75415990  0.63112061  1  0  0.135476  0  0.980724  0  0  0.138575  0  1.044745  0  0  0.143303  0  1.042651  0  0  0.109246  0.135122  0  1.046658  0
H  H6  1  0.35030674  0.19878140  0.27241227  1  0  0.112635  0  0.932242  0  0  0.122775  0  0.988916  0  0  0.12617  0  0.985211  0  0  0.136488  0.120391  0  0.991351  0
H  H7  1  0.64969388  0.80121860  0.72758786  1  0  0.11264  0  0.932252  0  0  0.122775  0  0.988924  0  0  0.126171  0  0.985217  0  0  0.136483  0.120393  0  0.991357  0
H  H8  1  0.87842627  0.11589146  0.86522873  1  0  0.426132  0  0.872786  0  0  0.394861  0  0.937232  0  0  0.40506  0  0.922231  0  0  0.297941  0.387626  0  0.947857  0
H  H9  1  0.12157284  0.88410854  0.13477117  1  0  0.426124  0  0.872803  0  0  0.394854  0  0.937245  0  0  0.405054  0  0.922243  0  0  0.297934  0.38762  0  0.947869  0
H  H10  1  0.00913837  0.04479721  0.77004807  1  0  0.437395  0  0.858521  0  0  0.409293  0  0.916194  0  0  0.419679  0  0.900982  0  0  0.298971  0.401854  0  0.927076  0
H  H11  1  0.99086074  0.95520279  0.22995183  1  0  0.437393  0  0.858521  0  0  0.409293  0  0.916191  0  0  0.419679  0  0.90098  0  0  0.298977  0.401854  0  0.927073  0
H  H12  1  0.31710675  0.07470202  0.95010468  1  0  0.439635  0  0.858655  0  0  0.408517  0  0.922185  0  0  0.419032  0  0.906692  0  0  0.300258  0.40104  0  0.933176  0
H  H13  1  0.68289387  0.92529798  0.04989545  1  0  0.439658  0  0.858623  0  0  0.408545  0  0.922143  0  0  0.419059  0  0.90665  0  0  0.300268  0.40107  0  0.93313  0
H  H14  1  0.53446773  0.17089994  0.96342820  1  0  0.447027  0  0.848405  0  0  0.416664  0  0.909341  0  0  0.427164  0  0.894048  0  0  0.302825  0.409174  0  0.920211  0
H  H15  1  0.46553138  0.82910006  0.03657169  1  0  0.447067  0  0.848353  0  0  0.416711  0  0.909274  0  0  0.427209  0  0.893983  0  0  0.302849  0.409221  0  0.920144  0
H  H16  1  0.14331417  0.23850448  0.41840112  1  0  0.323795  0  0.877497  0  0  0.304457  0  0.933936  0  0  0.313405  0  0.92701  0  0  0.324141  0.298014  0  0.939174  0
H  H17  1  0.85668645  0.76149552  0.58159901  1  0  0.323791  0  0.877503  0  0  0.304454  0  0.933941  0  0  0.313401  0  0.927017  0  0  0.324142  0.298011  0  0.93918  0
C  C18  1  0.35851712  0.32224683  0.60642926  1  0  0.573017  0  3.800208  0  0  0.530354  0  4.076956  0  0  0.558895  0  4.081294  0  0  0.243384  0.511534  0  4.072895  0
C  C19  1  0.64148325  0.67775200  0.39357176  1  0  0.573085  0  3.800092  0  0  0.530409  0  4.076869  0  0  0.558951  0  4.081204  0  0  0.24342  0.511589  0  4.072808  0
C  C20  1  0.57577952  0.35221321  0.66401035  1  0  -0.264888  0  3.687668  0  0  -0.244595  0  3.930763  0  0  -0.26618  0  3.952693  0  0  -0.021662  -0.23107  0  3.916299  0
C  C21  1  0.42422084  0.64778562  0.33598965  1  0  -0.264904  0  3.687648  0  0  -0.244632  0  3.930801  0  0  -0.266218  0  3.952731  0  0  -0.021664  -0.231107  0  3.916334  0
C  C22  1  0.70537888  0.32316575  0.57800505  1  0  0.063691  0  3.672621  0  0  0.028847  0  3.928762  0  0  0.042852  0  3.939795  0  0  -0.044416  0.020188  0  3.921264  0
C  C23  1  0.29462024  0.67683425  0.42199485  1  0  0.063725  0  3.672549  0  0  0.028854  0  3.928689  0  0  0.042859  0  3.939724  0  0  -0.044415  0.020203  0  3.921185  0
C  C24  1  0.63198224  0.26691924  0.43582730  1  0  -0.160238  0  3.725729  0  0  -0.175222  0  3.9916  0  0  -0.188219  0  4.011326  0  0  -0.097168  -0.167306  0  3.978777  0
C  C25  1  0.36801838  0.73308076  0.56417283  1  0  -0.160209  0  3.725725  0  0  -0.175191  0  3.991598  0  0  -0.188187  0  4.011327  0  0  -0.09716  -0.167278  0  3.978774  0
C  C26  1  0.42441486  0.23898327  0.38202087  1  0  0.179816  0  3.63146  0  0  0.134034  0  3.894171  0  0  0.147214  0  3.90793  0  0  0.068383  0.125821  0  3.884449  0
C  C27  1  0.57558576  0.76101673  0.61797926  1  0  0.179769  0  3.631528  0  0  0.13401  0  3.894205  0  0  0.147189  0  3.907964  0  0  0.068384  0.125797  0  3.884484  0
C  C28  1  0.66557314  0.41746125  0.81187014  1  0  0.749442  0  3.832751  0  0  0.70124  0  4.124273  0  0  0.7387  0  4.112351  0  0  0.233808  0.675668  0  4.13127  0
C  C29  1  0.33442598  0.58253875  0.18812975  1  0  0.749406  0  3.83285  0  0  0.701206  0  4.124379  0  0  0.738666  0  4.112458  0  0  0.233775  0.675634  0  4.131376  0
S  S30  1  0.90692224  0.22051374  0.13244195  1  0  1.629214  0  5.766203  0  0  1.50026  0  6.318775  0  0  1.556539  0  6.28052  0  0  0.595992  1.461317  0  6.34362  0
S  S31  1  0.09307688  0.77948626  0.86755794  1  0  1.629186  0  5.76624  0  0  1.500226  0  6.318823  0  0  1.556505  0  6.28057  0  0  0.595973  1.461283  0  6.343669  0
N  N32  1  0.29756489  0.26572452  0.46534928  1  0  -0.341673  0  3.350828  0  0  -0.272638  0  3.58067  0  0  -0.293831  0  3.590979  0  0  -0.358354  -0.258625  0  3.573616  0
N  N33  1  0.70243573  0.73427548  0.53465085  1  0  -0.341662  0  3.350853  0  0  -0.27263  0  3.580694  0  0  -0.293823  0  3.591004  0  0  -0.358358  -0.258617  0  3.57364  0
O  O34  1  0.21975783  0.34021256  0.66990016  1  0  -0.676806  0  2.039371  0  0  -0.638685  0  2.284927  0  0  -0.662398  0  2.275801  0  0  -0.389122  -0.621347  0  2.290589  0
O  O35  1  0.78024279  0.65978744  0.33009997  1  0  -0.676856  0  2.039298  0  0  -0.638729  0  2.28487  0  0  -0.662442  0  2.275742  0  0  -0.389155  -0.621391  0  2.29053  0
O  O36  1  0.55374014  0.47494434  0.88517735  1  0  -0.777923  0  2.112987  0  0  -0.737066  0  2.37071  0  0  -0.761727  0  2.358546  0  0  -0.413418  -0.7184  0  2.377675  0
O  O37  1  0.44626048  0.52505565  0.11482278  1  0  -0.777927  0  2.112973  0  0  -0.737067  0  2.370695  0  0  -0.761726  0  2.358531  0  0  -0.413424  -0.7184  0  2.37766  0
O  O38  1  0.85393125  0.42175744  0.86693695  1  0  -0.770176  0  2.160987  0  0  -0.731052  0  2.424004  0  0  -0.757075  0  2.413443  0  0  -0.385373  -0.711773  0  2.430433  0
O  O39  1  0.14606937  0.57824256  0.13306319  1  0  -0.770144  0  2.161089  0  0  -0.731025  0  2.424118  0  0  -0.757045  0  2.41355  0  0  -0.385344  -0.711746  0  2.430542  0
O  O40  1  0.10450226  0.26058932  0.09397134  1  0  -0.814411  0  2.066225  0  0  -0.770156  0  2.342509  0  0  -0.791889  0  2.324822  0  0  -0.41219  -0.753958  0  2.353557  0
O  O41  1  0.89549836  0.73941068  0.90602879  1  0  -0.814389  0  2.066243  0  0  -0.770136  0  2.342535  0  0  -0.791866  0  2.324838  0  0  -0.41218  -0.75394  0  2.353583  0
O  O42  1  0.93930321  0.14154186  0.26181951  1  0  -0.718247  0  1.934599  0  0  -0.654121  0  2.159379  0  0  -0.676271  0  2.141834  0  0  -0.337175  -0.638733  0  2.171515  0
O  O43  1  0.06069590  0.85845814  0.73818039  1  0  -0.718243  0  1.934606  0  0  -0.654113  0  2.159384  0  0  -0.676262  0  2.141836  0  0  -0.337176  -0.638725  0  2.17152  0
O  O44  1  0.76392213  0.11102686  0.01333678  1  0  -0.746223  0  1.972584  0  0  -0.667965  0  2.191582  0  0  -0.691642  0  2.17366  0  0  -0.332309  -0.651324  0  2.203602  0
O  O45  1  0.23607849  0.88897313  0.98666335  1  0  -0.746225  0  1.972564  0  0  -0.667969  0  2.191565  0  0  -0.691646  0  2.173644  0  0  -0.332312  -0.651327  0  2.203585  0
O  O46  1  0.81312905  0.36049781  0.15696595  1  0  -0.811552  0  2.036765  0  0  -0.77261  0  2.318499  0  0  -0.793409  0  2.299424  0  0  -0.420019  -0.757048  0  2.330798  0
O  O47  1  0.18687157  0.63950219  0.84303419  1  0  -0.811544  0  2.036765  0  0  -0.772595  0  2.318489  0  0  -0.793394  0  2.299415  0  0  -0.420005  -0.757034  0  2.330794  0
O  O48  1  0.96445076  0.14300031  0.79957182  1  0  -0.897872  0  1.891672  0  0  -0.858262  0  2.074079  0  0  -0.877277  0  2.044681  0  0  -0.639541  -0.844221  0  2.094839  0
O  O49  1  0.03554836  0.85699969  0.20042808  1  0  -0.897858  0  1.891679  0  0  -0.858247  0  2.074095  0  0  -0.877263  0  2.044695  0  0  -0.63954  -0.844208  0  2.094853  0
O  O50  1  0.38684361  0.17658565  0.93317423  1  0  -0.923541  0  1.872126  0  0  -0.884166  0  2.064527  0  0  -0.902631  0  2.032828  0  0  -0.662429  -0.870158  0  2.086335  0
O  O51  1  0.61315701  0.82341436  0.06682489  1  0  -0.923606  0  1.872082  0  0  -0.884246  0  2.064502  0  0  -0.90271  0  2.032802  0  0  -0.662463  -0.87024  0  2.08631  0
