# generated using pymatgen
data_KH7(C3O)3
_symmetry_space_group_name_H-M   'P 1'
_cell_length_a   6.49310246
_cell_length_b   8.16109245
_cell_length_c   16.89707057
_cell_angle_alpha   90.00006340
_cell_angle_beta   90.00036593
_cell_angle_gamma   106.95769687
_symmetry_Int_Tables_number   1
_chemical_formula_structural   KH7(C3O)3
_chemical_formula_sum   'K4 H28 C36 O12'
_cell_volume   856.45823752
_cell_formula_units_Z   4
loop_
 _symmetry_equiv_pos_site_id
 _symmetry_equiv_pos_as_xyz
  1  'x, y, z'
loop_
 _atom_site_type_symbol
 _atom_site_label
 _atom_site_symmetry_multiplicity
 _atom_site_fract_x
 _atom_site_fract_y
 _atom_site_fract_z
 _atom_site_occupancy
 _atom_site_hle17_bader_spin_density
 _atom_site_hle17_ddec_charge
 _atom_site_hle17_ddec_spin_density
 _atom_site_hle17_ddec_sum_bond_order
 _atom_site_hle17_magmom
 _atom_site_hse06_10hf_bader_spin_density
 _atom_site_hse06_10hf_ddec_charge
 _atom_site_hse06_10hf_ddec_spin_density
 _atom_site_hse06_10hf_ddec_sum_bond_order
 _atom_site_hse06_10hf_magmom
 _atom_site_hse06_bader_spin_density
 _atom_site_hse06_ddec_charge
 _atom_site_hse06_ddec_spin_density
 _atom_site_hse06_ddec_sum_bond_order
 _atom_site_hse06_magmom
 _atom_site_pbe_bader_spin_density
 _atom_site_pbe_cm5_charge
 _atom_site_pbe_ddec_charge
 _atom_site_pbe_ddec_spin_density
 _atom_site_pbe_ddec_sum_bond_order
 _atom_site_pbe_magmom
K  K0  1  0.30222521  0.97057548  0.57780015  1  0  0.92891  0  0.444205  0  0  0.880975  0  0.617497  0  0  0.892229  0  0.601254  0  0  0.745796  0.872427  0  0.629179  0
K  K1  1  0.19777633  0.52940825  0.07779609  1  0  0.928925  0  0.444179  0  0  0.880976  0  0.617468  0  0  0.892236  0  0.601222  0  0  0.745799  0.872427  0  0.62915  0
K  K2  1  0.69778219  0.02944734  0.42220896  1  0  0.928886  0  0.444251  0  0  0.880948  0  0.617546  0  0  0.892202  0  0.601302  0  0  0.745814  0.872395  0  0.62923  0
K  K3  1  0.80222012  0.47056967  0.92220296  1  0  0.928908  0  0.444202  0  0  0.880958  0  0.61749  0  0  0.892217  0  0.601246  0  0  0.745798  0.872412  0  0.629171  0
H  H4  1  0.04164697  0.45048092  0.57097368  1  0  0.094039  0  0.968726  0  0  0.106085  0  1.029  0  0  0.108324  0  1.028904  0  0  0.103023  0.104449  0  1.029211  0
H  H5  1  0.45835422  0.04950468  0.07097501  1  0  0.094112  0  0.968778  0  0  0.106131  0  1.029043  0  0  0.108371  0  1.028942  0  0  0.102998  0.104494  0  1.029258  0
H  H6  1  0.95836370  0.54953029  0.42901945  1  0  0.094152  0  0.968621  0  0  0.106221  0  1.02886  0  0  0.108461  0  1.028758  0  0  0.103061  0.104582  0  1.029076  0
H  H7  1  0.54166141  0.95048719  0.92902286  1  0  0.094087  0  0.968677  0  0  0.106102  0  1.028967  0  0  0.108339  0  1.028866  0  0  0.103031  0.104466  0  1.029178  0
H  H8  1  0.31612081  0.51713700  0.67660713  1  0  0.084987  0  0.970359  0  0  0.096448  0  1.031926  0  0  0.098428  0  1.032083  0  0  0.098929  0.094938  0  1.032061  0
H  H9  1  0.18388130  0.98286417  0.17660206  1  0  0.085137  0  0.970314  0  0  0.096533  0  1.031939  0  0  0.098513  0  1.0321  0  0  0.098954  0.095024  0  1.032073  0
H  H10  1  0.68389349  0.48287160  0.32338777  1  0  0.08501  0  0.970329  0  0  0.096413  0  1.031944  0  0  0.098394  0  1.032103  0  0  0.098941  0.094904  0  1.032078  0
H  H11  1  0.81612345  0.01713553  0.82338930  1  0  0.084987  0  0.970231  0  0  0.096416  0  1.031838  0  0  0.098396  0  1.031999  0  0  0.098947  0.094907  0  1.031972  0
H  H12  1  0.27943808  0.69859000  0.79137613  1  0  0.0958  0  0.98094  0  0  0.104799  0  1.045815  0  0  0.108088  0  1.043773  0  0  0.102113  0.102391  0  1.047391  0
H  H13  1  0.22056128  0.80140304  0.29137403  1  0  0.095879  0  0.980959  0  0  0.104844  0  1.045864  0  0  0.10813  0  1.043828  0  0  0.102138  0.102435  0  1.047439  0
H  H14  1  0.72057531  0.30141218  0.20862114  1  0  0.09587  0  0.980888  0  0  0.104891  0  1.045741  0  0  0.108159  0  1.043723  0  0  0.102152  0.102482  0  1.047317  0
H  H15  1  0.77941390  0.19859181  0.70862147  1  0  0.095879  0  0.980997  0  0  0.104895  0  1.045832  0  0  0.108169  0  1.043811  0  0  0.102168  0.102487  0  1.047408  0
H  H16  1  0.95889057  0.80714168  0.80000749  1  0  0.084598  0  0.97333  0  0  0.095501  0  1.035361  0  0  0.097792  0  1.034893  0  0  0.100312  0.093712  0  1.035973  0
H  H17  1  0.54110947  0.69285196  0.30000667  1  0  0.08458  0  0.973313  0  0  0.095489  0  1.035344  0  0  0.097779  0  1.034879  0  0  0.100303  0.093702  0  1.035951  0
H  H18  1  0.04111333  0.19284774  0.19999097  1  0  0.084552  0  0.973289  0  0  0.095454  0  1.035336  0  0  0.097748  0  1.034866  0  0  0.100287  0.093664  0  1.035947  0
H  H19  1  0.45886717  0.30714673  0.69999416  1  0  0.084545  0  0.973381  0  0  0.095446  0  1.035425  0  0  0.097742  0  1.034952  0  0  0.100292  0.093656  0  1.036036  0
H  H20  1  0.67752210  0.73336725  0.69668211  1  0  0.101118  0  0.954936  0  0  0.114052  0  1.011256  0  0  0.117076  0  1.00981  0  0  0.106449  0.111898  0  1.012348  0
H  H21  1  0.82247344  0.76662311  0.19668202  1  0  0.101116  0  0.954892  0  0  0.114068  0  1.011206  0  0  0.117093  0  1.00976  0  0  0.106445  0.111914  0  1.012299  0
H  H22  1  0.32248229  0.26662345  0.30331990  1  0  0.101153  0  0.954884  0  0  0.114044  0  1.011256  0  0  0.117066  0  1.009815  0  0  0.106456  0.11189  0  1.012346  0
H  H23  1  0.17751463  0.23336518  0.80332413  1  0  0.101157  0  0.95491  0  0  0.114112  0  1.011203  0  0  0.117136  0  1.009752  0  0  0.106487  0.111959  0  1.012295  0
H  H24  1  0.85415504  0.98210272  0.59317332  1  0  0.410546  0  0.901463  0  0  0.381761  0  0.963875  0  0  0.392393  0  0.948095  0  0  0.284225  0.374241  0  0.975023  0
H  H25  1  0.64585024  0.51788935  0.09317090  1  0  0.410612  0  0.901365  0  0  0.381789  0  0.96383  0  0  0.392422  0  0.948047  0  0  0.284248  0.374271  0  0.974975  0
H  H26  1  0.14584336  0.01790861  0.40683224  1  0  0.410412  0  0.901655  0  0  0.381643  0  0.964043  0  0  0.392276  0  0.948262  0  0  0.284185  0.374122  0  0.975192  0
H  H27  1  0.35414655  0.48209757  0.90682874  1  0  0.410561  0  0.901414  0  0  0.381778  0  0.963822  0  0  0.392411  0  0.94804  0  0  0.284252  0.374259  0  0.974969  0
H  H28  1  0.89480179  0.17767334  0.58744912  1  0  0.419641  0  0.885008  0  0  0.393197  0  0.943176  0  0  0.402883  0  0.928697  0  0  0.289416  0.386278  0  0.953525  0
H  H29  1  0.60519765  0.32231423  0.08745148  1  0  0.419599  0  0.885041  0  0  0.393152  0  0.943218  0  0  0.402839  0  0.928737  0  0  0.289385  0.386232  0  0.953567  0
H  H30  1  0.10519975  0.82233410  0.41255111  1  0  0.419516  0  0.88515  0  0  0.393097  0  0.943274  0  0  0.402778  0  0.928805  0  0  0.289386  0.386177  0  0.953624  0
H  H31  1  0.39480019  0.67767140  0.91255112  1  0  0.41966  0  0.884984  0  0  0.393216  0  0.943153  0  0  0.402901  0  0.928676  0  0  0.289418  0.386296  0  0.953504  0
C  C32  1  0.57499882  0.66716135  0.53519599  1  0  0.301037  0  3.821977  0  0  0.280785  0  4.095003  0  0  0.301675  0  4.101403  0  0  0.10853  0.266834  0  4.090104  0
C  C33  1  0.92500514  0.83284188  0.03519559  1  0  0.301071  0  3.822041  0  0  0.280776  0  4.095154  0  0  0.30167  0  4.101543  0  0  0.108479  0.266821  0  4.090265  0
C  C34  1  0.42501136  0.33284858  0.46481016  1  0  0.30092  0  3.82198  0  0  0.280574  0  4.09519  0  0  0.301466  0  4.101585  0  0  0.108408  0.266626  0  4.090283  0
C  C35  1  0.07499319  0.16714502  0.96480701  1  0  0.300783  0  3.822259  0  0  0.280422  0  4.095431  0  0  0.301316  0  4.101828  0  0  0.108411  0.266472  0  4.090538  0
C  C36  1  0.67037826  0.54270489  0.56308731  1  0  -0.250355  0  3.807569  0  0  -0.25262  0  4.070795  0  0  -0.273239  0  4.099012  0  0  -0.058856  -0.238884  0  4.05153  0
C  C37  1  0.82962065  0.95729603  0.06307962  1  0  -0.250467  0  3.807372  0  0  -0.252848  0  4.070755  0  0  -0.273473  0  4.098971  0  0  -0.058945  -0.239107  0  4.051499  0
C  C38  1  0.32962035  0.45729487  0.43691766  1  0  -0.250308  0  3.807352  0  0  -0.252681  0  4.070819  0  0  -0.2733  0  4.099036  0  0  -0.058935  -0.238946  0  4.051556  0
C  C39  1  0.17038172  0.04269341  0.93691943  1  0  -0.250246  0  3.807454  0  0  -0.252553  0  4.070799  0  0  -0.273177  0  4.099021  0  0  -0.058868  -0.238816  0  4.051536  0
C  C40  1  0.60051865  0.37641286  0.52962280  1  0  0.296763  0  3.82752  0  0  0.277245  0  4.101687  0  0  0.297784  0  4.108282  0  0  0.107149  0.263618  0  4.096502  0
C  C41  1  0.89947884  0.12359231  0.02961988  1  0  0.296971  0  3.827491  0  0  0.277513  0  4.101617  0  0  0.298054  0  4.108204  0  0  0.10726  0.26388  0  4.096446  0
C  C42  1  0.39947061  0.62359471  0.47037565  1  0  0.296844  0  3.827082  0  0  0.27726  0  4.101369  0  0  0.297807  0  4.107967  0  0  0.107189  0.26363  0  4.096188  0
C  C43  1  0.10051523  0.87640364  0.97038095  1  0  0.296809  0  3.827305  0  0  0.277281  0  4.10148  0  0  0.297825  0  4.108076  0  0  0.107154  0.263652  0  4.096302  0
C  C44  1  0.01974998  0.52576797  0.62177241  1  0  -0.130015  0  3.735076  0  0  -0.148431  0  3.978675  0  0  -0.151382  0  3.999186  0  0  -0.095864  -0.146456  0  3.964924  0
C  C45  1  0.48025568  0.97423276  0.12176925  1  0  -0.129983  0  3.735151  0  0  -0.148356  0  3.978693  0  0  -0.151303  0  3.999197  0  0  -0.095823  -0.146383  0  3.964946  0
C  C46  1  0.98026620  0.47424961  0.37822308  1  0  -0.130047  0  3.734974  0  0  -0.148482  0  3.97854  0  0  -0.151432  0  3.999051  0  0  -0.095892  -0.146508  0  3.96479  0
C  C47  1  0.51974712  0.02576182  0.87822802  1  0  -0.129952  0  3.735084  0  0  -0.148318  0  3.978668  0  0  -0.15126  0  3.999171  0  0  -0.095853  -0.146343  0  3.96492  0
C  C48  1  0.83666100  0.58521786  0.62574631  1  0  0.09697  0  3.777342  0  0  0.113693  0  4.008261  0  0  0.117641  0  4.031618  0  0  -0.007791  0.110977  0  3.992602  0
C  C49  1  0.66333898  0.91479122  0.12574056  1  0  0.097122  0  3.777269  0  0  0.113907  0  4.008173  0  0  0.117853  0  4.031538  0  0  -0.007722  0.111188  0  3.992513  0
C  C50  1  0.16334766  0.41479209  0.37425511  1  0  0.097046  0  3.777291  0  0  0.113862  0  4.008164  0  0  0.117801  0  4.031533  0  0  -0.007727  0.111144  0  3.992501  0
C  C51  1  0.33666381  0.08520335  0.87425789  1  0  0.097094  0  3.777314  0  0  0.113838  0  4.008239  0  0  0.117782  0  4.031588  0  0  -0.0077  0.111121  0  3.99258  0
C  C52  1  0.17621701  0.56482589  0.68110183  1  0  -0.084417  0  3.804869  0  0  -0.095429  0  4.053194  0  0  -0.097762  0  4.07577  0  0  -0.097456  -0.093798  0  4.037872  0
C  C53  1  0.32378065  0.93517150  0.18109827  1  0  -0.084733  0  3.804875  0  0  -0.095695  0  4.053204  0  0  -0.098029  0  4.075777  0  0  -0.097538  -0.094063  0  4.03788  0
C  C54  1  0.82379569  0.43518659  0.31889603  1  0  -0.084521  0  3.804896  0  0  -0.095493  0  4.053261  0  0  -0.097824  0  4.075823  0  0  -0.09751  -0.093862  0  4.037935  0
C  C55  1  0.67621141  0.06482318  0.81889546  1  0  -0.084501  0  3.804859  0  0  -0.095498  0  4.053222  0  0  -0.097832  0  4.075791  0  0  -0.097507  -0.093867  0  4.037902  0
C  C56  1  0.15615952  0.66659597  0.74556448  1  0  -0.104285  0  3.805991  0  0  -0.118469  0  4.052745  0  0  -0.120462  0  4.074273  0  0  -0.099135  -0.116952  0  4.037968  0
C  C57  1  0.34383052  0.83341097  0.24556270  1  0  -0.10435  0  3.806008  0  0  -0.118489  0  4.052735  0  0  -0.120484  0  4.074265  0  0  -0.099157  -0.11697  0  4.037949  0
C  C58  1  0.84384865  0.33341269  0.25443516  1  0  -0.10435  0  3.805954  0  0  -0.118548  0  4.052673  0  0  -0.120522  0  4.074207  0  0  -0.099163  -0.117029  0  4.037892  0
C  C59  1  0.65614863  0.16659027  0.75443339  1  0  -0.104382  0  3.806037  0  0  -0.118571  0  4.052759  0  0  -0.120553  0  4.074288  0  0  -0.099167  -0.117054  0  4.03798  0
C  C60  1  0.97571750  0.72696553  0.75019530  1  0  -0.103461  0  3.834053  0  0  -0.114624  0  4.083161  0  0  -0.116579  0  4.105563  0  0  -0.099149  -0.113138  0  4.067898  0
C  C61  1  0.52427900  0.77302906  0.25019330  1  0  -0.103347  0  3.833614  0  0  -0.114492  0  4.082735  0  0  -0.116447  0  4.105139  0  0  -0.099065  -0.113008  0  4.067464  0
C  C62  1  0.02429185  0.27303412  0.24980493  1  0  -0.103317  0  3.833983  0  0  -0.114471  0  4.083086  0  0  -0.116419  0  4.105463  0  0  -0.099091  -0.112986  0  4.067817  0
C  C63  1  0.47569819  0.22696705  0.74980753  1  0  -0.103293  0  3.833854  0  0  -0.114448  0  4.082975  0  0  -0.1164  0  4.105362  0  0  -0.099111  -0.112961  0  4.067709  0
C  C64  1  0.81728725  0.68602179  0.69159382  1  0  -0.120497  0  3.731526  0  0  -0.137759  0  3.971809  0  0  -0.140263  0  3.990954  0  0  -0.086685  -0.136054  0  3.95891  0
C  C65  1  0.68271720  0.81398001  0.19158926  1  0  -0.12064  0  3.731252  0  0  -0.137973  0  3.971624  0  0  -0.14048  0  3.990773  0  0  -0.086759  -0.136266  0  3.958721  0
C  C66  1  0.18271742  0.31398176  0.30840701  1  0  -0.120705  0  3.731651  0  0  -0.137963  0  3.971963  0  0  -0.140464  0  3.991112  0  0  -0.086742  -0.136256  0  3.959056  0
C  C67  1  0.31727597  0.18600952  0.80841275  1  0  -0.120742  0  3.731547  0  0  -0.138037  0  3.971858  0  0  -0.140538  0  3.991007  0  0  -0.08679  -0.13633  0  3.958956  0
O  O68  1  0.62504745  0.82094388  0.55950444  1  0  -0.617981  0  2.110799  0  0  -0.563138  0  2.340697  0  0  -0.583805  0  2.335127  0  0  -0.407012  -0.548701  0  2.344221  0
O  O69  1  0.87495586  0.67906468  0.05950207  1  0  -0.61799  0  2.110785  0  0  -0.563097  0  2.340664  0  0  -0.583761  0  2.335086  0  0  -0.406967  -0.548659  0  2.344188  0
O  O70  1  0.37494488  0.17906366  0.44049993  1  0  -0.617923  0  2.110706  0  0  -0.563022  0  2.340588  0  0  -0.583687  0  2.335016  0  0  -0.406958  -0.548586  0  2.344106  0
O  O71  1  0.12504094  0.32092224  0.94049934  1  0  -0.617891  0  2.110935  0  0  -0.562989  0  2.340819  0  0  -0.583651  0  2.335245  0  0  -0.406979  -0.54855  0  2.344343  0
O  O72  1  0.66889542  0.25207847  0.55022821  1  0  -0.607295  0  2.074381  0  0  -0.557887  0  2.309499  0  0  -0.578095  0  2.304698  0  0  -0.39157  -0.54362  0  2.31231  0
O  O73  1  0.83110722  0.24791908  0.05022221  1  0  -0.607329  0  2.074638  0  0  -0.557938  0  2.309743  0  0  -0.578147  0  2.304936  0  0  -0.391599  -0.543672  0  2.312558  0
O  O74  1  0.33111421  0.74793403  0.44977439  1  0  -0.607159  0  2.074221  0  0  -0.557797  0  2.309492  0  0  -0.577953  0  2.304569  0  0  -0.391473  -0.543528  0  2.312303  0
O  O75  1  0.16888958  0.75206784  0.94977388  1  0  -0.607366  0  2.074295  0  0  -0.557992  0  2.309499  0  0  -0.578172  0  2.304616  0  0  -0.391538  -0.543718  0  2.312308  0
O  O76  1  0.97083451  0.09152751  0.59709762  1  0  -0.89618  0  1.742998  0  0  -0.85618  0  1.896643  0  0  -0.872748  0  1.867654  0  0  -0.702445  -0.844153  0  1.916906  0
O  O77  1  0.52916798  0.40847167  0.09709686  1  0  -0.896193  0  1.742937  0  0  -0.85616  0  1.896624  0  0  -0.872729  0  1.867633  0  0  -0.702429  -0.844138  0  1.916889  0
O  O78  1  0.02916131  0.90848514  0.40290913  1  0  -0.895961  0  1.743277  0  0  -0.855964  0  1.89687  0  0  -0.872538  0  1.867885  0  0  -0.702375  -0.843941  0  1.917139  0
O  O79  1  0.47083223  0.59152421  0.90290396  1  0  -0.896185  0  1.742924  0  0  -0.856176  0  1.896557  0  0  -0.872751  0  1.867565  0  0  -0.702443  -0.844153  0  1.916829  0
