# generated using pymatgen
data_ZnH47C39NO7
_symmetry_space_group_name_H-M   'P 1'
_cell_length_a   13.81323997
_cell_length_b   15.20084237
_cell_length_c   14.98299766
_cell_angle_alpha   88.66673390
_cell_angle_beta   68.31889133
_cell_angle_gamma   88.14922043
_symmetry_Int_Tables_number   1
_chemical_formula_structural   ZnH47C39NO7
_chemical_formula_sum   'Zn2 H94 C78 N2 O14'
_cell_volume   2921.71328670
_cell_formula_units_Z   2
loop_
 _symmetry_equiv_pos_site_id
 _symmetry_equiv_pos_as_xyz
  1  'x, y, z'
loop_
 _atom_site_type_symbol
 _atom_site_label
 _atom_site_symmetry_multiplicity
 _atom_site_fract_x
 _atom_site_fract_y
 _atom_site_fract_z
 _atom_site_occupancy
 _atom_site_pbe_bader_charge
 _atom_site_pbe_bader_spin_density
 _atom_site_pbe_cm5_charge
 _atom_site_pbe_ddec_charge
 _atom_site_pbe_ddec_spin_density
 _atom_site_pbe_ddec_sum_bond_order
 _atom_site_pbe_magmom
Zn  Zn0  1  0.59371101  0.51046537  0.50628941  1  1.278058  0  0.674845  0.813726  0  2.442694  0
Zn  Zn1  1  0.39897321  0.51090456  0.49604184  1  1.273494  0  0.673005  0.8025  0  2.414464  0
H  H2  1  0.79036397  0.36697179  0.88831272  1  0.075024  0  0.106652  0.125249  0  1.006255  0
H  H3  1  0.24469129  0.30808192  0.10059455  1  0.084874  0  0.106967  0.128113  0  0.986972  0
H  H4  1  0.83267265  0.43981786  0.01784985  1  0.071779  0  0.104311  0.124087  0  0.997429  0
H  H5  1  0.18222889  0.36701367  0.96901842  1  0.070765  0  0.105353  0.125954  0  0.994083  0
H  H6  1  0.51175823  0.96307571  0.37352669  1  0.054065  0  0.096117  0.099018  0  1.031911  0
H  H7  1  0.37479547  0.06700274  0.62773076  1  0.047381  0  0.096679  0.100942  0  1.006328  0
H  H8  1  0.29715448  0.40349811  0.39233733  1  0.135944  0  0.130978  0.113264  0  0.993859  0
H  H9  1  0.69576334  0.46999788  0.64978450  1  0.160452  0  0.12751  0.111146  0  1.025513  0
H  H10  1  0.20721496  0.61378267  0.57786412  1  0.116909  0  0.127492  0.102735  0  0.986273  0
H  H11  1  0.79702005  0.53215964  0.35955492  1  0.124977  0  0.124668  0.101813  0  1.024232  0
H  H12  1  0.02297286  0.60998715  0.58354355  1  0.07674  0  0.1137  0.121105  0  0.985087  0
H  H13  1  0.98410741  0.53126001  0.34559187  1  0.091572  0  0.113062  0.120453  0  0.990572  0
H  H14  1  0.10048552  0.25767802  0.46664409  1  0.030629  0  0.089136  0.118612  0  1.010346  0
H  H15  1  0.97933433  0.30677465  0.47388549  1  0.038646  0  0.084954  0.112585  0  1.024606  0
H  H16  1  0.05156448  0.24055767  0.37408697  1  0.044345  0  0.089824  0.119869  0  0.992743  0
H  H17  1  0.07130645  0.39936686  0.32773074  1  0.037066  0  0.092338  0.087446  0  0.995851  0
H  H18  1  0.19215712  0.34960897  0.31633511  1  0.072403  0  0.097836  0.096438  0  1.022619  0
H  H19  1  0.89239650  0.31223027  0.65781563  1  0.035234  0  0.088145  0.116548  0  1.013343  0
H  H20  1  0.01547206  0.36323146  0.61907233  1  0.049349  0  0.084326  0.110506  0  1.039291  0
H  H21  1  0.94206292  0.35032271  0.74328468  1  0.015809  0  0.089394  0.119005  0  0.999832  0
H  H22  1  0.92548157  0.50583139  0.69240507  1  0.026289  0  0.089252  0.082507  0  1.001218  0
H  H23  1  0.80412055  0.45357797  0.73374753  1  0.080168  0  0.097012  0.092942  0  1.039565  0
H  H24  1  0.51122661  0.57082440  0.91062962  1  0.004026  0  0.089597  0.044965  0  1.000753  0
H  H25  1  0.48524016  0.61702293  0.81031977  1  0.042734  0  0.096415  0.059681  0  1.018603  0
H  H26  1  0.70478651  0.57393983  0.80633178  1  0.01837  0  0.091035  0.084661  0  0.991252  0
H  H27  1  0.67158104  0.63550359  0.71930986  1  0.025366  0  0.093892  0.090079  0  0.976647  0
H  H28  1  0.58342545  0.75225633  0.84721133  1  0.021506  0  0.085441  0.111995  0  1.014171  0
H  H29  1  0.71819074  0.73825495  0.82457967  1  0.033112  0  0.086696  0.113668  0  1.003116  0
H  H30  1  0.62514563  0.69023862  0.92898126  1  0.002231  0  0.084053  0.108685  0  1.007797  0
H  H31  1  0.43949264  0.55262994  0.10990847  1  0.040241  0  0.088594  0.042086  0  1.009745  0
H  H32  1  0.44324319  0.60453941  0.21503317  1  0.082662  0  0.095434  0.062817  0  0.997611  0
H  H33  1  0.25583357  0.50277779  0.21514201  1  0.053513  0  0.091725  0.088588  0  0.984064  0
H  H34  1  0.25959511  0.57721876  0.30311134  1  0.018453  0  0.088354  0.081996  0  0.998811  0
H  H35  1  0.29279545  0.70231399  0.17922132  1  0.01508  0  0.083872  0.106861  0  1.020255  0
H  H36  1  0.17259982  0.65119235  0.20087853  1  -0.015385  0  0.083928  0.10917  0  1.006892  0
H  H37  1  0.28197824  0.62622612  0.09528265  1  0.0284  0  0.083736  0.108663  0  1.008072  0
H  H38  1  0.11047463  0.52765950  0.76844481  1  0.015156  0  0.100004  0.069101  0  0.968858  0
H  H39  1  0.23357216  0.56886439  0.75585293  1  0.067213  0  0.097298  0.064244  0  1.020127  0
H  H40  1  0.05164605  0.53732647  0.94750613  1  0.017143  0  0.087781  0.07981  0  0.986833  0
H  H41  1  0.17580930  0.57358783  0.93668461  1  0.019845  0  0.087759  0.080699  0  0.990081  0
H  H42  1  0.15140394  0.71022296  0.84713515  1  0.028933  0  0.086508  0.115943  0  1.025865  0
H  H43  1  0.05019920  0.70250765  0.96177390  1  0.016907  0  0.086788  0.115615  0  1.006992  0
H  H44  1  0.02629324  0.67494613  0.85753497  1  -0.005009  0  0.082016  0.104401  0  1.007738  0
H  H45  1  0.84283755  0.62209413  0.22182446  1  0.023911  0  0.103229  0.070326  0  0.965884  0
H  H46  1  0.70712246  0.62419267  0.24498989  1  0.065251  0  0.099824  0.068877  0  0.99838  0
H  H47  1  0.88118232  0.63140926  0.04502595  1  0.032995  0  0.088941  0.081449  0  1.001482  0
H  H48  1  0.74637753  0.63455246  0.06704886  1  0.013683  0  0.088111  0.080964  0  0.989722  0
H  H49  1  0.72485858  0.77736645  0.15671291  1  0.041371  0  0.086718  0.113276  0  1.011727  0
H  H50  1  0.81760862  0.78721274  0.03770772  1  0.054222  0  0.086401  0.112036  0  1.003678  0
H  H51  1  0.86005796  0.77467938  0.13562658  1  0.029704  0  0.083947  0.105855  0  1.006023  0
H  H52  1  0.65491951  0.26874383  0.69559161  1  0.087909  0  0.110007  0.086994  0  0.952742  0
H  H53  1  0.55570674  0.25618585  0.81114745  1  0.043085  0  0.096827  0.061129  0  0.994527  0
H  H54  1  0.78702808  0.20590713  0.76082801  1  0.019294  0  0.08948  0.081235  0  0.992248  0
H  H55  1  0.68769207  0.19246526  0.87489537  1  0.009651  0  0.088288  0.081451  0  0.9851  0
H  H56  1  0.59826547  0.08557945  0.80539810  1  0.032941  0  0.087361  0.113843  0  0.998553  0
H  H57  1  0.72837932  0.05003799  0.78460359  1  0.020834  0  0.086846  0.110993  0  1.006389  0
H  H58  1  0.69684222  0.09997554  0.69031641  1  0.055411  0  0.089123  0.11694  0  1.004366  0
H  H59  1  0.49149234  0.22554753  0.17410155  1  0.019871  0  0.094698  0.056684  0  0.997226  0
H  H60  1  0.37843948  0.17921675  0.16422871  1  -0.003057  0  0.090314  0.048205  0  0.979618  0
H  H61  1  0.39472834  0.24864756  0.34938585  1  0.051466  0  0.09481  0.095237  0  0.996036  0
H  H62  1  0.28029285  0.20786364  0.34009905  1  -0.004673  0  0.090576  0.084433  0  0.985274  0
H  H63  1  0.36835343  0.05893982  0.29315251  1  0.00674  0  0.079802  0.101026  0  1.011123  0
H  H64  1  0.37307050  0.09187419  0.40463135  1  0.051624  0  0.08872  0.122333  0  1.013964  0
H  H65  1  0.48516001  0.10003707  0.29871332  1  -0.019703  0  0.083131  0.106626  0  1.026748  0
H  H66  1  0.37065564  0.75969047  0.28239668  1  0.016375  0  0.078762  0.100309  0  1.033378  0
H  H67  1  0.32913585  0.74664821  0.40930297  1  0.055543  0  0.083809  0.118055  0  1.016112  0
H  H68  1  0.33849035  0.85404721  0.35710655  1  -0.008029  0  0.080488  0.104997  0  1.012309  0
H  H69  1  0.53376596  0.83020890  0.27749560  1  0.012323  0  0.085789  0.074903  0  0.988789  0
H  H70  1  0.52247533  0.72388596  0.33051981  1  0.042859  0  0.090489  0.091953  0  1.001591  0
H  H71  1  0.17547588  0.28300018  0.65166002  1  0.020418  0  0.08252  0.111828  0  1.010059  0
H  H72  1  0.26955856  0.28282060  0.53225977  1  0.008332  0  0.080862  0.108405  0  1.045318  0
H  H73  1  0.22060430  0.18142331  0.59078526  1  -0.001398  0  0.077963  0.099706  0  1.014742  0
H  H74  1  0.30568926  0.20811555  0.71040872  1  -0.023654  0  0.087468  0.08102  0  0.9768  0
H  H75  1  0.35023124  0.31005650  0.65384952  1  0.05854  0  0.092431  0.101188  0  1.006044  0
H  H76  1  0.32004958  0.72672640  0.69972437  1  0.034862  0  0.083269  0.115104  0  1.021083  0
H  H77  1  0.34955708  0.70986020  0.80510483  1  0.028375  0  0.079017  0.101664  0  1.023266  0
H  H78  1  0.32938306  0.81860849  0.76727712  1  0.006899  0  0.080467  0.104541  0  1.0127  0
H  H79  1  0.50995924  0.69042722  0.65864389  1  0.067455  0  0.094025  0.103853  0  1.020802  0
H  H80  1  0.52087552  0.78133452  0.72441521  1  0.008576  0  0.087022  0.079562  0  1.033479  0
H  H81  1  0.65093893  0.18297354  0.24191399  1  -0.015703  0  0.076948  0.095023  0  1.032922  0
H  H82  1  0.57708070  0.28211204  0.28107187  1  -0.001621  0  0.084108  0.116586  0  1.024233  0
H  H83  1  0.71165976  0.28672931  0.20941291  1  0.040049  0  0.080413  0.11296  0  1.018782  0
H  H84  1  0.68109636  0.31574654  0.38127629  1  0.053053  0  0.09313  0.103628  0  1.006565  0
H  H85  1  0.75699990  0.21895824  0.34307816  1  -0.021002  0  0.088038  0.082282  0  1.007557  0
H  H86  1  0.66159302  0.84039808  0.66094124  1  0.046683  0  0.084264  0.112146  0  1.023644  0
H  H87  1  0.71026560  0.94237042  0.60709287  1  0.011318  0  0.082398  0.108031  0  1.034079  0
H  H88  1  0.66501433  0.92971282  0.73406754  1  0.021799  0  0.081198  0.104664  0  1.035768  0
H  H89  1  0.53617644  0.01471992  0.67480793  1  0.03932  0  0.087926  0.08036  0  1.024304  0
H  H90  1  0.48277635  0.92137471  0.74544596  1  0.025466  0  0.087676  0.080558  0  0.991434  0
H  H91  1  0.81123659  0.13331585  0.43034684  1  0.002331  0  0.082149  0.105406  0  1.025834  0
H  H92  1  0.76794634  0.03566718  0.49800239  1  0.014242  0  0.0814  0.106487  0  1.040248  0
H  H93  1  0.86488097  0.02941983  0.38043616  1  0.02974  0  0.081835  0.106946  0  1.006292  0
H  H94  1  0.69153684  0.98640594  0.38018648  1  0.048433  0  0.089011  0.086567  0  1.010505  0
H  H95  1  0.73433494  0.08214697  0.31000002  1  0.019953  0  0.088444  0.081682  0  0.998979  0
C  C96  1  0.48807623  0.68043409  0.50476212  1  1.575896  0  0.219422  0.616253  0  4.164961  0
C  C97  1  0.50355086  0.34005274  0.50060712  1  1.564157  0  0.219953  0.613204  0  4.164119  0
C  C98  1  0.57551106  0.50562417  0.31696387  1  1.584397  0  0.209214  0.601876  0  4.196168  0
C  C99  1  0.41459100  0.49547696  0.68486821  1  1.570871  0  0.208734  0.60067  0  4.179344  0
C  C100  1  0.61121058  0.47868489  0.21414813  1  0.00211  0  -0.031641  -0.249345  0  3.928872  0
C  C101  1  0.38413841  0.45998556  0.78558201  1  0.002494  0  -0.034  -0.256685  0  3.905369  0
C  C102  1  0.75076100  0.43666004  0.06457922  1  0.003307  0  -0.110416  -0.278312  0  3.997781  0
C  C103  1  0.26244728  0.38421430  0.92684155  1  0.085753  0  -0.112029  -0.279052  0  3.987328  0
C  C104  1  0.71880558  0.47390517  0.15445398  1  0.445644  0  0.084826  0.262448  0  4.066691  0
C  C105  1  0.28243293  0.42797131  0.83988868  1  0.405829  0  0.088109  0.264283  0  4.054848  0
C  C106  1  0.53801337  0.44785628  0.17795705  1  0.512115  0  0.098872  0.227141  0  3.983754  0
C  C107  1  0.46161853  0.44654770  0.82533832  1  0.53955  0  0.100439  0.232991  0  3.972169  0
C  C108  1  0.56946088  0.40290567  0.08936608  1  0.01334  0  -0.0189  -0.089592  0  3.965241  0
C  C109  1  0.44522567  0.39360690  0.90848497  1  0.027886  0  -0.022076  -0.095036  0  3.995364  0
C  C110  1  0.67771810  0.40302932  0.02973227  1  0.007401  0  -0.009118  0.126829  0  4.074831  0
C  C111  1  0.34144944  0.36829690  0.96391394  1  -0.049757  0  -0.01067  0.129126  0  4.082832  0
C  C112  1  0.49506212  0.37542046  0.04897377  1  -0.003404  0  -0.003654  -0.028687  0  3.943841  0
C  C113  1  0.52551344  0.38050063  0.94789854  1  -0.019594  0  -0.004901  -0.03363  0  3.966522  0
C  C114  1  0.63510647  0.37049917  0.89087377  1  0.542194  0  0.083584  0.210547  0  4.069261  0
C  C115  1  0.39200340  0.34290280  0.10210451  1  0.478481  0  0.084353  0.212862  0  4.055986  0
C  C116  1  0.70816091  0.37736744  0.93219323  1  -0.04506  0  -0.10514  -0.259775  0  3.974762  0
C  C117  1  0.32038033  0.33552762  0.05900000  1  -0.038549  0  -0.10563  -0.261451  0  3.970154  0
C  C118  1  0.50967609  0.92077703  0.43409740  1  -0.107117  0  -0.101706  -0.208493  0  4.01149  0
C  C119  1  0.43800592  0.10419113  0.57593523  1  -0.07797  0  -0.101319  -0.210159  0  4.019662  0
C  C120  1  0.49775861  0.83053574  0.42915750  1  0.068059  0  -0.014032  0.095481  0  3.987409  0
C  C121  1  0.42886689  0.19580180  0.57299905  1  0.022879  0  -0.011905  0.098323  0  3.977889  0
C  C122  1  0.49168412  0.77877292  0.50975086  1  -0.078181  0  -0.019623  -0.133964  0  3.933062  0
C  C123  1  0.51000100  0.24118500  0.50313039  1  -0.019815  0  -0.018707  -0.139036  0  3.928224  0
C  C124  1  0.49794947  0.81565770  0.59245614  1  0.023997  0  -0.009725  0.055931  0  3.905503  0
C  C125  1  0.59841639  0.19667050  0.43905392  1  -0.051817  0  -0.007272  0.054736  0  3.902232  0
C  C126  1  0.51592358  0.90644908  0.59380370  1  -0.00892  0  -0.01457  0.009392  0  3.896064  0
C  C127  1  0.60712175  0.10406209  0.44527118  1  0.01304  0  -0.014935  0.006633  0  3.894627  0
C  C128  1  0.51960001  0.95962571  0.51428576  1  -0.0763  0  -0.012941  0.023873  0  4.009493  0
C  C129  1  0.52472249  0.05757903  0.51315729  1  -0.038653  0  -0.013026  0.021198  0  4.017021  0
C  C130  1  0.13340435  0.43917952  0.43198528  1  0.012866  0  0.007307  0.035436  0  3.900805  0
C  C131  1  0.86412637  0.47824507  0.58358212  1  -0.017844  0  0.004589  0.039504  0  3.89257  0
C  C132  1  0.23283136  0.44655077  0.43504173  1  0.501581  0  0.065848  0.053393  0  3.871044  0
C  C133  1  0.76268201  0.48254524  0.58382323  1  0.487974  0  0.058858  0.043053  0  3.860556  0
C  C134  1  0.18257532  0.56484613  0.53911915  1  0.503245  0  0.052639  0.086677  0  3.958575  0
C  C135  1  0.81937107  0.51873265  0.42116776  1  0.486022  0  0.053392  0.094834  0  3.929392  0
C  C136  1  0.08157706  0.56209672  0.54159507  1  -0.045816  0  -0.081031  -0.180353  0  3.996868  0
C  C137  1  0.92232557  0.51622144  0.41406998  1  -0.003636  0  -0.081078  -0.178525  0  3.987925  0
C  C138  1  0.05534266  0.49797310  0.48923515  1  -0.01846  0  0.016685  0.060308  0  3.950808  0
C  C139  1  0.94589997  0.49620212  0.49555279  1  -0.053144  0  0.01471  0.058441  0  3.955705  0
C  C140  1  0.11576952  0.37015011  0.36908692  1  -0.027798  0  -0.160846  -0.154769  0  3.980656  0
C  C141  1  0.05842265  0.28924542  0.42441383  1  -0.079402  0  -0.241377  -0.351486  0  3.947296  0
C  C142  1  0.88079350  0.45448028  0.67542325  1  -0.01705  0  -0.163316  -0.158655  0  3.993388  0
C  C143  1  0.93610646  0.36502743  0.67329245  1  -0.073317  0  -0.242558  -0.352826  0  3.94788  0
C  C144  1  0.54196329  0.57774716  0.83140705  1  0.443428  0  -0.065863  0.042769  0  3.87599  0
C  C145  1  0.64710372  0.62103051  0.79669798  1  0.013518  0  -0.167213  -0.127088  0  3.964169  0
C  C146  1  0.64322604  0.70501722  0.85235080  1  -0.062063  0  -0.242128  -0.351029  0  3.976614  0
C  C147  1  0.40709973  0.55200180  0.18937008  1  0.380536  0  -0.067828  0.042122  0  3.872968  0
C  C148  1  0.28953517  0.56455263  0.22556616  1  -0.040966  0  -0.16969  -0.126157  0  3.962152  0
C  C149  1  0.25754888  0.64019157  0.17234183  1  -0.02704  0  -0.24266  -0.348512  0  3.982609  0
C  C150  1  0.16715166  0.53151961  0.80390713  1  0.428527  0  -0.069838  0.033964  0  3.89201  0
C  C151  1  0.11852814  0.57559732  0.90131803  1  -0.001287  0  -0.17348  -0.145199  0  3.999026  0
C  C152  1  0.08480356  0.67095520  0.89137764  1  -0.038457  0  -0.244714  -0.353836  0  3.980647  0
C  C153  1  0.78425391  0.60552448  0.19172176  1  0.419593  0  -0.067457  0.033894  0  3.88596  0
C  C154  1  0.80475098  0.65373157  0.09649483  1  0.01359  0  -0.173123  -0.143103  0  3.992663  0
C  C155  1  0.80160013  0.75364920  0.10726609  1  -0.131863  0  -0.241787  -0.346701  0  3.982415  0
C  C156  1  0.63993427  0.26535846  0.77291607  1  0.377318  0  -0.064625  0.034024  0  3.870104  0
C  C157  1  0.70376093  0.19190524  0.79721962  1  0.004518  0  -0.173099  -0.141732  0  4.008296  0
C  C158  1  0.68050921  0.10208667  0.76786829  1  -0.097361  0  -0.241777  -0.347384  0  3.979743  0
C  C159  1  0.40547632  0.22588153  0.20508246  1  0.463996  0  -0.067118  0.040154  0  3.896578  0
C  C160  1  0.36596387  0.20139727  0.31096530  1  -0.006999  0  -0.169138  -0.133823  0  3.97038  0
C  C161  1  0.39978311  0.10782200  0.32762772  1  -0.021518  0  -0.244434  -0.352291  0  3.972446  0
C  C162  1  0.48830875  0.79107680  0.34120115  1  -0.002666  0  -0.162248  -0.140631  0  3.970156  0
C  C163  1  0.37484179  0.78775246  0.34783739  1  -0.06285  0  -0.246158  -0.342976  0  3.953265  0
C  C164  1  0.33248292  0.24279361  0.64050682  1  0.047974  0  -0.163499  -0.142191  0  3.954357  0
C  C165  1  0.24397501  0.24764613  0.60158340  1  -0.026052  0  -0.246818  -0.343647  0  3.951089  0
C  C166  1  0.47946103  0.75743152  0.68022760  1  -0.033155  0  -0.169669  -0.162882  0  3.964419  0
C  C167  1  0.36270979  0.75298389  0.74186560  1  -0.067783  0  -0.247281  -0.350351  0  3.964199  0
C  C168  1  0.67855041  0.24780917  0.35920250  1  0.040103  0  -0.167473  -0.151542  0  3.960013  0
C  C169  1  0.65338671  0.24985948  0.26742409  1  -0.029736  0  -0.247741  -0.346407  0  3.941946  0
C  C170  1  0.54072771  0.94250093  0.67597463  1  -0.020211  0  -0.164861  -0.143694  0  3.991121  0
C  C171  1  0.65044646  0.91198970  0.66962129  1  -0.081691  0  -0.246281  -0.357661  0  3.962322  0
C  C172  1  0.70666290  0.05635955  0.38412655  1  -0.013639  0  -0.165121  -0.142443  0  3.9867  0
C  C173  1  0.79285325  0.06422978  0.42520883  1  -0.055126  0  -0.243716  -0.347275  0  3.966084  0
N  N174  1  0.25623452  0.50676477  0.48752849  1  -1.254817  0  -0.325447  -0.19107  0  3.562276  0
N  N175  1  0.74118424  0.50293139  0.50520067  1  -1.261654  0  -0.324213  -0.190137  0  3.552375  0
O  O176  1  0.57680728  0.64101567  0.47904660  1  -1.168453  0  -0.322123  -0.555238  0  2.312619  0
O  O177  1  0.44097115  0.37753601  0.46618243  1  -1.16321  0  -0.30662  -0.53693  0  2.286344  0
O  O178  1  0.40037443  0.64432487  0.52596359  1  -1.169337  0  -0.312359  -0.54599  0  2.292975  0
O  O179  1  0.56176454  0.37942988  0.53502749  1  -1.162535  0  -0.316555  -0.549685  0  2.311996  0
O  O180  1  0.63604880  0.48330251  0.36093204  1  -1.154999  0  -0.309675  -0.542227  0  2.349343  0
O  O181  1  0.35578213  0.47720013  0.63946730  1  -1.158981  0  -0.310116  -0.538507  0  2.357451  0
O  O182  1  0.48638968  0.54299655  0.35539100  1  -1.1619  0  -0.313323  -0.541007  0  2.369801  0
O  O183  1  0.49985749  0.53591479  0.64787871  1  -1.171487  0  -0.313947  -0.541621  0  2.375498  0
O  O184  1  0.55373419  0.49092789  0.79079908  1  -1.060493  0  -0.19248  -0.229418  0  2.59947  0
O  O185  1  0.43345955  0.46768253  0.22265387  1  -1.054008  0  -0.194546  -0.22853  0  2.56372  0
O  O186  1  0.19825937  0.44107203  0.81263319  1  -1.06385  0  -0.203971  -0.232975  0  2.500089  0
O  O187  1  0.79445808  0.51092494  0.18031864  1  -1.085775  0  -0.210221  -0.249231  0  2.487569  0
O  O188  1  0.66872997  0.35060794  0.79500457  1  -1.079789  0  -0.195174  -0.229795  0  2.572323  0
O  O189  1  0.36495438  0.31313196  0.19555860  1  -1.067369  0  -0.200741  -0.242234  0  2.573918  0
