# generated using pymatgen
data_H12PbC14O5
_symmetry_space_group_name_H-M   'P 1'
_cell_length_a   7.45150333
_cell_length_b   11.38057351
_cell_length_c   15.41100000
_cell_angle_alpha   91.28677160
_cell_angle_beta   90.00000000
_cell_angle_gamma   90.00000000
_symmetry_Int_Tables_number   1
_chemical_formula_structural   H12PbC14O5
_chemical_formula_sum   'H48 Pb4 C56 O20'
_cell_volume   1306.55992870
_cell_formula_units_Z   4
loop_
 _symmetry_equiv_pos_site_id
 _symmetry_equiv_pos_as_xyz
  1  'x, y, z'
loop_
 _atom_site_type_symbol
 _atom_site_label
 _atom_site_symmetry_multiplicity
 _atom_site_fract_x
 _atom_site_fract_y
 _atom_site_fract_z
 _atom_site_occupancy
 _atom_site_hle17_bader_spin_density
 _atom_site_hle17_ddec_charge
 _atom_site_hle17_ddec_spin_density
 _atom_site_hle17_ddec_sum_bond_order
 _atom_site_hle17_magmom
 _atom_site_hse06_10hf_bader_spin_density
 _atom_site_hse06_10hf_ddec_charge
 _atom_site_hse06_10hf_ddec_spin_density
 _atom_site_hse06_10hf_ddec_sum_bond_order
 _atom_site_hse06_10hf_magmom
 _atom_site_hse06_bader_spin_density
 _atom_site_hse06_ddec_charge
 _atom_site_hse06_ddec_spin_density
 _atom_site_hse06_ddec_sum_bond_order
 _atom_site_hse06_magmom
 _atom_site_pbe_bader_charge
 _atom_site_pbe_bader_spin_density
 _atom_site_pbe_cm5_charge
 _atom_site_pbe_ddec_charge
 _atom_site_pbe_ddec_spin_density
 _atom_site_pbe_ddec_sum_bond_order
 _atom_site_pbe_magmom
H  H0  1  0.41578992  0.57233078  0.54650051  1  0  0.411907  0  0.901248  0  0  0.379472  0  0.967877  0  0  0.390591  0  0.95189  0  0.637539  0  0.293383  0.371625  0  0.979123  0
H  H1  1  0.91579775  0.92769511  0.45348901  1  0  0.4119  0  0.901291  0  0  0.379465  0  0.967881  0  0  0.390579  0  0.951905  0  0.637024  0  0.29332  0.371619  0  0.979122  0
H  H2  1  0.58423244  0.42768824  0.45349513  1  0  0.411964  0  0.901194  0  0  0.379513  0  0.967817  0  0  0.390629  0  0.951837  0  0.637266  0  0.293393  0.371667  0  0.97906  0
H  H3  1  0.08425414  0.07231600  0.54650974  1  0  0.4121  0  0.900957  0  0  0.379669  0  0.967555  0  0  0.390784  0  0.951576  0  0.637509  0  0.293471  0.371824  0  0.978797  0
H  H4  1  0.37858938  0.54609175  0.44496617  1  0  0.425286  0  0.879121  0  0  0.391856  0  0.946786  0  0  0.403629  0  0.929715  0  0.635164  0  0.293868  0.383503  0  0.958874  0
H  H5  1  0.87858244  0.95392888  0.55502392  1  0  0.42518  0  0.879288  0  0  0.391809  0  0.946856  0  0  0.403579  0  0.929787  0  0.635136  0  0.29384  0.383453  0  0.958951  0
H  H6  1  0.62140615  0.45393079  0.55502824  1  0  0.425184  0  0.879285  0  0  0.39184  0  0.946836  0  0  0.403616  0  0.929764  0  0.635234  0  0.293897  0.383489  0  0.958921  0
H  H7  1  0.12144261  0.04609542  0.44497375  1  0  0.425428  0  0.878903  0  0  0.391971  0  0.946621  0  0  0.403746  0  0.929547  0  0.635209  0  0.293892  0.383618  0  0.958711  0
H  H8  1  0.69101895  0.71643280  0.24113797  1  0  0.093648  0  0.960145  0  0  0.101067  0  1.02852  0  0  0.104061  0  1.026859  0  0.104008  0  0.102159  0.09892  0  1.029743  0
H  H9  1  0.19102320  0.78356497  0.75885758  1  0  0.093568  0  0.960194  0  0  0.101017  0  1.028524  0  0  0.104009  0  1.026865  0  0.104101  0  0.102139  0.098868  0  1.02975  0
H  H10  1  0.30896853  0.28356601  0.75886707  1  0  0.09355  0  0.960275  0  0  0.101037  0  1.028524  0  0  0.104036  0  1.026853  0  0.104768  0  0.102118  0.098881  0  1.029776  0
H  H11  1  0.80898172  0.21642768  0.24114087  1  0  0.093648  0  0.960256  0  0  0.101069  0  1.0286  0  0  0.104067  0  1.026936  0  0.104062  0  0.102166  0.098915  0  1.029848  0
H  H12  1  0.65767266  0.67248896  0.08308913  1  0  0.074305  0  0.986873  0  0  0.085069  0  1.052453  0  0  0.087312  0  1.051965  0  0.064869  0  0.094469  0.083468  0  1.052881  0
H  H13  1  0.15766751  0.82750266  0.91690891  1  0  0.074337  0  0.986641  0  0  0.085103  0  1.052241  0  0  0.087346  0  1.051753  0  0.065092  0  0.09451  0.083498  0  1.052676  0
H  H14  1  0.34230945  0.32750897  0.91691784  1  0  0.074362  0  0.986736  0  0  0.085141  0  1.052311  0  0  0.087382  0  1.051823  0  0.064638  0  0.094526  0.083538  0  1.052743  0
H  H15  1  0.84232667  0.17249175  0.08309087  1  0  0.074319  0  0.986792  0  0  0.085115  0  1.052332  0  0  0.087359  0  1.051845  0  0.064933  0  0.094516  0.083513  0  1.052762  0
H  H16  1  0.80845700  0.49769182  0.01625165  1  0  0.080108  0  0.966265  0  0  0.091787  0  1.029061  0  0  0.094113  0  1.028425  0  0.080265  0  0.097141  0.090123  0  1.029539  0
H  H17  1  0.30845588  0.00230275  0.98374658  1  0  0.080073  0  0.966302  0  0  0.091778  0  1.029066  0  0  0.094105  0  1.028425  0  0.079917  0  0.097124  0.090114  0  1.029543  0
H  H18  1  0.19152914  0.50230875  0.98375213  1  0  0.080054  0  0.966198  0  0  0.091773  0  1.028957  0  0  0.0941  0  1.02832  0  0.080163  0  0.097123  0.09011  0  1.029434  0
H  H19  1  0.69152891  0.99769782  0.01625200  1  0  0.080107  0  0.96621  0  0  0.091791  0  1.029002  0  0  0.094119  0  1.028363  0  0.079854  0  0.097139  0.090127  0  1.02948  0
H  H20  1  0.98297346  0.36167404  0.11013317  1  0  0.080213  0  0.974392  0  0  0.091458  0  1.036356  0  0  0.093455  0  1.037173  0  0.074118  0  0.094993  0.089996  0  1.035957  0
H  H21  1  0.48297502  0.13831965  0.88986828  1  0  0.080226  0  0.974387  0  0  0.091504  0  1.036327  0  0  0.093504  0  1.037137  0  0.074125  0  0.094973  0.090041  0  1.03593  0
H  H22  1  0.01701804  0.63832828  0.88987063  1  0  0.08021  0  0.974373  0  0  0.091478  0  1.036319  0  0  0.093477  0  1.037133  0  0.074033  0  0.09498  0.090016  0  1.035921  0
H  H23  1  0.51701916  0.86167652  0.11013282  1  0  0.080212  0  0.974393  0  0  0.091476  0  1.036339  0  0  0.093473  0  1.037155  0  0.074092  0  0.094981  0.090014  0  1.03594  0
H  H24  1  0.01039656  0.40557481  0.26783609  1  0  0.080391  0  0.987025  0  0  0.086364  0  1.060153  0  0  0.088764  0  1.059285  0  0.081805  0  0.098102  0.084616  0  1.060864  0
H  H25  1  0.51041244  0.09442151  0.73216736  1  0  0.080434  0  0.986867  0  0  0.086408  0  1.059995  0  0  0.08881  0  1.059121  0  0.081742  0  0.098125  0.084661  0  1.060709  0
H  H26  1  0.98959494  0.59442487  0.73216572  1  0  0.080384  0  0.986955  0  0  0.086416  0  1.060017  0  0  0.088818  0  1.059145  0  0.081772  0  0.098141  0.084668  0  1.060731  0
H  H27  1  0.48959919  0.90556938  0.26783561  1  0  0.080443  0  0.986937  0  0  0.086422  0  1.060059  0  0  0.088826  0  1.059184  0  0.081724  0  0.098134  0.084675  0  1.060772  0
H  H28  1  0.98545618  0.95845528  0.20624103  1  0  0.092092  0  0.990085  0  0  0.098681  0  1.059591  0  0  0.10101  0  1.059562  0  0.10914  0  0.099101  0.096996  0  1.059674  0
H  H29  1  0.48545774  0.54153547  0.79375376  1  0  0.092099  0  0.990144  0  0  0.098747  0  1.059601  0  0  0.101078  0  1.05957  0  0.108942  0  0.099131  0.097062  0  1.059684  0
H  H30  1  0.01454069  0.04154881  0.79376021  1  0  0.092026  0  0.990152  0  0  0.098639  0  1.059653  0  0  0.100967  0  1.059627  0  0.109201  0  0.099071  0.096955  0  1.059737  0
H  H31  1  0.51453376  0.45846071  0.20624410  1  0  0.092144  0  0.990099  0  0  0.098721  0  1.059602  0  0  0.101049  0  1.059575  0  0.108966  0  0.099129  0.097038  0  1.059683  0
H  H32  1  0.01595517  0.88685383  0.05253595  1  0  0.077466  0  0.965451  0  0  0.08965  0  1.026593  0  0  0.092084  0  1.026224  0  0.04596  0  0.094318  0.087902  0  1.026976  0
H  H33  1  0.51594287  0.61313691  0.94745559  1  0  0.077475  0  0.965488  0  0  0.089695  0  1.026578  0  0  0.092129  0  1.026207  0  0.046036  0  0.094348  0.087946  0  1.02696  0
H  H34  1  0.98404438  0.11315025  0.94746205  1  0  0.077463  0  0.965435  0  0  0.089644  0  1.026577  0  0  0.092077  0  1.026209  0  0.037844  0  0.094339  0.087897  0  1.026958  0
H  H35  1  0.48404058  0.38685750  0.05254159  1  0  0.077442  0  0.965469  0  0  0.089667  0  1.026572  0  0  0.092101  0  1.026203  0  0.04601  0  0.09434  0.087922  0  1.026949  0
H  H36  1  0.19221222  0.70451124  0.01944004  1  0  0.074715  0  0.980176  0  0  0.086695  0  1.044077  0  0  0.089116  0  1.042673  0  0.04507  0  0.095484  0.084972  0  1.04506  0
H  H37  1  0.69220395  0.79548126  0.98055477  1  0  0.074684  0  0.980121  0  0  0.086628  0  1.044054  0  0  0.089049  0  1.04265  0  0.044866  0  0.095468  0.084904  0  1.04504  0
H  H38  1  0.80775781  0.29548757  0.98056110  1  0  0.074742  0  0.98002  0  0  0.086683  0  1.043971  0  0  0.089103  0  1.042569  0  0.044991  0  0.095472  0.084958  0  1.044955  0
H  H39  1  0.30778621  0.20451227  0.01944434  1  0  0.074733  0  0.980233  0  0  0.086698  0  1.044134  0  0  0.089118  0  1.042733  0  0.045109  0  0.095505  0.084973  0  1.04512  0
H  H40  1  0.33056283  0.59384215  0.13937104  1  0  0.080744  0  0.979811  0  0  0.090918  0  1.044554  0  0  0.093112  0  1.044804  0  0.092417  0  0.095274  0.089305  0  1.044511  0
H  H41  1  0.83056663  0.90614595  0.86062500  1  0  0.080644  0  0.979916  0  0  0.090846  0  1.044607  0  0  0.093079  0  1.044823  0  0.092195  0  0.095251  0.089244  0  1.044531  0
H  H42  1  0.66940586  0.40614786  0.86062542  1  0  0.080727  0  0.980022  0  0  0.090953  0  1.044674  0  0  0.093158  0  1.044936  0  0.091988  0  0.095287  0.08935  0  1.044598  0
H  H43  1  0.16943427  0.09384319  0.13937534  1  0  0.080712  0  0.979882  0  0  0.090901  0  1.0446  0  0  0.093104  0  1.044846  0  0.092162  0  0.095281  0.0893  0  1.044522  0
H  H44  1  0.30158612  0.66725152  0.29170580  1  0  0.105229  0  0.945395  0  0  0.112826  0  1.009909  0  0  0.116672  0  1.007238  0  0.09766  0  0.106083  0.110036  0  1.011892  0
H  H45  1  0.80158993  0.83274186  0.70829162  1  0  0.10531  0  0.94532  0  0  0.112863  0  1.009882  0  0  0.116714  0  1.007203  0  0.097508  0  0.10607  0.11007  0  1.011868  0
H  H46  1  0.69839733  0.33274641  0.70829598  1  0  0.105197  0  0.945325  0  0  0.112767  0  1.009889  0  0  0.116614  0  1.007212  0  0.097577  0  0.106053  0.109976  0  1.011871  0
H  H47  1  0.19840963  0.16725168  0.29170814  1  0  0.105236  0  0.945343  0  0  0.112787  0  1.009916  0  0  0.116633  0  1.007244  0  0.097578  0  0.106053  0.109999  0  1.011898  0
Pb  Pb48  1  0.03307520  0.68767656  0.52642905  1  0  1.443901  0  1.359006  0  0  1.272778  0  1.746985  0  0  1.332611  0  1.700108  0  1.494562  0  0.672586  1.229058  0  1.780117  0
Pb  Pb49  1  0.53307498  0.81233967  0.47357200  1  0  1.443911  0  1.358959  0  0  1.272784  0  1.746916  0  0  1.33262  0  1.700046  0  1.494519  0  0.67261  1.229067  0  1.780043  0
Pb  Pb50  1  0.96699547  0.31231962  0.47356167  1  0  1.443916  0  1.358899  0  0  1.272799  0  1.746846  0  0  1.332635  0  1.699977  0  1.494546  0  0.6726  1.229079  0  1.779975  0
Pb  Pb51  1  0.46699167  0.18770044  0.52643762  1  0  1.443886  0  1.358939  0  0  1.272762  0  1.746895  0  0  1.3326  0  1.70002  0  1.49457  0  0.672601  1.229026  0  1.780054  0
C  C52  1  0.85033311  0.56279723  0.26418227  1  0  -0.064137  0  3.748456  0  0  -0.038737  0  3.976707  0  0  -0.046926  0  3.998126  0  0.01064  0  -0.015656  -0.033489  0  3.962354  0
C  C53  1  0.35033736  0.93720318  0.73581722  1  0  -0.064044  0  3.748296  0  0  -0.038678  0  3.976572  0  0  -0.046866  0  3.997985  0  0.010538  0  -0.015602  -0.033427  0  3.96222  0
C  C54  1  0.14966108  0.43719982  0.73582015  1  0  -0.063965  0  3.74819  0  0  -0.038454  0  3.976224  0  0  -0.046642  0  3.997638  0  0.010086  0  -0.015577  -0.033197  0  3.961874  0
C  C55  1  0.64966488  0.06279475  0.26418521  1  0  -0.064152  0  3.748615  0  0  -0.038563  0  3.97659  0  0  -0.046751  0  3.998007  0  0.010615  0  -0.015642  -0.033315  0  3.962246  0
C  C56  1  0.75080017  0.63778600  0.21186865  1  0  -0.049383  0  3.711781  0  0  -0.072973  0  3.955128  0  0  -0.071745  0  3.974672  0  -0.081645  0  -0.077537  -0.073551  0  3.94181  0
C  C57  1  0.25080442  0.86221178  0.78813210  1  0  -0.049293  0  3.71204  0  0  -0.072882  0  3.955404  0  0  -0.071651  0  3.974944  0  -0.081724  0  -0.077525  -0.073458  0  3.942075  0
C  C58  1  0.24918596  0.36221105  0.78813831  1  0  -0.049322  0  3.71215  0  0  -0.072959  0  3.955449  0  0  -0.071737  0  3.975011  0  -0.082078  0  -0.077458  -0.073529  0  3.94209  0
C  C59  1  0.74920050  0.13778615  0.21186969  1  0  -0.049358  0  3.711894  0  0  -0.072996  0  3.955205  0  0  -0.071768  0  3.974745  0  -0.081493  0  -0.077529  -0.073579  0  3.941886  0
C  C60  1  0.73409750  0.61309033  0.12335515  1  0  -0.087575  0  3.789009  0  0  -0.097576  0  4.035893  0  0  -0.101684  0  4.058745  0  0.028219  0  -0.093692  -0.094851  0  4.02034  0
C  C61  1  0.23410175  0.88690745  0.87663845  1  0  -0.087642  0  3.789057  0  0  -0.097668  0  4.035994  0  0  -0.101775  0  4.058848  0  0.028337  0  -0.093716  -0.09494  0  4.02044  0
C  C62  1  0.26588997  0.38690409  0.87664333  1  0  -0.087694  0  3.788942  0  0  -0.097745  0  4.035903  0  0  -0.101853  0  4.058752  0  0.028431  0  -0.093771  -0.095017  0  4.020356  0
C  C63  1  0.76589914  0.11308609  0.12335612  1  0  -0.087629  0  3.789066  0  0  -0.097668  0  4.035996  0  0  -0.10178  0  4.05885  0  0.028134  0  -0.093728  -0.094941  0  4.020441  0
C  C64  1  0.81757194  0.51422943  0.08612488  1  0  -0.06878  0  3.77211  0  0  -0.082931  0  4.017711  0  0  -0.083411  0  4.038971  0  -0.196122  0  -0.089943  -0.082352  0  4.003112  0
C  C65  1  0.31757216  0.98576834  0.91387521  1  0  -0.068698  0  3.771915  0  0  -0.082857  0  4.017516  0  0  -0.083336  0  4.038776  0  -0.196139  0  -0.089923  -0.082279  0  4.002918  0
C  C66  1  0.18241957  0.48576938  0.91387886  1  0  -0.068619  0  3.771682  0  0  -0.082803  0  4.017308  0  0  -0.083282  0  4.038566  0  -0.196028  0  -0.08994  -0.082224  0  4.002705  0
C  C67  1  0.68242203  0.01423046  0.08612594  1  0  -0.068658  0  3.772107  0  0  -0.082813  0  4.017713  0  0  -0.083291  0  4.038973  0  -0.195887  0  -0.089932  -0.082231  0  4.003109  0
C  C68  1  0.91513614  0.43831165  0.13835886  1  0  -0.078798  0  3.767794  0  0  -0.088571  0  4.013676  0  0  -0.092696  0  4.036808  0  -0.048709  0  -0.09318  -0.085854  0  3.99797  0
C  C69  1  0.41514307  0.06168907  0.86164206  1  0  -0.078839  0  3.767811  0  0  -0.088654  0  4.013701  0  0  -0.09278  0  4.03683  0  -0.048693  0  -0.093202  -0.085939  0  3.998  0
C  C70  1  0.08485268  0.56168804  0.86164295  1  0  -0.078866  0  3.767854  0  0  -0.088667  0  4.013763  0  0  -0.092792  0  4.036889  0  -0.048738  0  -0.093187  -0.085952  0  3.998062  0
C  C71  1  0.58485916  0.93831061  0.13835651  1  0  -0.078829  0  3.767703  0  0  -0.088631  0  4.013588  0  0  -0.092757  0  4.036718  0  -0.048595  0  -0.093171  -0.085915  0  3.997887  0
C  C72  1  0.93064039  0.46239296  0.22708603  1  0  -0.059642  0  3.725397  0  0  -0.083792  0  3.969609  0  0  -0.082953  0  3.990145  0  -0.034255  0  -0.080588  -0.084108  0  3.955636  0
C  C73  1  0.43065135  0.03760689  0.77291747  1  0  -0.059738  0  3.725215  0  0  -0.083885  0  3.969464  0  0  -0.083043  0  3.989995  0  -0.033899  0  -0.080654  -0.084204  0  3.955495  0
C  C74  1  0.06934842  0.53760585  0.77291836  1  0  -0.059678  0  3.725305  0  0  -0.083931  0  3.969513  0  0  -0.083089  0  3.990042  0  -0.033917  0  -0.080663  -0.084253  0  3.955547  0
C  C75  1  0.56935625  0.96239104  0.22708756  1  0  -0.059727  0  3.725247  0  0  -0.083927  0  3.969392  0  0  -0.083088  0  3.989924  0  -0.034201  0  -0.080628  -0.084244  0  3.955423  0
C  C76  1  0.88256687  0.59566941  0.35712050  1  0  0.668498  0  3.892054  0  0  0.615112  0  4.182402  0  0  0.65161  0  4.174498  0  1.561548  0  0.217029  0.590272  0  4.186789  0
C  C77  1  0.38257649  0.90433803  0.64288105  1  0  0.668556  0  3.892254  0  0  0.615196  0  4.182565  0  0  0.651695  0  4.174651  0  1.561365  0  0.217018  0.590355  0  4.186956  0
C  C78  1  0.11743536  0.40433291  0.64288071  1  0  0.66826  0  3.892475  0  0  0.614935  0  4.182669  0  0  0.651433  0  4.174764  0  1.561551  0  0.216948  0.590082  0  4.187076  0
C  C79  1  0.61743111  0.09566517  0.35712147  1  0  0.668486  0  3.892226  0  0  0.61505  0  4.182548  0  0  0.651547  0  4.174644  0  1.561518  0  0.21694  0.590203  0  4.186948  0
C  C80  1  0.14558539  0.81953972  0.25758472  1  0  -0.077829  0  3.750063  0  0  -0.053856  0  3.982667  0  0  -0.06269  0  4.005474  0  -0.039838  0  -0.020549  -0.048187  0  3.967366  0
C  C81  1  0.64559053  0.68045366  0.74241335  1  0  -0.077633  0  3.750072  0  0  -0.053615  0  3.982592  0  0  -0.062456  0  4.005404  0  -0.040113  0  -0.020502  -0.047944  0  3.967293  0
C  C82  1  0.85439538  0.18046085  0.74241581  1  0  -0.078008  0  3.750413  0  0  -0.053753  0  3.98274  0  0  -0.062662  0  4.005649  0  -0.039477  0  -0.020563  -0.048045  0  3.967385  0
C  C83  1  0.35441439  0.31954251  0.25758516  1  0  -0.07784  0  3.750054  0  0  -0.053837  0  3.982633  0  0  -0.062669  0  4.005439  0  -0.039732  0  -0.020603  -0.048168  0  3.967329  0
C  C84  1  0.06363146  0.88018201  0.19010553  1  0  -0.060999  0  3.728433  0  0  -0.084032  0  3.970339  0  0  -0.083286  0  3.991753  0  -0.080407  0  -0.082093  -0.084255  0  3.955769  0
C  C85  1  0.56362586  0.61980521  0.80988855  1  0  -0.061078  0  3.728237  0  0  -0.084224  0  3.97019  0  0  -0.083476  0  3.991598  0  -0.080777  0  -0.082191  -0.084446  0  3.95562  0
C  C86  1  0.93636139  0.11981680  0.80989172  1  0  -0.060959  0  3.728011  0  0  -0.084114  0  3.969877  0  0  -0.083345  0  3.991307  0  -0.08054  0  -0.082091  -0.084351  0  3.9553  0
C  C87  1  0.43636564  0.38018480  0.19010727  1  0  -0.061037  0  3.728309  0  0  -0.084071  0  3.970246  0  0  -0.083328  0  3.991661  0  -0.080417  0  -0.082076  -0.08429  0  3.95567  0
C  C88  1  0.08081322  0.83937061  0.10465163  1  0  -0.088258  0  3.78986  0  0  -0.097819  0  4.036856  0  0  -0.102276  0  4.059741  0  -0.007272  0  -0.096865  -0.094894  0  4.021309  0
C  C89  1  0.58080897  0.66062277  0.89534320  1  0  -0.088457  0  3.789868  0  0  -0.098039  0  4.036937  0  0  -0.102493  0  4.059815  0  -0.006993  0  -0.096919  -0.095113  0  4.02139  0
C  C90  1  0.91917694  0.16063699  0.89535356  1  0  -0.088193  0  3.789485  0  0  -0.097759  0  4.03653  0  0  -0.102212  0  4.059407  0  0.000797  0  -0.096856  -0.094835  0  4.020985  0
C  C91  1  0.41917984  0.33937253  0.10465335  1  0  -0.088275  0  3.789761  0  0  -0.097875  0  4.036805  0  0  -0.10233  0  4.059688  0  -0.007282  0  -0.096916  -0.094951  0  4.021256  0
C  C92  1  0.17848479  0.73699846  0.08617307  1  0  -0.065364  0  3.771177  0  0  -0.079606  0  4.014384  0  0  -0.079686  0  4.035393  0  -0.034371  0  -0.089429  -0.079265  0  3.999931  0
C  C93  1  0.67847517  0.76298789  0.91382034  1  0  -0.065088  0  3.771184  0  0  -0.079287  0  4.014372  0  0  -0.079371  0  4.035402  0  -0.03346  0  -0.08936  -0.07895  0  3.999923  0
C  C94  1  0.82149866  0.26299859  0.91382350  1  0  -0.065173  0  3.771128  0  0  -0.079377  0  4.014332  0  0  -0.079454  0  4.035342  0  -0.034229  0  -0.089348  -0.079038  0  3.999883  0
C  C95  1  0.32151230  0.23700389  0.08617680  1  0  -0.065273  0  3.771134  0  0  -0.079502  0  4.014352  0  0  -0.079578  0  4.035357  0  -0.034198  0  -0.089412  -0.079166  0  3.999912  0
C  C96  1  0.25792648  0.67511339  0.15333187  1  0  -0.075699  0  3.76959  0  0  -0.08442  0  4.014051  0  0  -0.088367  0  4.037003  0  -0.113065  0  -0.092357  -0.081785  0  3.998449  0
C  C97  1  0.75792625  0.82487999  0.84666556  1  0  -0.075675  0  3.769553  0  0  -0.084404  0  4.013965  0  0  -0.088386  0  4.0369  0  -0.11295  0  -0.092322  -0.081764  0  3.998371  0
C  C98  1  0.74205429  0.32488630  0.84667060  1  0  -0.07596  0  3.769714  0  0  -0.084708  0  4.01417  0  0  -0.088678  0  4.037099  0  -0.112813  0  -0.092419  -0.082067  0  3.998576  0
C  C99  1  0.24206793  0.17511530  0.15333423  1  0  -0.075738  0  3.769535  0  0  -0.084454  0  4.013972  0  0  -0.088411  0  4.03692  0  -0.112801  0  -0.092351  -0.081814  0  3.998377  0
C  C100  1  0.24197802  0.71614012  0.23889511  1  0  -0.060751  0  3.706913  0  0  -0.084185  0  3.952461  0  0  -0.083644  0  3.972132  0  -0.029855  0  -0.079789  -0.08424  0  3.939037  0
C  C101  1  0.74197779  0.78384798  0.76109899  1  0  -0.060901  0  3.707206  0  0  -0.084325  0  3.952742  0  0  -0.083786  0  3.97243  0  -0.029676  0  -0.079809  -0.084377  0  3.939316  0
C  C102  1  0.75800812  0.28385605  0.76110016  1  0  -0.060493  0  3.706727  0  0  -0.084004  0  3.952258  0  0  -0.083436  0  3.971945  0  -0.029851  0  -0.079741  -0.084071  0  3.938823  0
C  C103  1  0.25801773  0.21614291  0.23890009  1  0  -0.06075  0  3.706866  0  0  -0.08416  0  3.95242  0  0  -0.083621  0  3.972093  0  -0.029833  0  -0.079769  -0.084218  0  3.938997  0
C  C104  1  0.12746019  0.86431325  0.34914741  1  0  0.67751  0  3.871892  0  0  0.61922  0  4.171146  0  0  0.654802  0  4.161866  0  1.552208  0  0.221194  0.595057  0  4.176696  0
C  C105  1  0.62747338  0.63567749  0.65084737  1  0  0.677245  0  3.872058  0  0  0.618972  0  4.171224  0  0  0.654571  0  4.161914  0  1.552791  0  0.221155  0.594801  0  4.176794  0
C  C106  1  0.87252863  0.13567413  0.65085095  1  0  0.677267  0  3.872244  0  0  0.618818  0  4.17164  0  0  0.654418  0  4.162367  0  1.552514  0  0.221044  0.594643  0  4.177183  0
C  C107  1  0.37254362  0.36431781  0.34914983  1  0  0.677389  0  3.871884  0  0  0.619072  0  4.171177  0  0  0.654656  0  4.161901  0  1.552389  0  0.221147  0.594911  0  4.176724  0
O  O108  1  0.35481162  0.60332210  0.49396080  1  0  -0.87759  0  1.927805  0  0  -0.802711  0  2.119783  0  0  -0.829891  0  2.088023  0  -1.262087  0  -0.550098  -0.783209  0  2.14177  0
O  O109  1  0.85483019  0.89669061  0.50602916  1  0  -0.877531  0  1.927919  0  0  -0.802669  0  2.119933  0  0  -0.829845  0  2.088183  0  -1.261605  0  -0.550056  -0.783171  0  2.14193  0
O  O110  1  0.64519464  0.39669517  0.50603677  1  0  -0.877601  0  1.927848  0  0  -0.802773  0  2.119786  0  0  -0.829961  0  2.088014  0  -1.261962  0  -0.550155  -0.783273  0  2.141779  0
O  O111  1  0.14520426  0.10332665  0.49396970  1  0  -0.877822  0  1.927506  0  0  -0.802928  0  2.119529  0  0  -0.830107  0  2.08777  0  -1.26213  0  -0.550152  -0.783429  0  2.141526  0
O  O112  1  0.81604473  0.69100148  0.38797468  1  0  -0.690576  0  1.990215  0  0  -0.618478  0  2.226326  0  0  -0.650746  0  2.219738  0  -1.194828  0  -0.298633  -0.595701  0  2.230155  0
O  O113  1  0.31602885  0.80901211  0.61202048  1  0  -0.690595  0  1.990174  0  0  -0.618523  0  2.226316  0  0  -0.650792  0  2.219721  0  -1.194712  0  -0.298648  -0.595743  0  2.230146  0
O  O114  1  0.18398167  0.30901139  0.61202280  1  0  -0.69046  0  1.990441  0  0  -0.618413  0  2.226531  0  0  -0.650679  0  2.219938  0  -1.194727  0  -0.298596  -0.595629  0  2.230367  0
O  O115  1  0.68395997  0.19100252  0.38797509  1  0  -0.690589  0  1.990086  0  0  -0.618494  0  2.226208  0  0  -0.650766  0  2.21962  0  -1.194717  0  -0.298614  -0.595709  0  2.230039  0
O  O116  1  0.98652979  0.53108432  0.40237481  1  0  -0.698404  0  1.989473  0  0  -0.622707  0  2.229358  0  0  -0.655434  0  2.22171  0  -1.192892  0  -0.297858  -0.599543  0  2.233826  0
O  O117  1  0.48654477  0.96891609  0.59763441  1  0  -0.698482  0  1.989704  0  0  -0.622787  0  2.22958  0  0  -0.655509  0  2.221928  0  -1.193172  0  -0.297847  -0.599624  0  2.234049  0
O  O118  1  0.01347782  0.46891536  0.59762441  1  0  -0.698326  0  1.989513  0  0  -0.622677  0  2.229374  0  0  -0.6554  0  2.221723  0  -1.192965  0  -0.297829  -0.59951  0  2.233849  0
O  O119  1  0.51348833  0.03108272  0.40238036  1  0  -0.698387  0  1.989618  0  0  -0.622694  0  2.229515  0  0  -0.655418  0  2.221865  0  -1.193023  0  -0.297808  -0.599527  0  2.233989  0
O  O120  1  0.03973561  0.95869961  0.36385588  1  0  -0.621637  0  1.968943  0  0  -0.558613  0  2.185506  0  0  -0.583457  0  2.174605  0  -1.184997  0  -0.307375  -0.54138  0  2.192605  0
O  O121  1  0.53975954  0.54129289  0.63613894  1  0  -0.621491  0  1.969187  0  0  -0.558472  0  2.185679  0  0  -0.583335  0  2.174798  0  -1.185579  0  -0.307421  -0.541248  0  2.192794  0
O  O122  1  0.96023040  0.04127898  0.63614883  1  0  -0.621453  0  1.969172  0  0  -0.558408  0  2.185735  0  0  -0.583258  0  2.174861  0  -1.185215  0  -0.307294  -0.541175  0  2.192836  0
O  O123  1  0.46026685  0.45870504  0.36385376  1  0  -0.621486  0  1.968864  0  0  -0.558497  0  2.185506  0  0  -0.583319  0  2.174562  0  -1.18511  0  -0.307359  -0.541264  0  2.192604  0
O  O124  1  0.20161972  0.80399528  0.40885702  1  0  -0.740659  0  2.078541  0  0  -0.662014  0  2.333191  0  0  -0.694126  0  2.32439  0  -1.214746  0  -0.30957  -0.63926  0  2.33854  0
O  O125  1  0.70162889  0.69600337  0.59114050  1  0  -0.740487  0  2.078604  0  0  -0.661868  0  2.333266  0  0  -0.693985  0  2.32446  0  -1.214892  0  -0.309459  -0.639104  0  2.338612  0
O  O126  1  0.79839594  0.19600440  0.59113571  1  0  -0.740541  0  2.078531  0  0  -0.661899  0  2.333311  0  0  -0.694013  0  2.324512  0  -1.214913  0  -0.309493  -0.639139  0  2.338652  0
O  O127  1  0.29839079  0.30399808  0.40886199  1  0  -0.740631  0  2.078636  0  0  -0.661962  0  2.333293  0  0  -0.69408  0  2.324499  0  -1.214915  0  -0.309511  -0.639204  0  2.338634  0
