# generated using pymatgen
data_ZnH12C16(NO2)2
_symmetry_space_group_name_H-M   'P 1'
_cell_length_a   7.77385410
_cell_length_b   9.53678442
_cell_length_c   12.91043840
_cell_angle_alpha   112.01287324
_cell_angle_beta   107.90433745
_cell_angle_gamma   89.00151128
_symmetry_Int_Tables_number   1
_chemical_formula_structural   ZnH12C16(NO2)2
_chemical_formula_sum   'Zn2 H24 C32 N4 O8'
_cell_volume   839.19261427
_cell_formula_units_Z   2
loop_
 _symmetry_equiv_pos_site_id
 _symmetry_equiv_pos_as_xyz
  1  'x, y, z'
loop_
 _atom_site_type_symbol
 _atom_site_label
 _atom_site_symmetry_multiplicity
 _atom_site_fract_x
 _atom_site_fract_y
 _atom_site_fract_z
 _atom_site_occupancy
 _atom_site_hle17_bader_spin_density
 _atom_site_hle17_ddec_charge
 _atom_site_hle17_ddec_spin_density
 _atom_site_hle17_ddec_sum_bond_order
 _atom_site_hle17_magmom
 _atom_site_hse06_10hf_bader_spin_density
 _atom_site_hse06_10hf_ddec_charge
 _atom_site_hse06_10hf_ddec_spin_density
 _atom_site_hse06_10hf_ddec_sum_bond_order
 _atom_site_hse06_10hf_magmom
 _atom_site_hse06_bader_spin_density
 _atom_site_hse06_ddec_charge
 _atom_site_hse06_ddec_spin_density
 _atom_site_hse06_ddec_sum_bond_order
 _atom_site_hse06_magmom
 _atom_site_pbe_bader_spin_density
 _atom_site_pbe_cm5_charge
 _atom_site_pbe_ddec_charge
 _atom_site_pbe_ddec_spin_density
 _atom_site_pbe_ddec_sum_bond_order
 _atom_site_pbe_magmom
Zn  Zn0  1  0.29014369  0.10863475  0.19798759  1  0  0.9688  0  1.886941  0  0  0.774923  0  2.362141  0  0  0.822808  0  2.309275  0  0  0.687548  0.741807  0  2.398015  0
Zn  Zn1  1  0.59198369  0.91068339  0.80212825  1  0  0.969515  0  1.887756  0  0  0.775777  0  2.363232  0  0  0.823692  0  2.310196  0  0  0.687865  0.742649  0  2.399221  0
H  H2  1  0.65983020  0.15828708  0.72557686  1  0  0.090817  0  0.959064  0  0  0.09873  0  1.022531  0  0  0.101847  0  1.019638  0  0  0.118074  0.096362  0  1.02477  0
H  H3  1  0.43420150  0.43270814  0.27422369  1  0  0.090731  0  0.958273  0  0  0.098635  0  1.021595  0  0  0.101849  0  1.018564  0  0  0.118207  0.096322  0  1.023738  0
H  H4  1  0.80862206  0.42610735  0.81823731  1  0  0.117041  0  0.929721  0  0  0.131294  0  0.979027  0  0  0.134645  0  0.978363  0  0  0.116023  0.128969  0  0.979775  0
H  H5  1  0.49024843  0.60760584  0.18141616  1  0  0.11713  0  0.9295  0  0  0.13075  0  0.97943  0  0  0.134082  0  0.97879  0  0  0.116106  0.128462  0  0.980109  0
H  H6  1  0.98102392  0.37281773  0.15286838  1  0  0.115109  0  0.956724  0  0  0.124917  0  1.015634  0  0  0.128132  0  1.014863  0  0  0.109915  0.122629  0  1.016058  0
H  H7  1  0.32783253  0.21935240  0.84684578  1  0  0.114266  0  0.958067  0  0  0.124254  0  1.016894  0  0  0.12745  0  1.016115  0  0  0.109644  0.121904  0  1.017427  0
H  H8  1  0.82911897  0.10834868  0.04596137  1  0  0.09865  0  0.930901  0  0  0.107271  0  0.992261  0  0  0.11024  0  0.98929  0  0  0.12356  0.104952  0  0.994783  0
H  H9  1  0.28317436  0.06201001  0.95397677  1  0  0.098789  0  0.931376  0  0  0.107688  0  0.992332  0  0  0.110672  0  0.989314  0  0  0.123655  0.105356  0  0.994853  0
H  H10  1  0.05159407  0.61672019  0.15586960  1  0  0.104926  0  0.934223  0  0  0.115779  0  0.991643  0  0  0.119676  0  0.988737  0  0  0.108718  0.112914  0  0.993813  0
H  H11  1  0.39514454  0.46052996  0.84381634  1  0  0.104069  0  0.934864  0  0  0.115041  0  0.992143  0  0  0.118856  0  0.989328  0  0  0.108447  0.112225  0  0.994292  0
H  H12  1  0.99555647  0.65104124  0.92034792  1  0  0.11082  0  0.954378  0  0  0.120114  0  1.015312  0  0  0.123329  0  1.015108  0  0  0.104576  0.11785  0  1.015547  0
H  H13  1  0.57544216  0.73009128  0.07946777  1  0  0.11082  0  0.953879  0  0  0.119882  0  1.015083  0  0  0.123178  0  1.014786  0  0  0.104625  0.117533  0  1.015427  0
H  H14  1  0.63093801  0.03594821  0.15065148  1  0  0.084849  0  0.959009  0  0  0.089734  0  1.029952  0  0  0.093055  0  1.026596  0  0  0.113975  0.08736  0  1.032171  0
H  H15  1  0.97984526  0.88566417  0.84941554  1  0  0.084165  0  0.959289  0  0  0.089165  0  1.030091  0  0  0.092519  0  1.0267  0  0  0.113927  0.086779  0  1.032323  0
H  H16  1  0.93876249  0.98379184  0.25305596  1  0  0.128502  0  0.975493  0  0  0.136074  0  1.036756  0  0  0.139843  0  1.035449  0  0  0.109701  0.133298  0  1.037955  0
H  H17  1  0.18547169  0.73116577  0.74714572  1  0  0.128819  0  0.974252  0  0  0.13649  0  1.035418  0  0  0.140222  0  1.034158  0  0  0.109881  0.133696  0  1.036666  0
H  H18  1  0.74920474  0.02864602  0.54495561  1  0  0.113203  0  0.95039  0  0  0.124184  0  1.008554  0  0  0.12752  0  1.007319  0  0  0.110208  0.121795  0  1.009611  0
H  H19  1  0.70426411  0.48328131  0.45530681  1  0  0.11286  0  0.95018  0  0  0.124051  0  1.008198  0  0  0.127392  0  1.006975  0  0  0.109903  0.121675  0  1.009177  0
H  H20  1  0.45451949  0.08160614  0.43414650  1  0  0.09585  0  0.928986  0  0  0.103814  0  0.991841  0  0  0.106993  0  0.988335  0  0  0.122574  0.10142  0  0.994533  0
H  H21  1  0.52021886  0.64696282  0.56602280  1  0  0.095493  0  0.928673  0  0  0.102956  0  0.992141  0  0  0.106112  0  0.988638  0  0  0.122658  0.100584  0  0.994808  0
H  H22  1  0.15313779  0.96645754  0.41932342  1  0  0.11811  0  0.936864  0  0  0.127185  0  0.998225  0  0  0.130848  0  0.995039  0  0  0.111956  0.124519  0  1.000563  0
H  H23  1  0.23379054  0.54732307  0.58081223  1  0  0.118174  0  0.937244  0  0  0.127192  0  0.998706  0  0  0.130887  0  0.995497  0  0  0.111666  0.124507  0  1.001061  0
H  H24  1  0.03312202  0.00119312  0.63361140  1  0  0.107034  0  0.95168  0  0  0.115785  0  1.01324  0  0  0.119631  0  1.012295  0  0  0.100652  0.113169  0  1.013864  0
H  H25  1  0.89934462  0.36674967  0.36698204  1  0  0.106652  0  0.954233  0  0  0.114936  0  1.016251  0  0  0.118772  0  1.015339  0  0  0.100658  0.112344  0  1.016795  0
C  C26  1  0.73663927  0.21133098  0.81975405  1  0  0.115145  0  3.709211  0  0  0.084726  0  3.958034  0  0  0.091046  0  3.976558  0  0  0.04332  0.080938  0  3.946112  0
C  C27  1  0.41685089  0.39141682  0.18004258  1  0  0.113083  0  3.708911  0  0  0.082754  0  3.957735  0  0  0.089019  0  3.976166  0  0  0.043128  0.07863  0  3.946449  0
C  C28  1  0.81968367  0.35965539  0.87223306  1  0  -0.150397  0  3.685861  0  0  -0.165057  0  3.925465  0  0  -0.172762  0  3.946462  0  0  -0.074985  -0.1616  0  3.912594  0
C  C29  1  0.44735842  0.48711782  0.12748362  1  0  -0.148965  0  3.686632  0  0  -0.162877  0  3.926102  0  0  -0.170601  0  3.947125  0  0  -0.075078  -0.159336  0  3.91315  0
C  C30  1  0.91117161  0.42338895  0.99490280  1  0  0.136166  0  3.801963  0  0  0.150777  0  4.035065  0  0  0.155691  0  4.057681  0  0  0.01157  0.147653  0  4.019317  0
C  C31  1  0.41589120  0.42806805  0.00477140  1  0  0.136172  0  3.801226  0  0  0.150215  0  4.034956  0  0  0.155194  0  4.057439  0  0  0.011317  0.147062  0  4.019265  0
C  C32  1  0.91271145  0.33081629  0.05790457  1  0  -0.158619  0  3.689499  0  0  -0.178227  0  3.938307  0  0  -0.186193  0  3.959434  0  0  -0.080255  -0.171569  0  3.922677  0
C  C33  1  0.35452307  0.27244873  0.94180110  1  0  -0.158158  0  3.689096  0  0  -0.178027  0  3.938295  0  0  -0.185982  0  3.959379  0  0  -0.080127  -0.171364  0  3.922692  0
C  C34  1  0.82828695  0.18274972  0.99917297  1  0  0.137102  0  3.688934  0  0  0.103531  0  3.944457  0  0  0.111521  0  3.961227  0  0  0.049838  0.098339  0  3.932797  0
C  C35  1  0.32905649  0.18323950  0.00065894  1  0  0.137381  0  3.687588  0  0  0.103827  0  3.942779  0  0  0.111804  0  3.959552  0  0  0.050347  0.098715  0  3.93099  0
C  C36  1  0.00142483  0.57788663  0.05956696  1  0  -0.068523  0  3.737415  0  0  -0.092409  0  3.989627  0  0  -0.092223  0  4.008722  0  0  -0.07658  -0.091938  0  3.97568  0
C  C37  1  0.44145086  0.51794073  0.94013101  1  0  -0.067238  0  3.736493  0  0  -0.090779  0  3.988196  0  0  -0.090538  0  4.007299  0  0  -0.075969  -0.090373  0  3.974266  0
C  C38  1  0.03436049  0.67747806  0.01485759  1  0  -0.184722  0  3.63454  0  0  -0.200926  0  3.888321  0  0  -0.210768  0  3.906038  0  0  -0.083673  -0.194014  0  3.875262  0
C  C39  1  0.51950706  0.66215202  0.98494497  1  0  -0.18454  0  3.634992  0  0  -0.200589  0  3.888587  0  0  -0.210503  0  3.906272  0  0  -0.083587  -0.193631  0  3.875588  0
C  C40  1  0.13061475  0.83107571  0.09670296  1  0  0.656334  0  3.933224  0  0  0.616235  0  4.216083  0  0  0.650599  0  4.20964  0  0  0.189221  0.593084  0  4.219367  0
C  C41  1  0.53384936  0.73406980  0.90321792  1  0  0.656053  0  3.934625  0  0  0.615922  0  4.2175  0  0  0.65028  0  4.211089  0  0  0.189606  0.592788  0  4.220791  0
C  C42  1  0.66457535  0.03695874  0.23941883  1  0  0.116845  0  3.720368  0  0  0.084693  0  3.974651  0  0  0.092122  0  3.991615  0  0  0.040001  0.07996  0  3.963104  0
C  C43  1  0.92485200  0.79769694  0.76071873  1  0  0.118002  0  3.715326  0  0  0.085871  0  3.969713  0  0  0.093222  0  3.986673  0  0  0.040198  0.081158  0  3.958185  0
C  C44  1  0.83455430  0.00580563  0.29559123  1  0  -0.149706  0  3.677055  0  0  -0.169182  0  3.922622  0  0  -0.176882  0  3.942384  0  0  -0.079285  -0.164263  0  3.909458  0
C  C45  1  0.03875867  0.71045123  0.70457567  1  0  -0.150169  0  3.673999  0  0  -0.169759  0  3.918944  0  0  -0.177415  0  3.938802  0  0  -0.079733  -0.164936  0  3.90587  0
C  C46  1  0.87395377  0.00652530  0.40954819  1  0  0.135782  0  3.789076  0  0  0.15246  0  4.01737  0  0  0.157292  0  4.039612  0  0  0.011006  0.149296  0  4.002217  0
C  C47  1  0.96432496  0.59689818  0.59068873  1  0  0.136575  0  3.792351  0  0  0.153875  0  4.019606  0  0  0.15862  0  4.042  0  0  0.012145  0.150698  0  4.004481  0
C  C48  1  0.73250198  0.03229366  0.45913180  1  0  -0.157231  0  3.676971  0  0  -0.171751  0  3.913039  0  0  -0.17977  0  3.934045  0  0  -0.076893  -0.166663  0  3.899082  0
C  C49  1  0.77328943  0.57285188  0.54112615  1  0  -0.158538  0  3.680285  0  0  -0.173426  0  3.916167  0  0  -0.181446  0  3.937233  0  0  -0.077483  -0.168262  0  3.902154  0
C  C50  1  0.56562294  0.06208809  0.39740237  1  0  0.148641  0  3.685325  0  0  0.113521  0  3.937014  0  0  0.121747  0  3.95343  0  0  0.052476  0.108159  0  3.92603  0
C  C51  1  0.66803528  0.66435276  0.60281205  1  0  0.150987  0  3.684329  0  0  0.116424  0  3.936176  0  0  0.124668  0  3.952565  0  0  0.053268  0.111051  0  3.92514  0
C  C52  1  0.05834290  0.98457615  0.46935782  1  0  -0.057584  0  3.715748  0  0  -0.079405  0  3.959107  0  0  -0.078413  0  3.977633  0  0  -0.072442  -0.079984  0  3.946967  0
C  C53  1  0.08895298  0.51506378  0.53087882  1  0  -0.05864  0  3.717577  0  0  -0.080593  0  3.960612  0  0  -0.079582  0  3.979121  0  0  -0.07257  -0.081172  0  3.948537  0
C  C54  1  0.12100999  0.98730830  0.57952693  1  0  -0.206832  0  3.669208  0  0  -0.221006  0  3.919263  0  0  -0.232016  0  3.93747  0  0  -0.092885  -0.213846  0  3.907184  0
C  C55  1  0.04134738  0.40721716  0.42081102  1  0  -0.206022  0  3.670107  0  0  -0.219594  0  3.920125  0  0  -0.230565  0  3.938341  0  0  -0.093233  -0.212461  0  3.907951  0
C  C56  1  0.31382608  0.96805696  0.63419027  1  0  0.660495  0  3.952062  0  0  0.620904  0  4.236514  0  0  0.655556  0  4.228974  0  0  0.192512  0.597472  0  4.240654  0
C  C57  1  0.17940276  0.33344005  0.36592973  1  0  0.660006  0  3.950073  0  0  0.619642  0  4.235579  0  0  0.654256  0  4.228083  0  0  0.191892  0.596252  0  4.239596  0
N  N58  1  0.74071696  0.12360874  0.88192472  1  0  -0.338119  0  3.310449  0  0  -0.254511  0  3.587738  0  0  -0.273903  0  3.603843  0  0  -0.331085  -0.242399  0  3.576995  0
N  N59  1  0.35873054  0.24148817  0.11791543  1  0  -0.337421  0  3.307903  0  0  -0.253984  0  3.585453  0  0  -0.273366  0  3.601585  0  0  -0.331496  -0.241794  0  3.574598  0
N  N60  1  0.53263922  0.06691521  0.28978909  1  0  -0.338554  0  3.352153  0  0  -0.251498  0  3.631345  0  0  -0.271269  0  3.645816  0  0  -0.336178  -0.238312  0  3.621457  0
N  N61  1  0.74256892  0.77697426  0.71035541  1  0  -0.339755  0  3.348893  0  0  -0.253261  0  3.628904  0  0  -0.27297  0  3.643256  0  0  -0.33709  -0.240063  0  3.619038  0
O  O62  1  0.16166975  0.92220548  0.04903966  1  0  -0.648902  0  1.95702  0  0  -0.579384  0  2.211852  0  0  -0.60859  0  2.198928  0  0  -0.336671  -0.558497  0  2.219764  0
O  O63  1  0.61271144  0.87285541  0.95094696  1  0  -0.648569  0  1.957313  0  0  -0.578672  0  2.21163  0  0  -0.607904  0  2.198709  0  0  -0.336267  -0.557849  0  2.219521  0
O  O64  1  0.17766858  0.86908763  0.20683233  1  0  -0.621603  0  1.917132  0  0  -0.572159  0  2.137756  0  0  -0.596893  0  2.128816  0  0  -0.321426  -0.55511  0  2.143177  0
O  O65  1  0.47053154  0.66207618  0.79307995  1  0  -0.622351  0  1.91804  0  0  -0.572966  0  2.138646  0  0  -0.597766  0  2.129778  0  0  -0.322322  -0.555925  0  2.144148  0
O  O66  1  0.43379539  0.97101825  0.58871588  1  0  -0.623042  0  1.892053  0  0  -0.581723  0  2.106166  0  0  -0.605006  0  2.097318  0  0  -0.328398  -0.565275  0  2.111505  0
O  O67  1  0.34479970  0.38207628  0.41135423  1  0  -0.622872  0  1.890321  0  0  -0.58127  0  2.104822  0  0  -0.604635  0  2.096159  0  0  -0.327798  -0.564799  0  2.110119  0
O  O68  1  0.34270748  0.94984580  0.73338836  1  0  -0.656803  0  2.047063  0  0  -0.579998  0  2.316998  0  0  -0.609967  0  2.302469  0  0  -0.336624  -0.558959  0  2.32613  0
O  O69  1  0.10917702  0.21611781  0.26664488  1  0  -0.656089  0  2.044714  0  0  -0.578964  0  2.314567  0  0  -0.608959  0  2.300268  0  0  -0.336434  -0.557941  0  2.323616  0
