# generated using pymatgen
data_AgH4C6NO3
_symmetry_space_group_name_H-M   'P 1'
_cell_length_a   5.73238911
_cell_length_b   8.95108070
_cell_length_c   12.50001429
_cell_angle_alpha   104.90803846
_cell_angle_beta   89.99956860
_cell_angle_gamma   90.00050312
_symmetry_Int_Tables_number   1
_chemical_formula_structural   AgH4C6NO3
_chemical_formula_sum   'Ag4 H16 C24 N4 O12'
_cell_volume   619.80003877
_cell_formula_units_Z   4
loop_
 _symmetry_equiv_pos_site_id
 _symmetry_equiv_pos_as_xyz
  1  'x, y, z'
loop_
 _atom_site_type_symbol
 _atom_site_label
 _atom_site_symmetry_multiplicity
 _atom_site_fract_x
 _atom_site_fract_y
 _atom_site_fract_z
 _atom_site_occupancy
 _atom_site_hle17_bader_spin_density
 _atom_site_hle17_ddec_charge
 _atom_site_hle17_ddec_spin_density
 _atom_site_hle17_ddec_sum_bond_order
 _atom_site_hle17_magmom
 _atom_site_hse06_10hf_bader_spin_density
 _atom_site_hse06_10hf_ddec_charge
 _atom_site_hse06_10hf_ddec_spin_density
 _atom_site_hse06_10hf_ddec_sum_bond_order
 _atom_site_hse06_10hf_magmom
 _atom_site_hse06_bader_spin_density
 _atom_site_hse06_ddec_charge
 _atom_site_hse06_ddec_spin_density
 _atom_site_hse06_ddec_sum_bond_order
 _atom_site_hse06_magmom
 _atom_site_pbe_bader_spin_density
 _atom_site_pbe_cm5_charge
 _atom_site_pbe_ddec_charge
 _atom_site_pbe_ddec_spin_density
 _atom_site_pbe_ddec_sum_bond_order
 _atom_site_pbe_magmom
Ag  Ag0  1  0.48125775  0.04045073  0.66437919  1  0  0.66671  0  1.383781  0  0  0.580565  0  1.809356  0  0  0.597372  0  1.765293  0  0  0.489811  0.569775  0  1.839634  0
Ag  Ag1  1  0.98125825  0.95954001  0.83561842  1  0  0.666722  0  1.383778  0  0  0.580604  0  1.809357  0  0  0.597409  0  1.765294  0  0  0.489821  0.569812  0  1.839638  0
Ag  Ag2  1  0.51873841  0.95954697  0.33562039  1  0  0.666726  0  1.383749  0  0  0.58058  0  1.809334  0  0  0.597385  0  1.765271  0  0  0.489814  0.569785  0  1.839617  0
Ag  Ag3  1  0.01873965  0.04045189  0.16437851  1  0  0.666729  0  1.383727  0  0  0.580605  0  1.809305  0  0  0.59741  0  1.765243  0  0  0.489808  0.569809  0  1.839579  0
H  H4  1  0.85045351  0.39815435  0.48208249  1  0  0.104487  0  0.966796  0  0  0.113599  0  1.030844  0  0  0.116082  0  1.028641  0  0  0.10865  0.111564  0  1.032878  0
H  H5  1  0.35044602  0.60183802  0.01791664  1  0  0.104509  0  0.966856  0  0  0.11358  0  1.030942  0  0  0.116063  0  1.028742  0  0  0.108637  0.111551  0  1.032985  0
H  H6  1  0.14954788  0.60185030  0.51792156  1  0  0.104442  0  0.966767  0  0  0.113528  0  1.030863  0  0  0.116011  0  1.028661  0  0  0.108609  0.111496  0  1.032897  0
H  H7  1  0.64956759  0.39815505  0.98208211  1  0  0.104576  0  0.966832  0  0  0.11361  0  1.030939  0  0  0.116093  0  1.028736  0  0  0.108642  0.111577  0  1.032983  0
H  H8  1  0.51664281  0.49266879  0.60774912  1  0  0.103285  0  0.949611  0  0  0.114769  0  1.007945  0  0  0.116781  0  1.010216  0  0  0.10057  0.113409  0  1.006555  0
H  H9  1  0.01663586  0.50732434  0.89225034  1  0  0.103261  0  0.949583  0  0  0.114743  0  1.007935  0  0  0.116754  0  1.010207  0  0  0.100553  0.113393  0  1.006545  0
H  H10  1  0.48336208  0.50733239  0.39225429  1  0  0.103262  0  0.949636  0  0  0.114764  0  1.007955  0  0  0.116775  0  1.010226  0  0  0.100569  0.113406  0  1.006564  0
H  H11  1  0.98337426  0.49266989  0.10774942  1  0  0.103219  0  0.949716  0  0  0.114716  0  1.008052  0  0  0.116726  0  1.010326  0  0  0.10054  0.113359  0  1.006667  0
H  H12  1  0.46729639  0.39461958  0.77803164  1  0  0.099386  0  0.969374  0  0  0.110309  0  1.031224  0  0  0.112024  0  1.030674  0  0  0.100938  0.109072  0  1.031689  0
H  H13  1  0.96729059  0.60537109  0.72196680  1  0  0.099337  0  0.96939  0  0  0.110299  0  1.031199  0  0  0.112014  0  1.030648  0  0  0.100918  0.109059  0  1.031663  0
H  H14  1  0.53269628  0.60537465  0.22196811  1  0  0.099384  0  0.969394  0  0  0.11031  0  1.031238  0  0  0.112025  0  1.030689  0  0  0.100935  0.10907  0  1.031703  0
H  H15  1  0.03270557  0.39463125  0.27803762  1  0  0.099358  0  0.969273  0  0  0.110303  0  1.031114  0  0  0.112017  0  1.030565  0  0  0.100919  0.109058  0  1.03158  0
H  H16  1  0.75484500  0.21015698  0.81967554  1  0  0.111202  0  0.974996  0  0  0.113915  0  1.051087  0  0  0.11891  0  1.046532  0  0  0.097168  0.110255  0  1.054549  0
H  H17  1  0.25484585  0.78983268  0.68032336  1  0  0.111227  0  0.975018  0  0  0.113933  0  1.051096  0  0  0.118929  0  1.046539  0  0  0.097176  0.110276  0  1.054562  0
H  H18  1  0.24514767  0.78983376  0.18032038  1  0  0.111176  0  0.975043  0  0  0.113905  0  1.051103  0  0  0.1189  0  1.046548  0  0  0.097183  0.110254  0  1.054564  0
H  H19  1  0.74515031  0.21017081  0.31967967  1  0  0.111207  0  0.97504  0  0  0.113912  0  1.051134  0  0  0.118907  0  1.04658  0  0  0.097195  0.110258  0  1.054595  0
C  C20  1  0.95474886  0.18015620  0.66904308  1  0  0.362931  0  3.84617  0  0  0.342588  0  4.106966  0  0  0.364295  0  4.119956  0  0  0.094733  0.328036  0  4.097957  0
C  C21  1  0.45474387  0.81983557  0.83095560  1  0  0.363064  0  3.846313  0  0  0.342649  0  4.107186  0  0  0.364352  0  4.12018  0  0  0.094723  0.328091  0  4.098179  0
C  C22  1  0.04524555  0.81983918  0.33095688  1  0  0.363044  0  3.846144  0  0  0.342696  0  4.106943  0  0  0.364404  0  4.119934  0  0  0.094749  0.328133  0  4.097951  0
C  C23  1  0.54525228  0.18016560  0.16904541  1  0  0.363226  0  3.846037  0  0  0.342821  0  4.106878  0  0  0.364527  0  4.119866  0  0  0.094802  0.328258  0  4.097879  0
C  C24  1  0.97931759  0.24325371  0.57399599  1  0  -0.043685  0  3.620266  0  0  -0.059091  0  3.86977  0  0  -0.072231  0  3.892369  0  0  0.063009  -0.051072  0  3.855326  0
C  C25  1  0.47931347  0.75674510  0.92600149  1  0  -0.043692  0  3.620256  0  0  -0.058973  0  3.869799  0  0  -0.072107  0  3.892399  0  0  0.06304  -0.050934  0  3.85533  0
C  C26  1  0.02068555  0.75674514  0.42600380  1  0  -0.043713  0  3.620249  0  0  -0.059102  0  3.869742  0  0  -0.072242  0  3.892342  0  0  0.063016  -0.051071  0  3.855282  0
C  C27  1  0.52068966  0.24325607  0.07399952  1  0  -0.043781  0  3.62027  0  0  -0.05906  0  3.869774  0  0  -0.072197  0  3.892372  0  0  0.062978  -0.051014  0  3.855288  0
C  C28  1  0.82171235  0.35485745  0.55468646  1  0  -0.080748  0  3.75396  0  0  -0.108063  0  4.019771  0  0  -0.100803  0  4.037158  0  0  -0.08685  -0.112445  0  4.008864  0
C  C29  1  0.32170285  0.64513486  0.94531592  1  0  -0.080855  0  3.753898  0  0  -0.108161  0  4.019711  0  0  -0.100903  0  4.0371  0  0  -0.086874  -0.112558  0  4.008821  0
C  C30  1  0.17829428  0.64514486  0.44531316  1  0  -0.080727  0  3.75399  0  0  -0.10803  0  4.019813  0  0  -0.100771  0  4.037204  0  0  -0.086837  -0.112416  0  4.008906  0
C  C31  1  0.67829680  0.35485820  0.05468122  1  0  -0.081035  0  3.753903  0  0  -0.108305  0  4.019727  0  0  -0.101048  0  4.037117  0  0  -0.08691  -0.112703  0  4.008832  0
C  C32  1  0.63633386  0.40717535  0.62456115  1  0  -0.093626  0  3.763657  0  0  -0.114678  0  4.029569  0  0  -0.125711  0  4.054311  0  0  -0.109576  -0.107716  0  4.013312  0
C  C33  1  0.13632318  0.59281602  0.87543442  1  0  -0.093536  0  3.763635  0  0  -0.11457  0  4.02952  0  0  -0.125603  0  4.054268  0  0  -0.109502  -0.107612  0  4.013274  0
C  C34  1  0.36366578  0.59282697  0.37544007  1  0  -0.093621  0  3.763684  0  0  -0.114688  0  4.029582  0  0  -0.125721  0  4.054326  0  0  -0.109578  -0.10773  0  4.013329  0
C  C35  1  0.86368694  0.40718514  0.12456658  1  0  -0.093488  0  3.763439  0  0  -0.114528  0  4.029293  0  0  -0.125563  0  4.054042  0  0  -0.109481  -0.107575  0  4.013046  0
C  C36  1  0.60774069  0.35115974  0.71946861  1  0  -0.023059  0  3.749853  0  0  -0.044078  0  4.006793  0  0  -0.036004  0  4.02312  0  0  -0.091965  -0.049232  0  3.995236  0
C  C37  1  0.10773252  0.64882922  0.78053302  1  0  -0.023006  0  3.749535  0  0  -0.044056  0  4.00648  0  0  -0.035979  0  4.022807  0  0  -0.091967  -0.049204  0  3.994918  0
C  C38  1  0.39225721  0.64883910  0.28053038  1  0  -0.023011  0  3.749731  0  0  -0.044029  0  4.006666  0  0  -0.035952  0  4.022988  0  0  -0.091936  -0.049175  0  3.99511  0
C  C39  1  0.89226015  0.35116501  0.21946754  1  0  -0.022958  0  3.749839  0  0  -0.044003  0  4.006781  0  0  -0.035928  0  4.023114  0  0  -0.091947  -0.049141  0  3.995211  0
C  C40  1  0.76268386  0.24282023  0.74118665  1  0  -0.263173  0  3.801114  0  0  -0.267407  0  4.060551  0  0  -0.278274  0  4.075486  0  0  -0.139791  -0.259772  0  4.049803  0
C  C41  1  0.26268980  0.75717754  0.75881210  1  0  -0.263299  0  3.800901  0  0  -0.267514  0  4.06041  0  0  -0.278372  0  4.075324  0  0  -0.139822  -0.259873  0  4.049642  0
C  C42  1  0.23731055  0.75717745  0.25881213  1  0  -0.263197  0  3.801057  0  0  -0.267438  0  4.060515  0  0  -0.278296  0  4.075434  0  0  -0.139799  -0.259784  0  4.049711  0
C  C43  1  0.73731857  0.24283057  0.24119097  1  0  -0.26332  0  3.801194  0  0  -0.267558  0  4.060714  0  0  -0.278416  0  4.075635  0  0  -0.139859  -0.259903  0  4.049891  0
N  N44  1  0.16014645  0.19593140  0.49487343  1  0  0.485727  0  3.907467  0  0  0.537165  0  4.156247  0  0  0.561362  0  4.165713  0  0  0.029293  0.520758  0  4.149993  0
N  N45  1  0.66013691  0.80406239  0.00512972  1  0  0.485844  0  3.907253  0  0  0.536979  0  4.156462  0  0  0.561175  0  4.165929  0  0  0.02926  0.520565  0  4.150207  0
N  N46  1  0.83985146  0.80406976  0.50512678  1  0  0.485716  0  3.907456  0  0  0.537133  0  4.156263  0  0  0.561331  0  4.165727  0  0  0.029254  0.520724  0  4.15001  0
N  N47  1  0.33986449  0.19594226  0.99487352  1  0  0.485846  0  3.906796  0  0  0.537062  0  4.15593  0  0  0.561258  0  4.165398  0  0  0.029288  0.520656  0  4.149666  0
O  O48  1  0.08497096  0.07540322  0.69252233  1  0  -0.591802  0  2.210973  0  0  -0.533899  0  2.513853  0  0  -0.562874  0  2.504467  0  0  -0.336507  -0.513372  0  2.518874  0
O  O49  1  0.58497324  0.92459486  0.80747781  1  0  -0.591864  0  2.2109  0  0  -0.533943  0  2.513819  0  0  -0.562921  0  2.50443  0  0  -0.33651  -0.51341  0  2.518841  0
O  O50  1  0.91502869  0.92459446  0.30747564  1  0  -0.591887  0  2.210968  0  0  -0.53398  0  2.513865  0  0  -0.562957  0  2.504477  0  0  -0.336529  -0.513459  0  2.51891  0
O  O51  1  0.41502641  0.07540977  0.19252303  1  0  -0.591894  0  2.21095  0  0  -0.533984  0  2.513868  0  0  -0.562962  0  2.504479  0  0  -0.33652  -0.513464  0  2.51891  0
O  O52  1  0.28328624  0.07847486  0.49800499  1  0  -0.443454  0  1.997619  0  0  -0.410351  0  2.266682  0  0  -0.424603  0  2.255087  0  0  -0.173209  -0.400853  0  2.275199  0
O  O53  1  0.78328187  0.92152759  0.00199616  1  0  -0.443583  0  1.997407  0  0  -0.410388  0  2.266576  0  0  -0.424649  0  2.254987  0  0  -0.173254  -0.400882  0  2.275089  0
O  O54  1  0.71671167  0.92152398  0.50199399  1  0  -0.443452  0  1.997684  0  0  -0.410329  0  2.266749  0  0  -0.424587  0  2.255161  0  0  -0.173173  -0.400828  0  2.275259  0
O  O55  1  0.21671604  0.07847587  0.99800367  1  0  -0.443449  0  1.997108  0  0  -0.410392  0  2.266365  0  0  -0.424651  0  2.254775  0  0  -0.173253  -0.400904  0  2.274904  0
O  O56  1  0.19722988  0.26854763  0.42340482  1  0  -0.394185  0  1.78447  0  0  -0.375343  0  1.999221  0  0  -0.38633  0  1.994924  0  0  -0.146278  -0.368413  0  2.002989  0
O  O57  1  0.69722151  0.73145554  0.07659192  1  0  -0.39416  0  1.784674  0  0  -0.375152  0  1.99949  0  0  -0.386128  0  1.995188  0  0  -0.146177  -0.368235  0  2.003273  0
O  O58  1  0.80276977  0.73145122  0.57659417  1  0  -0.394154  0  1.784479  0  0  -0.37534  0  1.999228  0  0  -0.386332  0  1.994949  0  0  -0.146275  -0.368414  0  2.002999  0
O  O59  1  0.30277814  0.26855371  0.92340975  1  0  -0.39419  0  1.78432  0  0  -0.375209  0  1.999148  0  0  -0.386179  0  1.994834  0  0  -0.146221  -0.368291  0  2.002925  0
