# generated using pymatgen
data_Sm2H20C28N2O17
_symmetry_space_group_name_H-M   'P 1'
_cell_length_a   10.16161620
_cell_length_b   12.31299808
_cell_length_c   13.18010000
_cell_angle_alpha   73.26595339
_cell_angle_beta   74.37855534
_cell_angle_gamma   70.35428352
_symmetry_Int_Tables_number   1
_chemical_formula_structural   Sm2H20C28N2O17
_chemical_formula_sum   'Sm4 H40 C56 N4 O34'
_cell_volume   1459.87755779
_cell_formula_units_Z   2
loop_
 _symmetry_equiv_pos_site_id
 _symmetry_equiv_pos_as_xyz
  1  'x, y, z'
loop_
 _atom_site_type_symbol
 _atom_site_label
 _atom_site_symmetry_multiplicity
 _atom_site_fract_x
 _atom_site_fract_y
 _atom_site_fract_z
 _atom_site_occupancy
 _atom_site_hle17_bader_spin_density
 _atom_site_hle17_ddec_charge
 _atom_site_hle17_ddec_spin_density
 _atom_site_hle17_ddec_sum_bond_order
 _atom_site_hle17_magmom
 _atom_site_hse06_10hf_bader_spin_density
 _atom_site_hse06_10hf_ddec_charge
 _atom_site_hse06_10hf_ddec_spin_density
 _atom_site_hse06_10hf_ddec_sum_bond_order
 _atom_site_hse06_10hf_magmom
 _atom_site_hse06_bader_spin_density
 _atom_site_hse06_ddec_charge
 _atom_site_hse06_ddec_spin_density
 _atom_site_hse06_ddec_sum_bond_order
 _atom_site_hse06_magmom
 _atom_site_pbe_bader_charge
 _atom_site_pbe_bader_spin_density
 _atom_site_pbe_cm5_charge
 _atom_site_pbe_ddec_charge
 _atom_site_pbe_ddec_spin_density
 _atom_site_pbe_ddec_sum_bond_order
 _atom_site_pbe_magmom
Sm  Sm0  1  0.80533499  0.28246585  0.40253137  1  0  2.262984  0  1.630116  0  0  2.105687  0  2.100665  0  0  2.21691  0  1.935312  0  2.216237  0  1.483807  2.069821  0  2.134486  0
Sm  Sm1  1  0.19466493  0.71753428  0.59746786  1  0  2.262967  0  1.630147  0  0  2.10565  0  2.100729  0  0  2.216894  0  1.935348  0  2.216238  0  1.483776  2.069781  0  2.134551  0
Sm  Sm2  1  0.18724380  0.21856926  0.54596641  1  0  2.281879  0  1.576753  0  0  2.127984  0  2.039883  0  0  2.237344  0  1.877119  0  2.22013  0  1.481296  2.09437  0  2.071799  0
Sm  Sm3  1  0.81275611  0.78143087  0.45403357  1  0  2.281876  0  1.576773  0  0  2.127998  0  2.039883  0  0  2.237337  0  1.877144  0  2.220152  0  1.48129  2.09437  0  2.071818  0
H  H4  1  0.28603308  0.01669245  0.42568431  1  0  0.461081  0  0.792373  0  0  0.440999  0  0.84699  0  0  0.449805  0  0.834279  0  0.641643  0  0.33163  0.434919  0  0.85445  0
H  H5  1  0.71396714  0.98330679  0.57431585  1  0  0.461057  0  0.792448  0  0  0.440992  0  0.847011  0  0  0.449801  0  0.834294  0  0.641644  0  0.331606  0.434913  0  0.854499  0
H  H6  1  0.12317144  0.07131555  0.42247326  1  0  0.449059  0  0.84916  0  0  0.416754  0  0.914996  0  0  0.426949  0  0.900491  0  0.657459  0  0.30831  0.409626  0  0.925304  0
H  H7  1  0.87682877  0.92868369  0.57752766  1  0  0.449075  0  0.849136  0  0  0.416766  0  0.914974  0  0  0.426963  0  0.900467  0  0.65741  0  0.308316  0.40964  0  0.925281  0
H  H8  1  0.31105893  0.03179014  0.72655347  1  0  0.434259  0  0.868696  0  0  0.402568  0  0.933538  0  0  0.414593  0  0.916283  0  0.654929  0  0.291992  0.393984  0  0.946001  0
H  H9  1  0.68894026  0.96820911  0.27344690  1  0  0.434209  0  0.86877  0  0  0.402532  0  0.93358  0  0  0.414557  0  0.916326  0  0.654931  0  0.29198  0.393948  0  0.946043  0
H  H10  1  0.30222834  0.96088114  0.64343941  1  0  0.440188  0  0.859256  0  0  0.409959  0  0.921567  0  0  0.421599  0  0.90477  0  0.645846  0  0.299467  0.401842  0  0.933379  0
H  H11  1  0.69777085  0.03911811  0.35656020  1  0  0.440256  0  0.859154  0  0  0.409981  0  0.921533  0  0  0.42162  0  0.904738  0  0.645844  0  0.299473  0.401866  0  0.933344  0
H  H12  1  0.87298205  0.46484855  0.47556333  1  0  0.443681  0  0.832665  0  0  0.415619  0  0.901577  0  0  0.424817  0  0.888442  0  0.642413  0  0.316616  0.408971  0  0.911336  0
H  H13  1  0.12701889  0.53515158  0.52443644  1  0  0.44373  0  0.832685  0  0  0.415665  0  0.901521  0  0  0.424862  0  0.888389  0  0.642448  0  0.316648  0.409019  0  0.911282  0
H  H14  1  0.71537224  0.52011397  0.46758996  1  0  0.446629  0  0.841975  0  0  0.41981  0  0.899345  0  0  0.430454  0  0.884037  0  0.641254  0  0.311148  0.412391  0  0.910163  0
H  H15  1  0.28462725  0.47988439  0.53240983  1  0  0.446619  0  0.841987  0  0  0.419796  0  0.899366  0  0  0.430441  0  0.884056  0  0.641238  0  0.311134  0.412376  0  0.910183  0
H  H16  1  0.00681354  0.86756756  0.92844353  1  0  0.099512  0  0.967091  0  0  0.109674  0  1.030352  0  0  0.112439  0  1.028807  0  0.087284  0  0.108248  0.107719  0  1.031459  0
H  H17  1  0.99318871  0.13243168  0.07155696  1  0  0.099476  0  0.967151  0  0  0.109638  0  1.030409  0  0  0.112401  0  1.028867  0  0.087288  0  0.108232  0.107683  0  1.031516  0
H  H18  1  0.83277596  0.99019653  0.05622757  1  0  0.113988  0  0.938678  0  0  0.123946  0  0.994318  0  0  0.127337  0  0.992836  0  0.131956  0  0.11229  0.121528  0  0.995477  0
H  H19  1  0.16722396  0.00980360  0.94377241  1  0  0.113986  0  0.938682  0  0  0.123944  0  0.994322  0  0  0.127335  0  0.992838  0  0.131956  0  0.112284  0.121526  0  0.995481  0
H  H20  1  0.66036467  0.17690926  0.98156514  1  0  0.099147  0  0.973998  0  0  0.107417  0  1.039168  0  0  0.109793  0  1.03915  0  0.073296  0  0.10387  0.105674  0  1.039294  0
H  H21  1  0.33963627  0.82309087  0.01843388  1  0  0.099121  0  0.974  0  0  0.107422  0  1.039139  0  0  0.109802  0  1.039116  0  0.073291  0  0.103873  0.105673  0  1.039272  0
H  H22  1  0.57369786  0.55499380  0.68441974  1  0  0.136201  0  0.95775  0  0  0.14411  0  1.019531  0  0  0.148206  0  1.017564  0  0.128527  0  0.11658  0.141017  0  1.021163  0
H  H23  1  0.42630206  0.44500633  0.31558024  1  0  0.136206  0  0.957746  0  0  0.144113  0  1.019527  0  0  0.148209  0  1.01756  0  0.128529  0  0.116583  0.14102  0  1.021159  0
H  H24  1  0.76674100  0.37420057  0.72341669  1  0  0.101957  0  0.948071  0  0  0.109803  0  1.013271  0  0  0.112099  0  1.011037  0  0.127125  0  0.129082  0.108288  0  1.014463  0
H  H25  1  0.23325921  0.62579868  0.27658347  1  0  0.101961  0  0.948059  0  0  0.109815  0  1.013244  0  0  0.112109  0  1.011011  0  0.127115  0  0.129108  0.108299  0  1.014436  0
H  H26  1  0.48730488  0.16316601  0.82530692  1  0  0.106838  0  0.959719  0  0  0.111285  0  1.028563  0  0  0.115739  0  1.023622  0  0.192395  0  0.123272  0.107932  0  1.032078  0
H  H27  1  0.51269431  0.83683324  0.17469497  1  0  0.106753  0  0.959736  0  0  0.111232  0  1.028556  0  0  0.115686  0  1.023614  0  0.192408  0  0.123245  0.107878  0  1.032073  0
H  H28  1  0.28113620  0.33671434  0.79195871  1  0  0.137973  0  0.938962  0  0  0.147851  0  0.996317  0  0  0.151314  0  0.995656  0  0.109438  0  0.117372  0.145726  0  0.996311  0
H  H29  1  0.71886269  0.66328580  0.20804149  1  0  0.137984  0  0.938968  0  0  0.147861  0  0.996322  0  0  0.151324  0  0.995662  0  0.109247  0  0.117376  0.145736  0  0.996316  0
H  H30  1  0.96557112  0.74854515  0.08694817  1  0  0.105247  0  0.956186  0  0  0.11589  0  1.016551  0  0  0.119501  0  1.013895  0  0.104053  0  0.107699  0.113347  0  1.01839  0
H  H31  1  0.03442777  0.25145498  0.91305202  1  0  0.105263  0  0.956177  0  0  0.115907  0  1.01654  0  0  0.119519  0  1.013883  0  0.104061  0  0.107705  0.113364  0  1.018379  0
H  H32  1  0.10943110  0.66903666  0.92168124  1  0  0.118532  0  0.969029  0  0  0.125633  0  1.031898  0  0  0.130103  0  1.028517  0  0.126293  0  0.108297  0.122455  0  1.034377  0
H  H33  1  0.89056954  0.33096435  0.07831836  1  0  0.118522  0  0.96905  0  0  0.125625  0  1.031916  0  0  0.130095  0  1.028535  0  0.126298  0  0.108282  0.122447  0  1.034395  0
H  H34  1  0.27044693  0.46316985  0.94731485  1  0  0.108204  0  0.964864  0  0  0.116999  0  1.02861  0  0  0.119783  0  1.027641  0  0.104253  0  0.106713  0.11498  0  1.029345  0
H  H35  1  0.72955299  0.53683028  0.05268513  1  0  0.108203  0  0.964864  0  0  0.116998  0  1.028611  0  0  0.119782  0  1.027641  0  0.104279  0  0.106711  0.114978  0  1.029346  0
H  H36  1  0.34364219  0.03574569  0.12437581  1  0  0.110956  0  0.998499  0  0  0.118906  0  1.064149  0  0  0.120851  0  1.066815  0  0.098923  0  0.102119  0.11752  0  1.062497  0
H  H37  1  0.65635743  0.96425533  0.87562400  1  0  0.110966  0  0.99848  0  0  0.118917  0  1.06413  0  0  0.120861  0  1.066795  0  0.098914  0  0.102121  0.117529  0  1.062476  0
H  H38  1  0.17473978  0.23801125  0.09980802  1  0  0.099059  0  0.93321  0  0  0.109614  0  0.995666  0  0  0.111717  0  0.993848  0  0.12293  0  0.128142  0.108097  0  0.996826  0
H  H39  1  0.82526086  0.76198976  0.90019157  1  0  0.099055  0  0.93321  0  0  0.10961  0  0.995665  0  0  0.111711  0  0.993855  0  0.122934  0  0.128143  0.108093  0  0.996826  0
H  H40  1  0.45265518  0.37898928  0.16681871  1  0  0.091951  0  0.948324  0  0  0.102243  0  1.011181  0  0  0.104456  0  1.009354  0  0.117923  0  0.125514  0.100515  0  1.012705  0
H  H41  1  0.54734473  0.62101085  0.83318128  1  0  0.091939  0  0.948333  0  0  0.102229  0  1.011189  0  0  0.104443  0  1.009362  0  0.117928  0  0.1255  0.100501  0  1.012714  0
H  H42  1  0.63183410  0.18377248  0.19884170  1  0  0.142966  0  0.936825  0  0  0.153364  0  0.991379  0  0  0.157435  0  0.990194  0  0.119159  0  0.120776  0.150659  0  0.992022  0
H  H43  1  0.36816612  0.81622676  0.80115846  1  0  0.142968  0  0.936828  0  0  0.153369  0  0.991378  0  0  0.15744  0  0.990194  0  0.119165  0  0.120777  0.150664  0  0.992022  0
C  C44  1  0.85240053  0.14684906  0.62562395  1  0  0.71818  0  3.888815  0  0  0.664234  0  4.193605  0  0  0.699846  0  4.186769  0  1.606171  0  0.226024  0.639871  0  4.201967  0
C  C45  1  0.14759939  0.85315107  0.37437603  1  0  0.718202  0  3.888802  0  0  0.664249  0  4.193598  0  0  0.699859  0  4.186766  0  1.606159  0  0.226008  0.639886  0  4.201962  0
C  C46  1  0.02763661  0.89853073  0.71938430  1  0  0.651717  0  3.906912  0  0  0.601218  0  4.203113  0  0  0.63411  0  4.201547  0  1.583524  0  0.207995  0.57833  0  4.207634  0
C  C47  1  0.97236403  0.10147029  0.28061454  1  0  0.651718  0  3.906894  0  0  0.60122  0  4.203099  0  0  0.634104  0  4.201534  0  1.583585  0  0.207995  0.57833  0  4.20762  0
C  C48  1  0.84674817  0.09557099  0.74446612  1  0  -0.088418  0  3.637899  0  0  -0.083602  0  3.877731  0  0  -0.085042  0  3.892525  0  -0.020202  0  0.015143  -0.082605  0  3.867335  0
C  C49  1  0.15325174  0.90442914  0.25553386  1  0  -0.088404  0  3.637877  0  0  -0.083588  0  3.877709  0  0  -0.085028  0  3.892502  0  -0.020207  0  0.015146  -0.082593  0  3.867316  0
C  C50  1  0.93782305  0.98651399  0.78718506  1  0  -0.053792  0  3.696327  0  0  -0.038219  0  3.929093  0  0  -0.043983  0  3.948619  0  0.024271  0  -0.000683  -0.034364  0  3.915637  0
C  C51  1  0.06217818  0.01348525  0.21281488  1  0  -0.053808  0  3.696374  0  0  -0.038236  0  3.929139  0  0  -0.044001  0  3.948668  0  0.024242  0  -0.000691  -0.03438  0  3.915685  0
C  C52  1  0.93333307  0.95140533  0.89868619  1  0  -0.064999  0  3.725568  0  0  -0.090785  0  3.97452  0  0  -0.090229  0  3.993483  0  -0.034545  0  -0.074662  -0.091055  0  3.961498  0
C  C53  1  0.06666655  0.04859569  0.10131362  1  0  -0.064967  0  3.725591  0  0  -0.090745  0  3.974532  0  0  -0.090192  0  3.993499  0  -0.03455  0  -0.074651  -0.091016  0  3.96151  0
C  C54  1  0.83712131  0.01948174  0.96944542  1  0  -0.051572  0  3.745927  0  0  -0.064197  0  3.998345  0  0  -0.066515  0  4.017943  0  -0.014169  0  -0.080184  -0.062694  0  3.985163  0
C  C55  1  0.16287993  0.98051750  0.03055453  1  0  -0.051535  0  3.745948  0  0  -0.064166  0  3.998374  0  0  -0.066484  0  4.017973  0  -0.014154  0  -0.080162  -0.062663  0  3.985189  0
C  C56  1  0.74063950  0.12369715  0.92818950  1  0  -0.117452  0  3.730555  0  0  -0.142247  0  3.986039  0  0  -0.142842  0  4.004522  0  -0.033416  0  -0.079463  -0.141695  0  3.973493  0
C  C57  1  0.25936042  0.87630298  0.07181048  1  0  -0.11749  0  3.730627  0  0  -0.142311  0  3.986112  0  0  -0.142909  0  4.004594  0  -0.03343  0  -0.079495  -0.141752  0  3.97357  0
C  C58  1  0.74494771  0.16015407  0.81714569  1  0  0.131762  0  3.732875  0  0  0.11788  0  3.987675  0  0  0.121157  0  4.00943  0  0.276697  0  0.093971  0.11576  0  3.972548  0
C  C59  1  0.25505251  0.83984517  0.18285371  1  0  0.131757  0  3.732885  0  0  0.117873  0  3.987696  0  0  0.121151  0  4.00945  0  0.276697  0  0.093965  0.115753  0  3.972568  0
C  C60  1  0.54740257  0.47166318  0.71902665  1  0  -0.243254  0  3.671509  0  0  -0.262743  0  3.931561  0  0  -0.275456  0  3.947389  0  0.033375  0  -0.093643  -0.254587  0  3.920646  0
C  C61  1  0.45259735  0.52833695  0.28097333  1  0  -0.243259  0  3.671557  0  0  -0.262743  0  3.931606  0  0  -0.275456  0  3.947433  0  0.033364  0  -0.093622  -0.254586  0  3.920691  0
C  C62  1  0.65693941  0.37196525  0.73960302  1  0  0.12085  0  3.645077  0  0  0.07686  0  3.901695  0  0  0.089091  0  3.915888  0  0.360264  0  0.055943  0.069104  0  3.891602  0
C  C63  1  0.34305978  0.62803400  0.26039735  1  0  0.120854  0  3.645103  0  0  0.076859  0  3.901721  0  0  0.089093  0  3.915914  0  0.360268  0  0.055877  0.069103  0  3.891628  0
C  C64  1  0.49873099  0.25268131  0.79876220  1  0  0.107297  0  3.630964  0  0  0.063501  0  3.887151  0  0  0.075079  0  3.899806  0  0.311574  0  0.050963  0.056262  0  3.878834  0
C  C65  1  0.50126922  0.74731793  0.20123948  1  0  0.107403  0  3.630941  0  0  0.063588  0  3.887123  0  0  0.075159  0  3.899794  0  0.311557  0  0.050993  0.056351  0  3.878806  0
C  C66  1  0.38561909  0.34970217  0.77956241  1  0  -0.230281  0  3.664195  0  0  -0.248303  0  3.921901  0  0  -0.260201  0  3.937651  0  -0.00056  0  -0.091182  -0.240677  0  3.910354  0
C  C67  1  0.61438053  0.65029885  0.22043815  1  0  -0.230313  0  3.664202  0  0  -0.248341  0  3.921924  0  0  -0.260236  0  3.93767  0  -0.000371  0  -0.091188  -0.240715  0  3.910377  0
C  C68  1  0.40374238  0.46608637  0.73988704  1  0  0.465216  0  3.860566  0  0  0.450555  0  4.12169  0  0  0.475774  0  4.127959  0  0.800104  0  0.124433  0.434198  0  4.117984  0
C  C69  1  0.59625651  0.53391376  0.26011392  1  0  0.465223  0  3.860536  0  0  0.45056  0  4.121663  0  0  0.475779  0  4.127929  0  0.800111  0  0.124433  0.434202  0  4.117958  0
C  C70  1  0.47479302  0.29833486  0.50601082  1  0  0.561415  0  3.927785  0  0  0.517574  0  4.223117  0  0  0.547223  0  4.219615  0  1.605259  0  0.21955  0.496943  0  4.22983  0
C  C71  1  0.52520588  0.70166527  0.49398937  1  0  0.561401  0  3.927704  0  0  0.517524  0  4.223084  0  0  0.547169  0  4.219587  0  1.605283  0  0.219522  0.496893  0  4.229796  0
C  C72  1  0.52142140  0.19336316  0.44982562  1  0  0.559124  0  3.922288  0  0  0.51507  0  4.21864  0  0  0.544759  0  4.214965  0  1.593938  0  0.220583  0.49443  0  4.2256  0
C  C73  1  0.47857749  0.80663697  0.55017381  1  0  0.559136  0  3.922214  0  0  0.515124  0  4.218512  0  0  0.544814  0  4.214837  0  1.593916  0  0.220612  0.494484  0  4.225471  0
C  C74  1  0.12348365  0.38445919  0.32071339  1  0  0.724601  0  3.901492  0  0  0.670494  0  4.207705  0  0  0.706515  0  4.199207  0  1.606861  0  0.228387  0.645766  0  4.216977  0
C  C75  1  0.87651422  0.61554094  0.67928702  1  0  0.724583  0  3.901592  0  0  0.670506  0  4.207773  0  0  0.706528  0  4.199272  0  1.606924  0  0.228384  0.645779  0  4.217047  0
C  C76  1  0.95779599  0.64637865  0.29161687  1  0  0.625475  0  3.950521  0  0  0.578131  0  4.247769  0  0  0.610736  0  4.246561  0  1.56494  0  0.192934  0.555708  0  4.251495  0
C  C77  1  0.04220392  0.35362149  0.70838312  1  0  0.625446  0  3.950546  0  0  0.578097  0  4.247799  0  0  0.610701  0  4.246593  0  1.564931  0  0.192909  0.55568  0  4.251527  0
C  C78  1  0.12330519  0.47034761  0.21256778  1  0  -0.091393  0  3.650598  0  0  -0.086328  0  3.890536  0  0  -0.087593  0  3.905731  0  -0.000293  0  0.010549  -0.085289  0  3.879339  0
C  C79  1  0.87669442  0.52965340  0.78743127  1  0  -0.091387  0  3.650614  0  0  -0.086375  0  3.890607  0  0  -0.08764  0  3.9058  0  -0.000328  0  0.010546  -0.085332  0  3.879415  0
C  C80  1  0.03737305  0.58803325  0.19848973  1  0  -0.067067  0  3.720926  0  0  -0.052241  0  3.95746  0  0  -0.058676  0  3.977329  0  0.010675  0  -0.009272  -0.047418  0  3.942393  0
C  C81  1  0.96262584  0.41196688  0.80151046  1  0  -0.067051  0  3.720856  0  0  -0.052212  0  3.957401  0  0  -0.058646  0  3.97727  0  0.010698  0  -0.009266  -0.047405  0  3.942354  0
C  C82  1  0.03315077  0.65781235  0.09378319  1  0  -0.069424  0  3.724668  0  0  -0.097817  0  3.978544  0  0  -0.097177  0  3.997744  0  -0.053717  0  -0.080526  -0.098032  0  3.965088  0
C  C83  1  0.96684812  0.34218778  0.90621701  1  0  -0.069447  0  3.724666  0  0  -0.09784  0  3.978542  0  0  -0.0972  0  3.997741  0  -0.053693  0  -0.080526  -0.09805  0  3.96509  0
C  C84  1  0.11319172  0.61406722  0.00282035  1  0  -0.064238  0  3.741032  0  0  -0.076627  0  3.993423  0  0  -0.07966  0  4.012662  0  -0.0108  0  -0.087973  -0.074698  0  3.98051  0
C  C85  1  0.88680819  0.38593291  0.99717963  1  0  -0.064207  0  3.741038  0  0  -0.076597  0  3.993431  0  0  -0.079629  0  4.01267  0  -0.010806  0  -0.087954  -0.074668  0  3.980517  0
C  C86  1  0.20338139  0.49905602  0.01659252  1  0  -0.111137  0  3.725537  0  0  -0.135419  0  3.97802  0  0  -0.135217  0  3.99607  0  -0.053963  0  -0.078777  -0.135498  0  3.966072  0
C  C87  1  0.79661853  0.50094411  0.98340747  1  0  -0.111146  0  3.725532  0  0  -0.135429  0  3.978012  0  0  -0.135226  0  3.996062  0  -0.053993  0  -0.078781  -0.135507  0  3.966065  0
C  C88  1  0.20829035  0.42968511  0.12045035  1  0  0.123889  0  3.765263  0  0  0.110606  0  4.020085  0  0  0.112897  0  4.043205  0  0.266813  0  0.088799  0.108964  0  4.004406  0
C  C89  1  0.79170927  0.57031591  0.87955022  1  0  0.123895  0  3.765231  0  0  0.11063  0  4.020059  0  0  0.112921  0  4.043178  0  0.266751  0  0.088811  0.108987  0  4.004381  0
C  C90  1  0.37135756  0.10873287  0.13580835  1  0  -0.248074  0  3.699825  0  0  -0.266813  0  3.958072  0  0  -0.280135  0  3.977571  0  0.030406  0  -0.104383  -0.258184  0  3.9448  0
C  C91  1  0.62864235  0.89126726  0.86419163  1  0  -0.248108  0  3.699834  0  0  -0.266841  0  3.958078  0  0  -0.280162  0  3.977576  0  0.030407  0  -0.104392  -0.258209  0  3.944805  0
C  C92  1  0.27785034  0.21892621  0.12093290  1  0  0.102245  0  3.674119  0  0  0.058233  0  3.929733  0  0  0.070388  0  3.944108  0  0.324435  0  0.047319  0.050481  0  3.91979  0
C  C93  1  0.72214958  0.78107392  0.87906708  1  0  0.102269  0  3.674115  0  0  0.058261  0  3.929723  0  0  0.070414  0  3.9441  0  0.324434  0  0.047324  0.050508  0  3.919781  0
C  C94  1  0.43558304  0.29883052  0.16034075  1  0  0.104306  0  3.677738  0  0  0.059915  0  3.933209  0  0  0.072618  0  3.946076  0  0.309116  0  0.047224  0.051797  0  3.924192  0
C  C95  1  0.56441790  0.70116961  0.83965902  1  0  0.104302  0  3.677802  0  0  0.05992  0  3.93327  0  0  0.072621  0  3.94614  0  0.309222  0  0.04724  0.051803  0  3.924253  0
C  C96  1  0.53259798  0.19067901  0.17732036  1  0  -0.247358  0  3.678031  0  0  -0.262663  0  3.93353  0  0  -0.275319  0  3.949608  0  0.021214  0  -0.098137  -0.254415  0  3.922122  0
C  C97  1  0.46740296  0.80932113  0.82267866  1  0  -0.24735  0  3.678081  0  0  -0.262664  0  3.933594  0  0  -0.27532  0  3.94967  0  0.021219  0  -0.098143  -0.254417  0  3.922186  0
C  C98  1  0.50348946  0.08669950  0.16940740  1  0  0.43449  0  3.873347  0  0  0.417089  0  4.138896  0  0  0.441944  0  4.143423  0  0.835504  0  0.115303  0.400692  0  4.134802  0
C  C99  1  0.49651177  0.91329974  0.83059255  1  0  0.4345  0  3.873358  0  0  0.417101  0  4.138912  0  0  0.441956  0  4.143438  0  0.835489  0  0.115313  0.400703  0  4.134818  0
N  N100  1  0.63363872  0.26343294  0.78095288  1  0  -0.088224  0  3.580465  0  0  0.002267  0  3.791269  0  0  -0.014766  0  3.816925  0  -1.256348  0  -0.218202  0.013252  0  3.773587  0
N  N101  1  0.36635988  0.73656808  0.21904790  1  0  -0.088241  0  3.580467  0  0  0.002245  0  3.791287  0  0  -0.014787  0  3.816941  0  -1.256347  0  -0.21819  0.013231  0  3.773605  0
N  N102  1  0.30818791  0.31358716  0.13403881  1  0  -0.095115  0  3.603709  0  0  -0.004332  0  3.81446  0  0  -0.02205  0  3.840632  0  -1.270867  0  -0.226239  0.007426  0  3.796253  0
N  N103  1  0.69181099  0.68641297  0.86596138  1  0  -0.09514  0  3.603753  0  0  -0.004358  0  3.814499  0  0  -0.022074  0  3.840669  0  -1.270969  0  -0.22626  0.007399  0  3.796294  0
O  O104  1  0.75400775  0.14870800  0.58330515  1  0  -0.673469  0  2.005219  0  0  -0.627481  0  2.248016  0  0  -0.657645  0  2.237569  0  -1.170244  0  -0.35104  -0.610398  0  2.254108  0
O  O105  1  0.24599217  0.85129214  0.41669407  1  0  -0.673472  0  2.005236  0  0  -0.627475  0  2.248024  0  0  -0.657638  0  2.237576  0  -1.170243  0  -0.351021  -0.610391  0  2.254113  0
O  O106  1  0.94983934  0.19716055  0.57332524  1  0  -0.790435  0  2.058963  0  0  -0.735945  0  2.33002  0  0  -0.776571  0  2.3176  0  -1.210049  0  -0.399811  -0.717332  0  2.33754  0
O  O107  1  0.05016057  0.80283958  0.42667398  1  0  -0.790451  0  2.058934  0  0  -0.735956  0  2.329991  0  0  -0.776582  0  2.317576  0  -1.210071  0  -0.3998  -0.717342  0  2.337511  0
O  O108  1  0.02440805  0.92199364  0.61861965  1  0  -0.685165  0  2.019657  0  0  -0.6219  0  2.24856  0  0  -0.651789  0  2.239171  0  -1.195847  0  -0.33962  -0.605023  0  2.254597  0
O  O109  1  0.97559229  0.07800826  0.38137977  1  0  -0.68514  0  2.019606  0  0  -0.621899  0  2.248532  0  0  -0.651759  0  2.239122  0  -1.19581  0  -0.339607  -0.605012  0  2.25456  0
O  O110  1  0.10053315  0.79870026  0.76487774  1  0  -0.682967  0  1.969812  0  0  -0.637874  0  2.215148  0  0  -0.668353  0  2.204809  0  -1.181411  0  -0.365571  -0.621286  0  2.221111  0
O  O111  1  0.89946749  0.20130075  0.23512109  1  0  -0.682977  0  1.969843  0  0  -0.637887  0  2.215188  0  0  -0.668365  0  2.204853  0  -1.18145  0  -0.365584  -0.621299  0  2.221152  0
O  O112  1  0.29757873  0.55831233  0.72515054  1  0  -0.713859  0  2.009615  0  0  -0.662282  0  2.261436  0  0  -0.695771  0  2.247157  0  -1.198788  0  -0.42506  -0.645467  0  2.266993  0
O  O113  1  0.70242118  0.44168780  0.27484868  1  0  -0.713852  0  2.009595  0  0  -0.662279  0  2.261421  0  0  -0.695765  0  2.247141  0  -1.198778  0  -0.425055  -0.645465  0  2.26698  0
O  O114  1  0.56260514  0.35451826  0.49408086  1  0  -0.615689  0  2.063502  0  0  -0.569651  0  2.30951  0  0  -0.599578  0  2.301552  0  -1.16297  0  -0.359611  -0.553409  0  2.313518  0
O  O115  1  0.43739507  0.64548098  0.50591854  1  0  -0.615666  0  2.063534  0  0  -0.569624  0  2.309568  0  0  -0.599551  0  2.30161  0  -1.163022  0  -0.359597  -0.553382  0  2.313574  0
O  O116  1  0.34713773  0.32201335  0.55839429  1  0  -0.686453  0  2.107427  0  0  -0.629089  0  2.345501  0  0  -0.661759  0  2.336502  0  -1.186324  0  -0.365019  -0.611575  0  2.35022  0
O  O117  1  0.65286351  0.67798590  0.44160566  1  0  -0.686466  0  2.107316  0  0  -0.629091  0  2.345395  0  0  -0.661756  0  2.336399  0  -1.18631  0  -0.365022  -0.611576  0  2.350115  0
O  O118  1  0.64836606  0.17042683  0.39575881  1  0  -0.682649  0  2.122076  0  0  -0.626078  0  2.362991  0  0  -0.658337  0  2.353051  0  -1.192096  0  -0.355375  -0.60837  0  2.3683  0
O  O119  1  0.35163416  0.82957242  0.60424134  1  0  -0.682631  0  2.122112  0  0  -0.626088  0  2.363007  0  0  -0.658349  0  2.353063  0  -1.192104  0  -0.355365  -0.608381  0  2.368318  0
O  O120  1  0.43152122  0.13984800  0.45972403  1  0  -0.63065  0  2.063935  0  0  -0.584173  0  2.308254  0  0  -0.613692  0  2.298165  0  -1.166656  0  -0.362646  -0.568562  0  2.313697  0
O  O121  1  0.56847972  0.86015213  0.54027574  1  0  -0.630669  0  2.063862  0  0  -0.584203  0  2.308154  0  0  -0.61372  0  2.298066  0  -1.166703  0  -0.36267  -0.56859  0  2.313599  0
O  O122  1  0.22088051  0.36451713  0.37188681  1  0  -0.686859  0  1.984693  0  0  -0.64134  0  2.23547  0  0  -0.673434  0  2.224812  0  -1.175617  0  -0.35944  -0.623853  0  2.241511  0
O  O123  1  0.77911941  0.63548300  0.62811393  1  0  -0.686804  0  1.984828  0  0  -0.641293  0  2.235585  0  0  -0.673383  0  2.224928  0  -1.175629  0  -0.359399  -0.623806  0  2.241628  0
O  O124  1  0.02742968  0.33093873  0.35134817  1  0  -0.77718  0  2.069527  0  0  -0.722969  0  2.33672  0  0  -0.760987  0  2.323336  0  -1.204556  0  -0.390744  -0.704604  0  2.345215  0
O  O125  1  0.97257125  0.66906140  0.64865160  1  0  -0.777212  0  2.069397  0  0  -0.723012  0  2.336599  0  0  -0.761033  0  2.323212  0  -1.20454  0  -0.390774  -0.704631  0  2.345059  0
O  O126  1  0.96999381  0.59185715  0.38879417  1  0  -0.686802  0  1.96977  0  0  -0.631481  0  2.206933  0  0  -0.660475  0  2.196109  0  -1.180651  0  -0.347273  -0.615485  0  2.21351  0
O  O127  1  0.03000611  0.40814298  0.61120581  1  0  -0.686812  0  1.969795  0  0  -0.63148  0  2.206942  0  0  -0.66048  0  2.196128  0  -1.180697  0  -0.347278  -0.615487  0  2.213519  0
O  O128  1  0.88377799  0.75371554  0.26940141  1  0  -0.673482  0  1.969659  0  0  -0.625451  0  2.209498  0  0  -0.656478  0  2.200738  0  -1.178941  0  -0.381899  -0.608546  0  2.214382  0
O  O129  1  0.11622163  0.24628547  0.73059839  1  0  -0.673465  0  1.969674  0  0  -0.62542  0  2.209499  0  0  -0.65645  0  2.200741  0  -1.178951  0  -0.38188  -0.608517  0  2.214382  0
O  O130  1  0.58807952  0.98330061  0.18934010  1  0  -0.56131  0  1.924595  0  0  -0.506746  0  2.125465  0  0  -0.529213  0  2.117448  0  -1.157123  0  -0.304031  -0.49074  0  2.130242  0
O  O131  1  0.41191937  0.01669952  0.81066010  1  0  -0.561321  0  1.924551  0  0  -0.506752  0  2.125434  0  0  -0.529223  0  2.117421  0  -1.15711  0  -0.30403  -0.490745  0  2.130212  0
O  O132  1  0.20707796  0.08701139  0.43433497  1  0  -0.909862  0  1.858848  0  0  -0.86403  0  2.065207  0  0  -0.890158  0  2.031034  0  -1.265097  0  -0.644385  -0.851205  0  2.084121  0
O  O133  1  0.79292093  0.91298874  0.56566523  1  0  -0.909833  0  1.858872  0  0  -0.86403  0  2.065175  0  0  -0.890154  0  2.031001  0  -1.265049  0  -0.64436  -0.851206  0  2.084112  0
O  O134  1  0.26019911  0.03668488  0.66830397  1  0  -0.940449  0  1.858493  0  0  -0.891075  0  2.062434  0  0  -0.920212  0  2.022893  0  -1.296341  0  -0.668441  -0.876826  0  2.086716  0
O  O135  1  0.73980051  0.96331614  0.33169660  1  0  -0.940448  0  1.858468  0  0  -0.891042  0  2.062461  0  0  -0.920174  0  2.022927  0  -1.296344  0  -0.668417  -0.876792  0  2.086742  0
O  O136  1  0.78580866  0.44234338  0.48505048  1  0  -0.893775  0  1.87306  0  0  -0.84982  0  2.079522  0  0  -0.876061  0  2.046033  0  -1.256975  0  -0.636058  -0.836457  0  2.09995  0
O  O137  1  0.21419024  0.55765675  0.51494895  1  0  -0.893815  0  1.873118  0  0  -0.849854  0  2.079577  0  0  -0.876098  0  2.046083  0  -1.256962  0  -0.636072  -0.836499  0  2.1  0
