# generated using pymatgen
data_KMgH10C6NO8
_symmetry_space_group_name_H-M   'P 1'
_cell_length_a   7.09181471
_cell_length_b   10.09641073
_cell_length_c   15.31381023
_cell_angle_alpha   90.00105048
_cell_angle_beta   88.26971629
_cell_angle_gamma   90.00078678
_symmetry_Int_Tables_number   1
_chemical_formula_structural   KMgH10C6NO8
_chemical_formula_sum   'K4 Mg4 H40 C24 N4 O32'
_cell_volume   1095.99755452
_cell_formula_units_Z   4
loop_
 _symmetry_equiv_pos_site_id
 _symmetry_equiv_pos_as_xyz
  1  'x, y, z'
loop_
 _atom_site_type_symbol
 _atom_site_label
 _atom_site_symmetry_multiplicity
 _atom_site_fract_x
 _atom_site_fract_y
 _atom_site_fract_z
 _atom_site_occupancy
 _atom_site_hle17_bader_spin_density
 _atom_site_hle17_ddec_charge
 _atom_site_hle17_ddec_spin_density
 _atom_site_hle17_ddec_sum_bond_order
 _atom_site_hle17_magmom
 _atom_site_hse06_10hf_bader_spin_density
 _atom_site_hse06_10hf_ddec_charge
 _atom_site_hse06_10hf_ddec_spin_density
 _atom_site_hse06_10hf_ddec_sum_bond_order
 _atom_site_hse06_10hf_magmom
 _atom_site_hse06_bader_spin_density
 _atom_site_hse06_ddec_charge
 _atom_site_hse06_ddec_spin_density
 _atom_site_hse06_ddec_sum_bond_order
 _atom_site_hse06_magmom
 _atom_site_pbe_bader_spin_density
 _atom_site_pbe_cm5_charge
 _atom_site_pbe_ddec_charge
 _atom_site_pbe_ddec_spin_density
 _atom_site_pbe_ddec_sum_bond_order
 _atom_site_pbe_magmom
K  K0  1  0.16453963  0.01475616  0.59399208  1  0  0.936645  0  0.432419  0  0  0.885287  0  0.614088  0  0  0.900576  0  0.590638  0  0  0.762077  0.873687  0  0.631155  0
K  K1  1  0.33546911  0.51474014  0.90599820  1  0  0.936659  0  0.432413  0  0  0.885311  0  0.614062  0  0  0.900606  0  0.590606  0  0  0.762113  0.87371  0  0.631126  0
K  K2  1  0.83548543  0.98524907  0.40600777  1  0  0.936663  0  0.432425  0  0  0.885355  0  0.614016  0  0  0.900634  0  0.590578  0  0  0.762114  0.873756  0  0.63108  0
K  K3  1  0.66450669  0.48527202  0.09399986  1  0  0.93665  0  0.432436  0  0  0.885322  0  0.614048  0  0  0.900612  0  0.590601  0  0  0.762136  0.873721  0  0.631112  0
Mg  Mg4  1  0.36509888  0.13405186  0.79089487  1  0  1.418383  0  1.233821  0  0  1.313464  0  1.482088  0  0  1.337257  0  1.44815  0  0  0.822396  1.296728  0  1.505684  0
Mg  Mg5  1  0.13494004  0.63405499  0.70910256  1  0  1.418342  0  1.233881  0  0  1.313289  0  1.482446  0  0  1.337326  0  1.44805  0  0  0.822387  1.296573  0  1.505995  0
Mg  Mg6  1  0.63490464  0.86594843  0.20911289  1  0  1.418335  0  1.233918  0  0  1.313388  0  1.482224  0  0  1.337212  0  1.448218  0  0  0.822379  1.296661  0  1.505801  0
Mg  Mg7  1  0.86506419  0.36595519  0.29089083  1  0  1.41838  0  1.233731  0  0  1.313353  0  1.482303  0  0  1.337377  0  1.447923  0  0  0.822394  1.296632  0  1.505864  0
H  H8  1  0.51670899  0.85878500  0.90205470  1  0  0.116108  0  0.917511  0  0  0.132007  0  0.974831  0  0  0.133945  0  0.973997  0  0  0.126398  0.130584  0  0.975531  0
H  H9  1  0.98335091  0.35878932  0.59793718  1  0  0.11628  0  0.91741  0  0  0.132172  0  0.974792  0  0  0.134123  0  0.973945  0  0  0.126408  0.130737  0  0.97548  0
H  H10  1  0.48325206  0.14122519  0.09795647  1  0  0.116139  0  0.917603  0  0  0.132047  0  0.974941  0  0  0.133991  0  0.974104  0  0  0.126338  0.130614  0  0.975633  0
H  H11  1  0.01669009  0.64122879  0.40205413  1  0  0.116109  0  0.91753  0  0  0.132119  0  0.974751  0  0  0.134059  0  0.973915  0  0  0.126418  0.130692  0  0.975441  0
H  H12  1  0.67422380  0.80651547  0.81786127  1  0  0.100649  0  0.947388  0  0  0.113715  0  1.008932  0  0  0.115608  0  1.008239  0  0  0.112248  0.112179  0  1.009768  0
H  H13  1  0.82583146  0.30651476  0.68211826  1  0  0.10063  0  0.947541  0  0  0.113775  0  1.009049  0  0  0.115678  0  1.008349  0  0  0.11221  0.112231  0  1.009882  0
H  H14  1  0.32575821  0.19348085  0.18215374  1  0  0.100789  0  0.947446  0  0  0.113812  0  1.009005  0  0  0.115704  0  1.008324  0  0  0.112308  0.112277  0  1.009828  0
H  H15  1  0.17420448  0.69348354  0.31786130  1  0  0.100704  0  0.947436  0  0  0.113734  0  1.009051  0  0  0.115629  0  1.008354  0  0  0.112227  0.112195  0  1.00989  0
H  H16  1  0.84784751  0.06906245  0.90823099  1  0  0.077568  0  0.944366  0  0  0.092393  0  1.007948  0  0  0.095237  0  1.004683  0  0  0.104358  0.090357  0  1.010401  0
H  H17  1  0.65217202  0.56907525  0.59177796  1  0  0.077546  0  0.944298  0  0  0.092327  0  1.007949  0  0  0.095209  0  1.004656  0  0  0.104313  0.090265  0  1.010418  0
H  H18  1  0.15212754  0.93092792  0.09178209  1  0  0.077635  0  0.944237  0  0  0.092425  0  1.007883  0  0  0.095289  0  1.004597  0  0  0.104372  0.090364  0  1.010357  0
H  H19  1  0.34784199  0.43093593  0.40821736  1  0  0.077491  0  0.944358  0  0  0.092287  0  1.007985  0  0  0.095162  0  1.00469  0  0  0.104307  0.090226  0  1.010458  0
H  H20  1  0.63517143  0.02274772  0.96113389  1  0  0.103955  0  0.954778  0  0  0.115685  0  1.023245  0  0  0.117997  0  1.021317  0  0  0.11397  0.113975  0  1.024756  0
H  H21  1  0.86483518  0.52275112  0.53886150  1  0  0.103883  0  0.954759  0  0  0.115663  0  1.02318  0  0  0.117984  0  1.021259  0  0  0.113968  0.113953  0  1.024687  0
H  H22  1  0.36482218  0.97723869  0.03887455  1  0  0.103992  0  0.954841  0  0  0.115686  0  1.023372  0  0  0.117994  0  1.021455  0  0  0.113959  0.113978  0  1.024879  0
H  H23  1  0.13516922  0.47724718  0.46112862  1  0  0.103954  0  0.954891  0  0  0.115653  0  1.023395  0  0  0.117967  0  1.02147  0  0  0.113945  0.113943  0  1.024901  0
H  H24  1  0.82889408  0.93792106  0.73133273  1  0  0.112372  0  0.934381  0  0  0.122776  0  1.000082  0  0  0.126122  0  0.997697  0  0  0.11743  0.120416  0  1.001803  0
H  H25  1  0.67115873  0.43790553  0.76866269  1  0  0.112346  0  0.934621  0  0  0.122778  0  1.000244  0  0  0.126125  0  0.997855  0  0  0.117462  0.120429  0  1.001972  0
H  H26  1  0.17109648  0.06206932  0.26868030  1  0  0.112334  0  0.934483  0  0  0.122719  0  1.000192  0  0  0.126059  0  0.997808  0  0  0.117422  0.120354  0  1.001914  0
H  H27  1  0.32884160  0.56207989  0.23132418  1  0  0.112209  0  0.934692  0  0  0.122627  0  1.00036  0  0  0.125965  0  0.997959  0  0  0.117401  0.120278  0  1.002091  0
H  H28  1  0.87056242  0.10148985  0.76548811  1  0  0.11091  0  0.948925  0  0  0.122634  0  1.015263  0  0  0.125428  0  1.013435  0  0  0.119984  0.120616  0  1.0167  0
H  H29  1  0.62947934  0.60146792  0.73451199  1  0  0.110923  0  0.949022  0  0  0.122684  0  1.015309  0  0  0.125474  0  1.013484  0  0  0.120037  0.120675  0  1.016749  0
H  H30  1  0.12944914  0.89850647  0.23452811  1  0  0.110884  0  0.949187  0  0  0.12266  0  1.015396  0  0  0.125448  0  1.013579  0  0  0.120053  0.120639  0  1.01683  0
H  H31  1  0.37051243  0.39852048  0.26547687  1  0  0.110907  0  0.949044  0  0  0.122606  0  1.015424  0  0  0.125386  0  1.013593  0  0  0.120028  0.120602  0  1.01686  0
H  H32  1  0.55157290  0.79914365  0.52255774  1  0  0.421829  0  0.882686  0  0  0.389765  0  0.948523  0  0  0.400384  0  0.932943  0  0  0.291073  0.382261  0  0.959529  0
H  H33  1  0.94845018  0.29915065  0.97744207  1  0  0.421682  0  0.882855  0  0  0.38965  0  0.948635  0  0  0.400267  0  0.933057  0  0  0.291046  0.382147  0  0.95964  0
H  H34  1  0.44846220  0.20085069  0.47743881  1  0  0.42173  0  0.882783  0  0  0.389678  0  0.948602  0  0  0.400295  0  0.933023  0  0  0.291072  0.382173  0  0.959609  0
H  H35  1  0.05152657  0.70085161  0.02256512  1  0  0.4216  0  0.882952  0  0  0.389598  0  0.948676  0  0  0.400214  0  0.933099  0  0  0.291058  0.382093  0  0.959683  0
H  H36  1  0.35522767  0.83890669  0.47712595  1  0  0.411449  0  0.902354  0  0  0.377595  0  0.971622  0  0  0.389913  0  0.95366  0  0  0.28408  0.368911  0  0.98427  0
H  H37  1  0.14479488  0.33891453  0.02287684  1  0  0.411393  0  0.902405  0  0  0.377553  0  0.971656  0  0  0.389873  0  0.953696  0  0  0.284032  0.368863  0  0.984306  0
H  H38  1  0.64479280  0.16108963  0.52288110  1  0  0.411471  0  0.902308  0  0  0.37753  0  0.971695  0  0  0.389854  0  0.953728  0  0  0.284026  0.368837  0  0.98435  0
H  H39  1  0.85518685  0.66109070  0.97711531  1  0  0.411482  0  0.902291  0  0  0.377535  0  0.971689  0  0  0.389854  0  0.953731  0  0  0.283988  0.368842  0  0.984343  0
H  H40  1  0.16636000  0.17467241  0.93777869  1  0  0.440784  0  0.866445  0  0  0.405052  0  0.936281  0  0  0.417153  0  0.918867  0  0  0.287909  0.396557  0  0.948508  0
H  H41  1  0.33366431  0.67466628  0.56221664  1  0  0.440712  0  0.866572  0  0  0.404987  0  0.936384  0  0  0.417083  0  0.918981  0  0  0.287857  0.396491  0  0.94861  0
H  H42  1  0.83361426  0.82533381  0.06222198  1  0  0.440686  0  0.866607  0  0  0.404982  0  0.936398  0  0  0.417079  0  0.918992  0  0  0.287845  0.396485  0  0.948626  0
H  H43  1  0.66635662  0.32533896  0.43778127  1  0  0.440815  0  0.866432  0  0  0.405069  0  0.936279  0  0  0.417166  0  0.918874  0  0  0.287883  0.396571  0  0.948508  0
H  H44  1  0.13829336  0.02034275  0.90869886  1  0  0.419486  0  0.836228  0  0  0.401774  0  0.889997  0  0  0.409924  0  0.880484  0  0  0.321022  0.395898  0  0.897001  0
H  H45  1  0.36174648  0.52034070  0.59129203  1  0  0.419514  0  0.83668  0  0  0.401776  0  0.89045  0  0  0.409927  0  0.880946  0  0  0.320991  0.395896  0  0.897454  0
H  H46  1  0.86169494  0.97966347  0.09130307  1  0  0.419516  0  0.836146  0  0  0.401806  0  0.889915  0  0  0.409954  0  0.880406  0  0  0.321018  0.395932  0  0.896915  0
H  H47  1  0.63825867  0.47966553  0.40871115  1  0  0.419548  0  0.836527  0  0  0.40182  0  0.890291  0  0  0.409969  0  0.880791  0  0  0.320997  0.395941  0  0.897299  0
C  C48  1  0.38805100  0.84564231  0.77966030  1  0  0.736824  0  3.815127  0  0  0.686295  0  4.121015  0  0  0.719681  0  4.110554  0  0  0.234272  0.663593  0  4.127546  0
C  C49  1  0.11199238  0.34565156  0.72033104  1  0  0.736801  0  3.81484  0  0  0.686285  0  4.120822  0  0  0.719679  0  4.110347  0  0  0.234246  0.663578  0  4.12735  0
C  C50  1  0.61193992  0.15436095  0.22034554  1  0  0.736889  0  3.814965  0  0  0.686387  0  4.120864  0  0  0.719775  0  4.110407  0  0  0.23432  0.663681  0  4.127394  0
C  C51  1  0.88802881  0.65435763  0.27966164  1  0  0.736858  0  3.814708  0  0  0.686428  0  4.120522  0  0  0.719815  0  4.110055  0  0  0.234324  0.663727  0  4.127049  0
C  C52  1  0.56084567  0.87740569  0.83366096  1  0  -0.175181  0  3.630572  0  0  -0.230276  0  3.879433  0  0  -0.231725  0  3.885887  0  0  -0.062375  -0.22932  0  3.875208  0
C  C53  1  0.93919491  0.37740265  0.66632989  1  0  -0.175366  0  3.63013  0  0  -0.230623  0  3.879297  0  0  -0.232103  0  3.885791  0  0  -0.062384  -0.229614  0  3.875004  0
C  C54  1  0.43913532  0.12259459  0.16634622  1  0  -0.175428  0  3.630826  0  0  -0.230485  0  3.879623  0  0  -0.23196  0  3.886111  0  0  -0.062449  -0.229495  0  3.875352  0
C  C55  1  0.06082497  0.62260556  0.33366083  1  0  -0.17527  0  3.63029  0  0  -0.23045  0  3.879259  0  0  -0.231909  0  3.885745  0  0  -0.062457  -0.22947  0  3.875001  0
C  C56  1  0.63605767  0.22169202  0.91481779  1  0  0.707112  0  3.855994  0  0  0.660152  0  4.160452  0  0  0.692106  0  4.152993  0  0  0.215166  0.638492  0  4.164763  0
C  C57  1  0.86397952  0.72168782  0.58517978  1  0  0.707484  0  3.855475  0  0  0.66068  0  4.15967  0  0  0.692643  0  4.15223  0  0  0.215522  0.639022  0  4.163982  0
C  C58  1  0.36392752  0.77829737  0.08519003  1  0  0.707087  0  3.856077  0  0  0.660375  0  4.160206  0  0  0.692325  0  4.152758  0  0  0.215357  0.638715  0  4.164513  0
C  C59  1  0.13604193  0.27831048  0.41480767  1  0  0.707526  0  3.855468  0  0  0.660736  0  4.159626  0  0  0.692687  0  4.15218  0  0  0.215516  0.639078  0  4.16394  0
C  C60  1  0.69321111  0.07566796  0.90374492  1  0  -0.173834  0  3.671668  0  0  -0.232138  0  3.929032  0  0  -0.232776  0  3.934614  0  0  -0.070149  -0.231642  0  3.925139  0
C  C61  1  0.80681628  0.57567444  0.59625036  1  0  -0.173772  0  3.671532  0  0  -0.232075  0  3.928856  0  0  -0.232779  0  3.934493  0  0  -0.070126  -0.231555  0  3.924965  0
C  C62  1  0.30677840  0.92432242  0.09626093  1  0  -0.173716  0  3.671727  0  0  -0.232077  0  3.929115  0  0  -0.232732  0  3.93469  0  0  -0.070108  -0.231564  0  3.925237  0
C  C63  1  0.19319526  0.42433278  0.40373778  1  0  -0.173793  0  3.671732  0  0  -0.232049  0  3.929058  0  0  -0.232714  0  3.93465  0  0  -0.07006  -0.231533  0  3.925169  0
C  C64  1  0.67152332  0.08905533  0.66624230  1  0  0.699736  0  3.873582  0  0  0.651077  0  4.182621  0  0  0.683721  0  4.173729  0  0  0.214023  0.628909  0  4.188217  0
C  C65  1  0.82849613  0.58906490  0.83374793  1  0  0.699505  0  3.874148  0  0  0.650916  0  4.183014  0  0  0.68356  0  4.174139  0  0  0.214018  0.628767  0  4.188605  0
C  C66  1  0.32847027  0.91092811  0.33376679  1  0  0.69966  0  3.873572  0  0  0.651068  0  4.182465  0  0  0.683708  0  4.173589  0  0  0.213993  0.628896  0  4.18806  0
C  C67  1  0.17149577  0.41093340  0.16623832  1  0  0.699827  0  3.873662  0  0  0.651187  0  4.18264  0  0  0.683814  0  4.173761  0  0  0.214099  0.629035  0  4.188242  0
C  C68  1  0.75775564  0.03181679  0.74847330  1  0  -0.194215  0  3.627043  0  0  -0.246558  0  3.875371  0  0  -0.249184  0  3.88149  0  0  -0.071022  -0.244768  0  3.871213  0
C  C69  1  0.74228918  0.53180434  0.75152272  1  0  -0.194401  0  3.627883  0  0  -0.24669  0  3.876122  0  0  -0.249314  0  3.88225  0  0  -0.071203  -0.245008  0  3.872142  0
C  C70  1  0.24225050  0.96818052  0.25153837  1  0  -0.194239  0  3.627356  0  0  -0.246558  0  3.875643  0  0  -0.249151  0  3.881712  0  0  -0.071119  -0.24475  0  3.871463  0
C  C71  1  0.25770403  0.46818901  0.24846547  1  0  -0.194213  0  3.627271  0  0  -0.246474  0  3.875663  0  0  -0.249033  0  3.881701  0  0  -0.071205  -0.244782  0  3.871652  0
N  N72  1  0.62477572  0.01502612  0.82372884  1  0  -0.214228  0  3.350026  0  0  -0.132083  0  3.584947  0  0  -0.143736  0  3.603953  0  0  -0.37116  -0.123906  0  3.571635  0
N  N73  1  0.87526049  0.51502763  0.67626375  1  0  -0.21394  0  3.349216  0  0  -0.131852  0  3.584261  0  0  -0.143526  0  3.603328  0  0  -0.371076  -0.123672  0  3.570946  0
N  N74  1  0.37521225  0.98496723  0.17627962  1  0  -0.214256  0  3.349798  0  0  -0.132155  0  3.584696  0  0  -0.14378  0  3.603621  0  0  -0.371141  -0.123988  0  3.571375  0
N  N75  1  0.12474112  0.48497958  0.32372572  1  0  -0.214063  0  3.349154  0  0  -0.132069  0  3.584392  0  0  -0.143769  0  3.603414  0  0  -0.371112  -0.123878  0  3.571085  0
O  O76  1  0.28132709  0.94013051  0.75804233  1  0  -0.733184  0  2.007879  0  0  -0.67997  0  2.248573  0  0  -0.702783  0  2.236432  0  0  -0.396481  -0.664177  0  2.256637  0
O  O77  1  0.21869372  0.44013546  0.74195800  1  0  -0.733167  0  2.00808  0  0  -0.679928  0  2.248843  0  0  -0.702769  0  2.236672  0  0  -0.396511  -0.66414  0  2.256908  0
O  O78  1  0.71865403  0.05986977  0.24196223  1  0  -0.733188  0  2.007937  0  0  -0.679945  0  2.24858  0  0  -0.702763  0  2.236437  0  0  -0.396453  -0.664154  0  2.256649  0
O  O79  1  0.78131875  0.55987373  0.25803993  1  0  -0.733231  0  2.008134  0  0  -0.67998  0  2.248745  0  0  -0.702821  0  2.23658  0  0  -0.396501  -0.664191  0  2.256807  0
O  O80  1  0.35947782  0.72406010  0.76262435  1  0  -0.72276  0  1.987119  0  0  -0.664566  0  2.228399  0  0  -0.6877  0  2.214707  0  0  -0.378066  -0.64855  0  2.237475  0
O  O81  1  0.14054436  0.22406616  0.73737677  1  0  -0.722759  0  1.986855  0  0  -0.664571  0  2.228134  0  0  -0.687666  0  2.214458  0  0  -0.378038  -0.64856  0  2.237224  0
O  O82  1  0.64051019  0.27594513  0.23738346  1  0  -0.72277  0  1.98695  0  0  -0.664604  0  2.228235  0  0  -0.68774  0  2.214552  0  0  -0.378084  -0.648592  0  2.237318  0
O  O83  1  0.85946142  0.77594105  0.26261400  1  0  -0.722778  0  1.986653  0  0  -0.664662  0  2.227935  0  0  -0.687751  0  2.214232  0  0  -0.378117  -0.64865  0  2.23702  0
O  O84  1  0.51691166  0.26940864  0.86234259  1  0  -0.729815  0  1.98292  0  0  -0.674646  0  2.224368  0  0  -0.697742  0  2.212267  0  0  -0.395347  -0.658561  0  2.232296  0
O  O85  1  0.98313077  0.76941205  0.63765355  1  0  -0.730002  0  1.982591  0  0  -0.674866  0  2.223992  0  0  -0.698005  0  2.211878  0  0  -0.395453  -0.658787  0  2.231925  0
O  O86  1  0.48308596  0.73058174  0.13767042  1  0  -0.729876  0  1.982631  0  0  -0.674833  0  2.224037  0  0  -0.697939  0  2.211938  0  0  -0.395525  -0.658749  0  2.231965  0
O  O87  1  0.01687956  0.23059318  0.36233067  1  0  -0.730144  0  1.982405  0  0  -0.675058  0  2.223857  0  0  -0.698193  0  2.211742  0  0  -0.395564  -0.658979  0  2.231794  0
O  O88  1  0.70687445  0.28358060  0.97751480  1  0  -0.687337  0  1.954953  0  0  -0.639009  0  2.18715  0  0  -0.662379  0  2.175774  0  0  -0.392824  -0.622416  0  2.194553  0
O  O89  1  0.79315949  0.78357987  0.52248741  1  0  -0.687545  0  1.954648  0  0  -0.63927  0  2.18682  0  0  -0.662639  0  2.175437  0  0  -0.393078  -0.622671  0  2.194214  0
O  O90  1  0.29309749  0.71640978  0.02250417  1  0  -0.687206  0  1.955027  0  0  -0.638961  0  2.187087  0  0  -0.662337  0  2.175734  0  0  -0.392832  -0.622363  0  2.194474  0
O  O91  1  0.20687229  0.21641645  0.47749087  1  0  -0.687431  0  1.954967  0  0  -0.63913  0  2.187088  0  0  -0.662507  0  2.175732  0  0  -0.392936  -0.622531  0  2.194476  0
O  O92  1  0.50742915  0.14066209  0.67221377  1  0  -0.74857  0  1.998576  0  0  -0.693687  0  2.232196  0  0  -0.716294  0  2.219786  0  0  -0.391641  -0.678015  0  2.240373  0
O  O93  1  0.99259784  0.64066314  0.82778682  1  0  -0.748364  0  1.99876  0  0  -0.693475  0  2.232298  0  0  -0.716125  0  2.219884  0  0  -0.391571  -0.677803  0  2.240465  0
O  O94  1  0.49257600  0.85933225  0.32778941  1  0  -0.748491  0  1.99863  0  0  -0.69362  0  2.232206  0  0  -0.71624  0  2.219801  0  0  -0.391653  -0.677946  0  2.240383  0
O  O95  1  0.00738803  0.35934012  0.17220728  1  0  -0.748535  0  1.998709  0  0  -0.693596  0  2.232249  0  0  -0.716249  0  2.219843  0  0  -0.391589  -0.677923  0  2.240418  0
O  O96  1  0.77411353  0.08740275  0.59710542  1  0  -0.680463  0  1.962359  0  0  -0.633588  0  2.19836  0  0  -0.65846  0  2.187924  0  0  -0.376664  -0.616323  0  2.205326  0
O  O97  1  0.72590969  0.58740244  0.90289327  1  0  -0.68044  0  1.962387  0  0  -0.633628  0  2.198405  0  0  -0.658503  0  2.187986  0  0  -0.376654  -0.616343  0  2.205335  0
O  O98  1  0.22589947  0.91258762  0.40291015  1  0  -0.680469  0  1.962311  0  0  -0.63369  0  2.19834  0  0  -0.65857  0  2.187918  0  0  -0.37664  -0.616413  0  2.205287  0
O  O99  1  0.27408608  0.41258299  0.09710014  1  0  -0.680524  0  1.962319  0  0  -0.633718  0  2.198348  0  0  -0.658591  0  2.187922  0  0  -0.376679  -0.616442  0  2.205288  0
O  O100  1  0.23077118  0.09105450  0.91103726  1  0  -0.894589  0  1.855363  0  0  -0.840921  0  2.047632  0  0  -0.859737  0  2.020566  0  0  -0.603396  -0.827678  0  2.066544  0
O  O101  1  0.26926296  0.59104654  0.58895446  1  0  -0.894521  0  1.855846  0  0  -0.840845  0  2.048215  0  0  -0.859708  0  2.021142  0  0  -0.603283  -0.827602  0  2.067121  0
O  O102  1  0.76921715  0.90895272  0.08896402  1  0  -0.89453  0  1.85545  0  0  -0.840877  0  2.047702  0  0  -0.859698  0  2.020643  0  0  -0.603316  -0.827632  0  2.06661  0
O  O103  1  0.73074102  0.40895770  0.41104415  1  0  -0.894589  0  1.855591  0  0  -0.840945  0  2.048007  0  0  -0.859802  0  2.020934  0  0  -0.603309  -0.827704  0  2.066917  0
O  O104  1  0.41261968  0.80640611  0.53270922  1  0  -0.859612  0  1.849375  0  0  -0.802169  0  2.012211  0  0  -0.822504  0  1.979044  0  0  -0.617284  -0.787753  0  2.035359  0
O  O105  1  0.08740423  0.30641234  0.96728957  1  0  -0.859473  0  1.84952  0  0  -0.802052  0  2.012311  0  0  -0.8224  0  1.979143  0  0  -0.617236  -0.78762  0  2.035463  0
O  O106  1  0.58741372  0.19359021  0.46729321  1  0  -0.8596  0  1.849339  0  0  -0.802075  0  2.012256  0  0  -0.822428  0  1.979108  0  0  -0.617225  -0.787645  0  2.035419  0
O  O107  1  0.91256314  0.69359685  0.03270786  1  0  -0.859506  0  1.849475  0  0  -0.802011  0  2.012333  0  0  -0.822372  0  1.979203  0  0  -0.617218  -0.78758  0  2.035491  0
