# generated using pymatgen
data_NdH18C20NO8
_symmetry_space_group_name_H-M   'P 1'
_cell_length_a   12.08356567
_cell_length_b   14.67739038
_cell_length_c   16.24546835
_cell_angle_alpha   116.89922245
_cell_angle_beta   102.52626630
_cell_angle_gamma   89.98916629
_symmetry_Int_Tables_number   1
_chemical_formula_structural   NdH18C20NO8
_chemical_formula_sum   'Nd4 H72 C80 N4 O32'
_cell_volume   2492.39688757
_cell_formula_units_Z   4
loop_
 _symmetry_equiv_pos_site_id
 _symmetry_equiv_pos_as_xyz
  1  'x, y, z'
loop_
 _atom_site_type_symbol
 _atom_site_label
 _atom_site_symmetry_multiplicity
 _atom_site_fract_x
 _atom_site_fract_y
 _atom_site_fract_z
 _atom_site_occupancy
 _atom_site_pbe_bader_charge
 _atom_site_pbe_bader_spin_density
 _atom_site_pbe_cm5_charge
 _atom_site_pbe_ddec_charge
 _atom_site_pbe_ddec_spin_density
 _atom_site_pbe_ddec_sum_bond_order
 _atom_site_pbe_magmom
Nd  Nd0  1  0.44428314  0.40169024  0.35782867  1  2.24062  0  1.491958  2.062124  0  2.182583  0
Nd  Nd1  1  0.05593401  0.04406007  0.64207539  1  2.2402  0  1.491265  2.062205  0  2.182738  0
Nd  Nd2  1  0.55571459  0.59831250  0.64216982  1  2.240487  0  1.491985  2.062071  0  2.182749  0
Nd  Nd3  1  0.94406674  0.95593905  0.35792335  1  2.240158  0  1.491302  2.062324  0  2.182444  0
H  H4  1  0.54955229  0.17691541  0.06320042  1  0.070707  0  0.106992  0.112605  0  1.005376  0
H  H5  1  0.95045640  0.11373797  0.93639673  1  0.101048  0  0.10714  0.112359  0  1.005879  0
H  H6  1  0.45046973  0.82308755  0.93680987  1  0.070782  0  0.107054  0.112634  0  1.005334  0
H  H7  1  0.04959541  0.88627517  0.06361770  1  0.100645  0  0.107098  0.112348  0  1.005876  0
H  H8  1  0.60239948  0.12832241  0.90856502  1  0.04859  0  0.101479  0.098577  0  1.001598  0
H  H9  1  0.89729368  0.21957427  0.09096158  1  0.06334  0  0.101083  0.098185  0  1.0011  0
H  H10  1  0.39762516  0.87167647  0.09144889  1  0.048504  0  0.101492  0.098526  0  1.001575  0
H  H11  1  0.10274644  0.78043612  0.90905159  1  0.063706  0  0.101105  0.098262  0  1.001246  0
H  H12  1  0.61105810  0.44468329  0.96427931  1  0.111872  0  0.107269  0.109839  0  1.006947  0
H  H13  1  0.88870517  0.48067226  0.03604470  1  0.095745  0  0.107002  0.109349  0  1.006935  0
H  H14  1  0.38895271  0.55530888  0.03571871  1  0.111738  0  0.107226  0.109779  0  1.007065  0
H  H15  1  0.11128560  0.51932718  0.96394896  1  0.095901  0  0.107027  0.109361  0  1.006938  0
H  H16  1  0.55898785  0.49231143  0.11975960  1  0.112549  0  0.106212  0.110563  0  1.004749  0
H  H17  1  0.94110310  0.37305509  0.88061442  1  0.094032  0  0.106089  0.110479  0  1.004349  0
H  H18  1  0.44102486  0.50768542  0.88023773  1  0.112438  0  0.106192  0.110526  0  1.004701  0
H  H19  1  0.05889464  0.62694704  0.11938346  1  0.094111  0  0.10608  0.11044  0  1.004435  0
H  H20  1  0.55375181  0.38398759  0.68113047  1  0.142795  0  0.118064  0.135335  0  1.026566  0
H  H21  1  0.94560410  0.70266851  0.31904099  1  0.153153  0  0.117912  0.134714  0  1.027049  0
H  H22  1  0.44623913  0.61600693  0.31886672  1  0.142732  0  0.118041  0.135287  0  1.026576  0
H  H23  1  0.05440212  0.29733868  0.68096195  1  0.15328  0  0.11794  0.134798  0  1.026869  0
H  H24  1  0.76317115  0.15606308  0.70783128  1  0.101982  0  0.110052  0.116918  0  1.029041  0
H  H25  1  0.73671044  0.44784800  0.29245295  1  0.096713  0  0.109987  0.116949  0  1.028604  0
H  H26  1  0.23682931  0.84393858  0.29216769  1  0.101943  0  0.110028  0.116892  0  1.02905  0
H  H27  1  0.26330011  0.55215013  0.70754182  1  0.096578  0  0.110031  0.117006  0  1.028541  0
H  H28  1  0.66238807  0.15752044  0.43867052  1  0.125883  0  0.106985  0.110305  0  1.029742  0
H  H29  1  0.83760479  0.71873045  0.56165666  1  0.082032  0  0.107076  0.1098  0  1.029807  0
H  H30  1  0.33760447  0.84247603  0.56132784  1  0.125873  0  0.106977  0.110347  0  1.029807  0
H  H31  1  0.16238852  0.28127249  0.43834048  1  0.081983  0  0.107076  0.109788  0  1.02983  0
H  H32  1  0.99377041  0.34507072  0.31514804  1  -0.030945  0  -0.006639  -0.014285  0  0.960916  0
H  H33  1  0.50653698  0.02978871  0.68478053  1  -0.037641  0  -0.006789  -0.014653  0  0.96143  0
H  H34  1  0.00629793  0.65479787  0.68483873  1  -0.031789  0  -0.006675  -0.01436  0  0.960686  0
H  H35  1  0.49345879  0.97022903  0.31522364  1  -0.037594  0  -0.006778  -0.014557  0  0.961427  0
H  H36  1  0.13482087  0.47718039  0.19263389  1  0.090077  0  0.114161  0.038911  0  0.93745  0
H  H37  1  0.36590295  0.28416384  0.80714145  1  0.094353  0  0.114347  0.03921  0  0.938178  0
H  H38  1  0.86519113  0.52284104  0.80736791  1  0.0891  0  0.114141  0.038928  0  0.937443  0
H  H39  1  0.63409167  0.71584140  0.19286179  1  0.094451  0  0.114337  0.039182  0  0.938238  0
H  H40  1  0.07059999  0.53450772  0.34590753  1  0.07797  0  0.107378  0.161458  0  0.998884  0
H  H41  1  0.42932189  0.18797796  0.65349043  1  0.076364  0  0.107254  0.160976  0  0.999092  0
H  H42  1  0.92940233  0.46547905  0.65409198  1  0.077383  0  0.107332  0.161398  0  0.999021  0
H  H43  1  0.57066536  0.81201762  0.34651237  1  0.076355  0  0.107224  0.16093  0  0.999155  0
H  H44  1  0.15233242  0.63570532  0.34979467  1  0.096265  0  0.110223  0.167278  0  0.985496  0
H  H45  1  0.34778828  0.28559604  0.65006101  1  0.108219  0  0.110382  0.167495  0  0.985422  0
H  H46  1  0.84765134  0.36429573  0.65021277  1  0.096227  0  0.110219  0.167274  0  0.985573  0
H  H47  1  0.65220124  0.71440187  0.34994181  1  0.108156  0  0.110324  0.1674  0  0.985499  0
H  H48  1  0.21689801  0.56693552  0.41330889  1  0.09489  0  0.110283  0.16615  0  1.000496  0
H  H49  1  0.28286303  0.15336090  0.58647373  1  0.106095  0  0.109872  0.165074  0  1.001146  0
H  H50  1  0.78310471  0.43306256  0.58669112  1  0.094934  0  0.110284  0.166119  0  1.00056  0
H  H51  1  0.71712337  0.84663765  0.41353200  1  0.10608  0  0.109849  0.164995  0  1.001181  0
H  H52  1  0.00436538  0.33854741  0.35939577  1  0.027242  0  0.004442  0.021764  0  0.955743  0
H  H53  1  0.49533737  0.97898090  0.64046992  1  0.034024  0  0.004519  0.021978  0  0.956171  0
H  H54  1  0.99534614  0.66141811  0.64063144  1  0.028093  0  0.004415  0.021745  0  0.955483  0
H  H55  1  0.50461267  0.02103129  0.35953613  1  0.033989  0  0.004507  0.021893  0  0.956191  0
H  H56  1  0.31727922  0.18360991  0.35437830  1  0.099558  0  0.115985  0.034816  0  0.965744  0
H  H57  1  0.18283751  0.82925992  0.64516162  1  0.101572  0  0.11591  0.034556  0  0.965299  0
H  H58  1  0.68271153  0.81639499  0.64559253  1  0.098901  0  0.116035  0.034838  0  0.965677  0
H  H59  1  0.81716465  0.17074077  0.35483640  1  0.101629  0  0.115909  0.034564  0  0.965257  0
H  H60  1  0.15105881  0.08170863  0.15245974  1  0.073253  0  0.105606  0.155875  0  0.975289  0
H  H61  1  0.34875626  0.92908275  0.84722948  1  0.066534  0  0.105877  0.156491  0  0.974763  0
H  H62  1  0.84891072  0.91829506  0.84751663  1  0.073233  0  0.105587  0.155784  0  0.975371  0
H  H63  1  0.65122409  0.07090690  0.15277352  1  0.066303  0  0.105879  0.156565  0  0.974693  0
H  H64  1  0.11772137  0.08930168  0.25856077  1  0.134927  0  0.12162  0.187554  0  0.975891  0
H  H65  1  0.38207562  0.83041645  0.74110672  1  0.151223  0  0.1219  0.188019  0  0.976558  0
H  H66  1  0.88228158  0.91069494  0.74142560  1  0.134828  0  0.12163  0.18751  0  0.975896  0
H  H67  1  0.61793314  0.16959548  0.25890092  1  0.151254  0  0.121935  0.188046  0  0.976539  0
H  H68  1  0.22366679  0.01485425  0.21481085  1  0.061754  0  0.10963  0.156739  0  0.982045  0
H  H69  1  0.27586057  0.79990951  0.78467648  1  0.060154  0  0.109459  0.156922  0  0.982277  0
H  H70  1  0.77633047  0.98515117  0.78515824  1  0.061996  0  0.109695  0.156732  0  0.982082  0
H  H71  1  0.72413782  0.20007159  0.21530597  1  0.060321  0  0.109478  0.156999  0  0.98225  0
H  H72  1  0.63597980  0.16732447  0.79258359  1  0.027165  0  0.100282  0.049685  0  1.025472  0
H  H73  1  0.86391659  0.37449356  0.20726106  1  0.045245  0  0.100206  0.049151  0  1.025966  0
H  H74  1  0.36403515  0.83266786  0.20742073  1  0.026674  0  0.100292  0.049736  0  1.025339  0
H  H75  1  0.13610893  0.62551355  0.79274725  1  0.045115  0  0.100158  0.049093  0  1.025929  0
C  C76  1  0.51502717  0.36308714  0.18963930  1  1.552255  0  0.187904  0.560575  0  4.246903  0
C  C77  1  0.98526867  0.17390182  0.81036295  1  1.527495  0  0.188152  0.56104  0  4.248799  0
C  C78  1  0.48497790  0.63691221  0.81036046  1  1.551557  0  0.187916  0.560628  0  4.246894  0
C  C79  1  0.01474622  0.82610523  0.18964142  1  1.527623  0  0.188052  0.560823  0  4.248831  0
C  C80  1  0.55105036  0.33703326  0.09968581  1  -0.07127  0  -0.008457  -0.010266  0  3.932543  0
C  C81  1  0.94899742  0.23761782  0.90027973  1  -0.06717  0  -0.009029  -0.011182  0  3.932571  0
C  C82  1  0.44896800  0.66296550  0.90031803  1  -0.070268  0  -0.008461  -0.010348  0  3.932836  0
C  C83  1  0.05102246  0.76238923  0.09972392  1  -0.067459  0  -0.009018  -0.011413  0  3.932582  0
C  C84  1  0.56433316  0.23463470  0.04091238  1  0.007963  0  -0.082805  -0.093777  0  3.976084  0
C  C85  1  0.93560046  0.19379255  0.95882308  1  -0.098395  0  -0.082253  -0.092371  0  3.975394  0
C  C86  1  0.43568659  0.76536779  0.95909973  1  0.008207  0  -0.082844  -0.093765  0  3.976182  0
C  C87  1  0.06443835  0.80622049  0.04118889  1  -0.097259  0  -0.082286  -0.092168  0  3.974907  0
C  C88  1  0.59310753  0.20817285  0.95524073  1  -0.017466  0  -0.085778  -0.125501  0  3.994528  0
C  C89  1  0.90662999  0.25288584  0.04445769  1  0.000852  0  -0.086057  -0.126387  0  3.993925  0
C  C90  1  0.40691420  0.79182365  0.04476775  1  -0.01781  0  -0.085857  -0.125472  0  3.994562  0
C  C91  1  0.09339968  0.74711866  0.95554730  1  5.7e-05  0  -0.086019  -0.12661  0  3.993905  0
C  C92  1  0.60874898  0.28360211  0.92680209  1  -0.052082  0  -0.012507  0.054075  0  4.053816  0
C  C93  1  0.89087673  0.35681537  0.07311032  1  -0.005954  0  -0.012564  0.054364  0  4.051123  0
C  C94  1  0.39126672  0.71639388  0.07320509  1  -0.051608  0  -0.01242  0.054054  0  4.053824  0
C  C95  1  0.10914258  0.64318900  0.92689296  1  -0.006678  0  -0.012607  0.054408  0  4.05108  0
C  C96  1  0.59766707  0.38687037  0.98687949  1  -0.038559  0  -0.078157  -0.108008  0  3.940425  0
C  C97  1  0.90207317  0.40018487  0.01325579  1  -0.086146  0  -0.078309  -0.108531  0  3.939427  0
C  C98  1  0.40234723  0.61312128  0.01311881  1  -0.038313  0  -0.078107  -0.10786  0  3.940667  0
C  C99  1  0.09793135  0.59981709  0.98674197  1  -0.086025  0  -0.078329  -0.108557  0  3.93924  0
C  C100  1  0.56906134  0.41309575  0.07255475  1  -0.035834  0  -0.078246  -0.086236  0  3.95266  0
C  C101  1  0.93091628  0.34087822  0.92763223  1  0.068192  0  -0.077578  -0.085151  0  3.951217  0
C  C102  1  0.43095400  0.58690540  0.92744762  1  -0.036639  0  -0.078223  -0.086184  0  3.952945  0
C  C103  1  0.06909022  0.65912519  0.07236927  1  0.068534  0  -0.077556  -0.085022  0  3.951166  0
C  C104  1  0.63047082  0.25067375  0.83327151  1  0.644955  0  0.074994  0.077768  0  3.993572  0
C  C105  1  0.86907439  0.41726260  0.16666336  1  0.615929  0  0.075258  0.078031  0  3.994163  0
C  C106  1  0.36953517  0.74931225  0.16672955  1  0.644726  0  0.074856  0.077441  0  3.99392  0
C  C107  1  0.13094323  0.58274398  0.83334210  1  0.616058  0  0.075355  0.078207  0  3.994226  0
C  C108  1  0.54405316  0.32154970  0.49297479  1  1.54044  0  0.217331  0.622146  0  4.178113  0
C  C109  1  0.95567947  0.82856729  0.50718825  1  1.508877  0  0.217531  0.622468  0  4.177982  0
C  C110  1  0.45593985  0.67845235  0.50702606  1  1.540694  0  0.217231  0.621974  0  4.178167  0
C  C111  1  0.04431770  0.17143649  0.49281357  1  1.508507  0  0.217629  0.622677  0  4.178098  0
C  C112  1  0.60092387  0.27471801  0.55292511  1  -0.018371  0  -0.017183  -0.033592  0  4.005606  0
C  C113  1  0.89877129  0.72169077  0.44732554  1  0.001568  0  -0.017198  -0.03499  0  4.004441  0
C  C114  1  0.39906670  0.72528011  0.44707259  1  -0.018179  0  -0.017033  -0.033329  0  4.005422  0
C  C115  1  0.10122748  0.27831247  0.55267499  1  0.001552  0  -0.017224  -0.034989  0  4.004359  0
C  C116  1  0.59844199  0.31702412  0.64867643  1  -0.062159  0  -0.07095  -0.166392  0  3.887406  0
C  C117  1  0.90106228  0.66816771  0.35153006  1  -0.074748  0  -0.070289  -0.164652  0  3.887714  0
C  C118  1  0.40154734  0.68297156  0.35132267  1  -0.062034  0  -0.070935  -0.166386  0  3.887547  0
C  C119  1  0.09894149  0.33183740  0.64847158  1  -0.074735  0  -0.070272  -0.164617  0  3.887435  0
C  C120  1  0.65135900  0.27126901  0.70423118  1  0.406384  0  0.087433  0.196943  0  4.094418  0
C  C121  1  0.84812689  0.56681834  0.29593846  1  0.395011  0  0.087203  0.196308  0  4.093152  0
C  C122  1  0.34863429  0.72872803  0.29576699  1  0.406395  0  0.087414  0.196934  0  4.094346  0
C  C123  1  0.15187951  0.43318612  0.70406331  1  0.39508  0  0.087179  0.196158  0  4.093031  0
C  C124  1  0.71469115  0.18859235  0.66478986  1  -0.112346  0  -0.075137  -0.166982  0  3.903632  0
C  C125  1  0.78510410  0.52351920  0.33545701  1  -0.015745  0  -0.074789  -0.166474  0  3.901584  0
C  C126  1  0.28530459  0.81140615  0.33520900  1  -0.112415  0  -0.075093  -0.166936  0  3.903586  0
C  C127  1  0.21490145  0.47648326  0.66454279  1  -0.015498  0  -0.074814  -0.166445  0  3.901479  0
C  C128  1  0.71942550  0.14814664  0.56956835  1  0.050575  0  -0.014679  -0.024932  0  3.970152  0
C  C129  1  0.78055728  0.57833898  0.43073278  1  -0.006518  0  -0.014983  -0.025259  0  3.969398  0
C  C130  1  0.28057073  0.85185558  0.43043115  1  0.050856  0  -0.014713  -0.02503  0  3.97013  0
C  C131  1  0.21943970  0.42166196  0.56926469  1  -0.006807  0  -0.014932  -0.025205  0  3.969334  0
C  C132  1  0.65980027  0.18955932  0.51299503  1  -0.072296  0  -0.076023  -0.110036  0  3.933555  0
C  C133  1  0.84010200  0.67643613  0.48730407  1  -0.044323  0  -0.07637  -0.109396  0  3.931606  0
C  C134  1  0.34019218  0.81043882  0.48700423  1  -0.072553  0  -0.076114  -0.110213  0  3.933529  0
C  C135  1  0.15989385  0.32356597  0.51269226  1  -0.044254  0  -0.076348  -0.109443  0  3.931525  0
C  C136  1  0.79273675  0.06360957  0.52995460  1  1.605295  0  0.226591  0.636362  0  4.174922  0
C  C137  1  0.70736034  0.53336422  0.47032466  1  1.596646  0  0.226076  0.634831  0  4.178117  0
C  C138  1  0.20726259  0.93639326  0.47004323  1  1.605255  0  0.22657  0.636392  0  4.175029  0
C  C139  1  0.29263673  0.46663566  0.52967253  1  1.596396  0  0.226042  0.634789  0  4.178045  0
C  C140  1  0.18997020  0.48702779  0.26123920  1  0.913549  0  0.141514  0.453978  0  3.855743  0
C  C141  1  0.31043139  0.22550636  0.73859327  1  0.904725  0  0.141232  0.45244  0  3.855497  0
C  C142  1  0.81003124  0.51298723  0.73876002  1  0.914899  0  0.141555  0.45405  0  3.855899  0
C  C143  1  0.68956378  0.77449875  0.26141443  1  0.90475  0  0.14136  0.452528  0  3.855807  0
C  C144  1  0.15764744  0.56044945  0.34911997  1  -0.116926  0  -0.235265  -0.489993  0  3.908616  0
C  C145  1  0.34238274  0.21095036  0.65058202  1  -0.137405  0  -0.234859  -0.488143  0  3.909523  0
C  C146  1  0.84235018  0.43954844  0.65087983  1  -0.116603  0  -0.235227  -0.489934  0  3.908767  0
C  C147  1  0.65760432  0.78904795  0.34942195  1  -0.13747  0  -0.234822  -0.487949  0  3.909621  0
C  C148  1  0.27313170  0.17559641  0.28348994  1  0.88039  0  0.134635  0.436999  0  3.873048  0
C  C149  1  0.22688443  0.89209955  0.71616063  1  0.882612  0  0.134751  0.438073  0  3.873815  0
C  C150  1  0.72684924  0.82440823  0.71648363  1  0.880529  0  0.134445  0.436712  0  3.87327  0
C  C151  1  0.77311915  0.10790023  0.28383421  1  0.88275  0  0.134753  0.438112  0  3.873594  0
C  C152  1  0.18607801  0.08573876  0.22225730  1  -0.098498  0  -0.229329  -0.474764  0  3.916005  0
C  C153  1  0.31370229  0.86331725  0.77735882  1  -0.108974  0  -0.230263  -0.47703  0  3.917339  0
C  C154  1  0.81390839  0.91426371  0.77771721  1  -0.098835  0  -0.229371  -0.474592  0  3.916049  0
C  C155  1  0.68629289  0.13667795  0.22263906  1  -0.109197  0  -0.230273  -0.4772  0  3.9172  0
N  N156  1  0.63674942  0.31194910  0.79713976  1  -1.204296  0  -0.312055  -0.28716  0  3.328776  0
N  N157  1  0.86247890  0.51466032  0.20293248  1  -1.202347  0  -0.311732  -0.286018  0  3.328276  0
N  N158  1  0.36324406  0.68804459  0.20285663  1  -1.203868  0  -0.311983  -0.286937  0  3.329019  0
N  N159  1  0.13753438  0.48534416  0.79707012  1  -1.202291  0  -0.311795  -0.28607  0  3.328459  0
O  O160  1  0.50184506  0.45586279  0.24377188  1  -1.179352  0  -0.375247  -0.625168  0  2.204787  0
O  O161  1  0.99875924  0.21274747  0.75651969  1  -1.176592  0  -0.374889  -0.625064  0  2.204652  0
O  O162  1  0.49815305  0.54413574  0.75622550  1  -1.178928  0  -0.375244  -0.625205  0  2.204763  0
O  O163  1  0.00124425  0.78725522  0.24347727  1  -1.176716  0  -0.374814  -0.624909  0  2.204507  0
O  O164  1  0.49829900  0.28998058  0.20973299  1  -1.177758  0  -0.396279  -0.635686  0  2.192044  0
O  O165  1  0.00193589  0.08059927  0.79005739  1  -1.17659  0  -0.396952  -0.635928  0  2.192078  0
O  O166  1  0.50171040  0.71002397  0.79027271  1  -1.177747  0  -0.396312  -0.635695  0  2.192107  0
O  O167  1  0.99808069  0.91940743  0.20994665  1  -1.176652  0  -0.396903  -0.635785  0  2.192109  0
O  O168  1  0.51570578  0.26786153  0.40306537  1  -1.174379  0  -0.371982  -0.62158  0  2.203042  0
O  O169  1  0.98415918  0.86504114  0.59711884  1  -1.162386  0  -0.371834  -0.621238  0  2.202551  0
O  O170  1  0.48427960  0.73214241  0.59693730  1  -1.1745  0  -0.371919  -0.621511  0  2.203045  0
O  O171  1  0.01583626  0.13496267  0.40288986  1  -1.162219  0  -0.371953  -0.621351  0  2.20277  0
O  O172  1  0.52528845  0.41619590  0.53360174  1  -1.224063  0  -0.426697  -0.740862  0  2.426865  0
O  O173  1  0.97447076  0.88238333  0.46643405  1  -1.226404  0  -0.42702  -0.741973  0  2.42705  0
O  O174  1  0.47470899  0.58380783  0.46640230  1  -1.224361  0  -0.426693  -0.740796  0  2.426845  0
O  O175  1  0.02553911  0.11761781  0.53357209  1  -1.226152  0  -0.427009  -0.742115  0  2.427108  0
O  O176  1  0.79330676  0.02840642  0.44256439  1  -1.207744  0  -0.389831  -0.676062  0  2.284871  0
O  O177  1  0.70658177  0.58574808  0.55766077  1  -1.20151  0  -0.389641  -0.675242  0  2.284332  0
O  O178  1  0.20669718  0.97160092  0.55744098  1  -1.207766  0  -0.389817  -0.676088  0  2.284766  0
O  O179  1  0.29341776  0.41425450  0.44233834  1  -1.201542  0  -0.389687  -0.675302  0  2.284373  0
O  O180  1  0.85071103  0.03419927  0.58714312  1  -1.20716  0  -0.400515  -0.662057  0  2.277593  0
O  O181  1  0.64965181  0.44657488  0.41316342  1  -1.207622  0  -0.400209  -0.661056  0  2.278259  0
O  O182  1  0.14929272  0.96580118  0.41286077  1  -1.207136  0  -0.400464  -0.662001  0  2.277856  0
O  O183  1  0.35034668  0.55342843  0.58683488  1  -1.207339  0  -0.400195  -0.661028  0  2.278136  0
O  O184  1  0.27161764  0.43661452  0.25862082  1  -1.128473  0  -0.288078  -0.445754  0  2.288757  0
O  O185  1  0.22880134  0.17787163  0.74138419  1  -1.124678  0  -0.288192  -0.445068  0  2.287611  0
O  O186  1  0.72838418  0.56340158  0.74137565  1  -1.128537  0  -0.288087  -0.445803  0  2.288913  0
O  O187  1  0.77119626  0.82213151  0.25862768  1  -1.124584  0  -0.288222  -0.44511  0  2.287857  0
O  O188  1  0.29832824  0.24023524  0.26002737  1  -1.109652  0  -0.286669  -0.436109  0  2.268988  0
O  O189  1  0.20180668  0.98029279  0.73974692  1  -1.111107  0  -0.286179  -0.435792  0  2.270684  0
O  O190  1  0.70164403  0.75977699  0.73995212  1  -1.108858  0  -0.286588  -0.435865  0  2.269113  0
O  O191  1  0.79819896  0.01970738  0.26025136  1  -1.111065  0  -0.286223  -0.435862  0  2.27059  0
