# generated using pymatgen
data_Cu3H16C14(IN3)2
_symmetry_space_group_name_H-M   'P 1'
_cell_length_a   8.29122946
_cell_length_b   11.47389860
_cell_length_c   12.27994060
_cell_angle_alpha   86.05092899
_cell_angle_beta   71.20146859
_cell_angle_gamma   89.71712543
_symmetry_Int_Tables_number   1
_chemical_formula_structural   Cu3H16C14(IN3)2
_chemical_formula_sum   'Cu6 H32 C28 I4 N12'
_cell_volume   1103.09827213
_cell_formula_units_Z   2
loop_
 _symmetry_equiv_pos_site_id
 _symmetry_equiv_pos_as_xyz
  1  'x, y, z'
loop_
 _atom_site_type_symbol
 _atom_site_label
 _atom_site_symmetry_multiplicity
 _atom_site_fract_x
 _atom_site_fract_y
 _atom_site_fract_z
 _atom_site_occupancy
 _atom_site_hle17_ddec_charge
 _atom_site_hle17_ddec_spin_density
 _atom_site_hle17_ddec_sum_bond_order
 _atom_site_hle17_magmom
 _atom_site_hse06_10hf_ddec_charge
 _atom_site_hse06_10hf_ddec_spin_density
 _atom_site_hse06_10hf_ddec_sum_bond_order
 _atom_site_hse06_10hf_magmom
 _atom_site_hse06_ddec_charge
 _atom_site_hse06_ddec_spin_density
 _atom_site_hse06_ddec_sum_bond_order
 _atom_site_hse06_magmom
 _atom_site_pbe_cm5_charge
 _atom_site_pbe_ddec_charge
 _atom_site_pbe_ddec_spin_density
 _atom_site_pbe_ddec_sum_bond_order
 _atom_site_pbe_magmom
Cu  Cu0  1  0.52732893  0.10306090  0.48155103  1  0.294396  0.017755  2.110111  0.014  0.19797  0.003593  2.597617  0.003  0.212907  0.000853  2.542342  0.001  0.287052  0.193288  0.009545  2.630513  0.008
Cu  Cu1  1  0.47267800  0.89693424  0.51842828  1  0.294431  -0.017766  2.110083  -0.014  0.198081  -0.003594  2.597486  -0.003  0.213025  -0.000853  2.542221  -0.001  0.287115  0.1934  -0.009553  2.63039  -0.008
Cu  Cu2  1  0.79648985  0.59243450  0.47236229  1  0.681185  0.62834  1.956782  0.43  0.641848  0.758048  2.360527  0.555  0.724646  0.844796  2.301157  0.638  0.763676  0.587298  0.676378  2.404786  0.492
Cu  Cu3  1  0.20352749  0.40756289  0.52763325  1  0.681134  -0.628262  1.956617  -0.43  0.641845  -0.758  2.360327  -0.555  0.724797  -0.844764  2.300791  -0.638  0.763584  0.587278  -0.67631  2.404576  -0.492
Cu  Cu4  1  0.97236024  0.54116476  0.91533971  1  0.298639  0.021176  2.075639  0.016  0.187295  0.005105  2.577938  0.005  0.202958  0.00151  2.520277  0.002  0.276647  0.184826  0.01292  2.609619  0.011
Cu  Cu5  1  0.02762377  0.45882239  0.08467225  1  0.298644  -0.021197  2.075642  -0.016  0.187252  -0.005109  2.577948  -0.005  0.202907  -0.001511  2.520299  -0.002  0.276628  0.184793  -0.012942  2.609628  -0.011
H  H6  1  0.66816000  0.30420532  0.59041567  1  0.075641  5.3e-05  0.928386  0.0  0.089016  9e-05  0.986893  0.0  0.091333  0.000113  0.9841  0.0  0.122956  0.086832  3e-05  0.989141  0.0
H  H7  1  0.33188334  0.69577378  0.40954641  1  0.075753  -5.2e-05  0.928186  0.0  0.089036  -9e-05  0.986792  0.0  0.091344  -0.000114  0.984  0.0  0.12296  0.086848  -3.1e-05  0.989038  0.0
H  H8  1  0.53295647  0.30341323  0.28772348  1  0.10906  0.000181  0.948691  0.0  0.120981  0.000121  1.006825  0.0  0.124325  0.000134  1.004782  0.0  0.110826  0.117771  8.2e-05  1.009302  0.0
H  H9  1  0.46703037  0.69659240  0.71225935  1  0.108989  -0.000182  0.94883  0.0  0.120845  -0.00012  1.007019  0.0  0.124182  -0.000134  1.004974  0.0  0.11084  0.117637  -8.2e-05  1.009495  0.0
H  H10  1  0.67268008  0.55637412  0.19904831  1  0.084777  0.00563  0.934608  0.007  0.100676  0.004587  0.992774  0.005  0.102998  0.003506  0.986944  0.004  0.116297  0.096361  0.00487  0.999457  0.006
H  H11  1  0.32730610  0.44364615  0.80095781  1  0.084765  -0.005634  0.934475  -0.007  0.100681  -0.004589  0.992621  -0.005  0.103002  -0.003509  0.986791  -0.004  0.116321  0.096365  -0.004872  0.999304  -0.006
H  H12  1  0.98027384  0.71802880  0.21042188  1  0.0478  0.000525  0.934178  0.001  0.062805  0.000236  0.99964  0.0  0.062904  0.000312  0.999417  0.001  0.097372  0.061821  0.000154  1.000113  0.0
H  H13  1  0.01972067  0.28197292  0.78957670  1  0.047709  -0.000526  0.934029  -0.001  0.06274  -0.000235  0.999532  0.0  0.06284  -0.000313  0.999306  -0.001  0.097372  0.061757  -0.000154  1.000002  0.0
H  H14  1  0.76962975  0.74106413  0.10619842  1  0.070047  -0.000214  0.939493  0.0  0.088224  -1.2e-05  1.002157  0.0  0.09001  -2.5e-05  1.000327  0.0  0.086634  0.086019  -3e-06  1.004347  0.0
H  H15  1  0.23033963  0.25894583  0.89381803  1  0.070098  0.000212  0.939701  0.0  0.088361  1.2e-05  1.002274  0.0  0.090147  2.4e-05  1.000454  0.0  0.086705  0.08615  3e-06  1.004468  0.0
H  H16  1  0.63527007  0.82089355  0.21957692  1  0.069334  -0.000223  0.952429  0.0  0.085676  -8.7e-05  1.017795  0.0  0.086492  -7.3e-05  1.018475  0.0  0.079984  0.084963  -6.8e-05  1.017349  0.0
H  H17  1  0.36471725  0.17911911  0.78043858  1  0.069432  0.000222  0.952208  0.0  0.085776  8.8e-05  1.017614  0.0  0.086591  7.3e-05  1.01829  0.0  0.08003  0.085056  6.8e-05  1.01717  0.0
H  H18  1  0.99916611  0.88552726  0.06288088  1  0.059536  -5.2e-05  0.954299  0.0  0.076098  -3.1e-05  1.021879  0.0  0.076999  -2.1e-05  1.022287  0.0  0.078784  0.074927  -3.9e-05  1.02192  0.0
H  H19  1  0.00080063  0.11448246  0.93712721  1  0.059432  5.7e-05  0.954274  0.0  0.075994  3.1e-05  1.021895  0.0  0.0769  2.1e-05  1.0223  0.0  0.07874  0.074812  3.9e-05  1.021931  0.0
H  H20  1  0.81158265  0.95828544  0.06103042  1  0.070461  0.000701  0.923428  0.001  0.092904  0.000578  0.974056  0.001  0.093569  0.000375  0.974708  0.0  0.091783  0.091851  0.000663  0.974189  0.001
H  H21  1  0.18839566  0.04172296  0.93899151  1  0.070262  -0.000697  0.923259  -0.001  0.092756  -0.000578  0.97388  -0.001  0.093427  -0.000375  0.974522  0.0  0.091637  0.091694  -0.000663  0.974013  -0.001
H  H22  1  0.76869469  0.02981721  0.25200753  1  0.054509  -3.6e-05  0.966828  0.0  0.070129  -5e-06  1.039417  0.0  0.071969  -1.1e-05  1.037663  0.0  0.073148  0.068255  -9e-06  1.041163  0.0
H  H23  1  0.23130900  0.97018766  0.74800829  1  0.054579  3.5e-05  0.966864  0.0  0.070167  5e-06  1.039492  0.0  0.07199  1.2e-05  1.037753  0.0  0.073172  0.068299  9e-06  1.041231  0.0
H  H24  1  0.97827750  0.06653957  0.16156944  1  0.064153  0.000728  0.940658  0.001  0.083916  0.000591  0.999176  0.001  0.084383  0.00038  0.999874  0.0  0.087922  0.083079  0.000674  0.999134  0.001
H  H25  1  0.02171685  0.93345122  0.83844561  1  0.064201  -0.00073  0.940411  -0.001  0.083933  -0.000592  0.998977  -0.001  0.0844  -0.000379  0.999677  0.0  0.087896  0.083097  -0.000674  0.998934  -0.001
H  H26  1  0.09608694  0.90365191  0.25546863  1  0.076296  -0.000175  0.930431  0.0  0.094795  -6.1e-05  0.988276  0.0  0.09624  -6e-05  0.988076  0.0  0.082995  0.093408  -5.6e-05  0.988689  0.0
H  H27  1  0.90390746  0.09634547  0.74453117  1  0.076342  0.000174  0.930381  0.0  0.094832  6.1e-05  0.988223  0.0  0.096271  6.1e-05  0.988019  0.0  0.083007  0.093446  5.6e-05  0.988638  0.0
H  H28  1  0.96403924  0.98941541  0.36239298  1  0.064393  -0.000329  0.959967  0.0  0.080372  -0.000187  1.028602  0.0  0.080706  -0.000158  1.02926  0.0  0.080262  0.080027  -0.000209  1.028284  0.0
H  H29  1  0.03598065  0.01057958  0.63761035  1  0.064426  0.000328  0.959914  0.0  0.080398  0.000186  1.028552  0.0  0.08072  0.000157  1.029209  0.0  0.08024  0.080052  0.00021  1.028239  0.0
H  H30  1  0.71937766  0.85266518  0.39102518  1  0.028208  0.000513  0.978325  0.001  0.042096  0.000192  1.059469  0.0  0.044758  0.000258  1.053375  0.0  0.084635  0.039396  0.000118  1.063986  0.0
H  H31  1  0.28061845  0.14734232  0.60899209  1  0.028441  -0.000514  0.977977  -0.001  0.042285  -0.000192  1.059088  0.0  0.044915  -0.000259  1.053035  0.0  0.084695  0.039589  -0.000118  1.0636  0.0
H  H32  1  0.00710165  0.87675617  0.51487431  1  0.077952  0.005703  0.959019  0.007  0.088181  0.004542  1.029297  0.005  0.090372  0.003449  1.023981  0.004  0.107532  0.084637  0.0048  1.034731  0.006
H  H33  1  0.99289905  0.12323778  0.48512685  1  0.077875  -0.005705  0.958924  -0.007  0.088117  -0.004545  1.02922  -0.005  0.090297  -0.003451  1.023916  -0.004  0.107497  0.08457  -0.004802  1.034657  -0.006
H  H34  1  0.05105028  0.76941537  0.74450568  1  0.102528  6.6e-05  0.955687  0.0  0.11514  8e-05  1.015205  0.0  0.117696  0.000124  1.013299  0.0  0.116068  0.112581  7e-06  1.017615  0.0
H  H35  1  0.94896845  0.23058394  0.25549591  1  0.10258  -6.4e-05  0.955873  0.0  0.115187  -8e-05  1.015367  0.0  0.117743  -0.000124  1.013459  0.0  0.116097  0.112636  -7e-06  1.017783  0.0
H  H36  1  0.80427378  0.45122163  0.73891357  1  0.076886  -1.9e-05  0.930229  0.0  0.089321  6.4e-05  0.99095  0.0  0.091744  8.7e-05  0.987815  0.0  0.12276  0.08708  -2e-05  0.993546  0.0
H  H37  1  0.19574234  0.54877751  0.26108209  1  0.07705  1.8e-05  0.93005  0.0  0.089375  -6.4e-05  0.990879  0.0  0.091788  -8.7e-05  0.987747  0.0  0.122771  0.087138  1.9e-05  0.993468  0.0
C  C38  1  0.64991039  0.33555169  0.50977024  1  0.223174  -0.006762  3.719469  -0.006  0.175977  -0.001419  3.994382  -0.002  0.189903  -0.002094  4.011256  -0.002  0.128405  0.167278  -0.000914  3.983277  -0.001
C  C39  1  0.35012324  0.66443927  0.49021086  1  0.222871  0.006755  3.71927  0.006  0.17576  0.001421  3.994203  0.002  0.189689  0.002096  4.011076  0.002  0.12839  0.16707  0.000916  3.98309  0.001
C  C40  1  0.57938746  0.33630008  0.35309059  1  -0.010125  -0.007238  3.681418  -0.007  -0.050312  -0.002015  3.944294  -0.003  -0.04488  -0.002563  3.961102  -0.003  0.006075  -0.055799  -0.001439  3.936336  -0.002
C  C41  1  0.42060988  0.66371368  0.64689897  1  -0.01001  0.007246  3.68194  0.007  -0.050119  0.002013  3.944852  0.003  -0.044676  0.002556  3.96164  0.003  0.006029  -0.055601  0.001437  3.936898  0.002
C  C42  1  0.64933567  0.44485252  0.35787990  1  0.072952  0.005515  3.864781  0.006  0.077049  0.003762  4.118332  0.005  0.071047  0.003212  4.148036  0.004  0.054456  0.081685  0.003816  4.098976  0.005
C  C43  1  0.35066186  0.55516824  0.64210982  1  0.072826  -0.005535  3.864949  -0.006  0.076929  -0.003765  4.118429  -0.005  0.070924  -0.003216  4.148149  -0.004  0.054524  0.081558  -0.003819  4.099079  -0.005
C  C44  1  0.69472983  0.54932516  0.28254963  1  0.124596  -0.015849  3.69579  -0.018  0.088986  -0.004854  3.942764  -0.008  0.110056  -0.006669  3.9505  -0.01  0.074437  0.073683  -0.003245  3.941406  -0.006
C  C45  1  0.30525081  0.45068338  0.71744490  1  0.124768  0.015877  3.69537  0.018  0.089176  0.004856  3.942313  0.008  0.110248  0.006678  3.950056  0.01  0.074537  0.07387  0.003249  3.940956  0.006
C  C46  1  0.84686391  0.73942409  0.25880406  1  0.102931  0.002734  3.638278  0.001  0.089391  0.003812  3.870463  0.002  0.093548  0.002618  3.88802  0.001  0.00691  0.087359  0.004416  3.85902  0.003
C  C47  1  0.15311124  0.26057126  0.74118958  1  0.103578  -0.002727  3.638275  -0.001  0.089815  -0.003814  3.870767  -0.002  0.093978  -0.00261  3.888314  -0.001  0.007058  0.08778  -0.004415  3.859329  -0.003
C  C48  1  0.76869238  0.79972779  0.17365473  1  -0.154129  0.005094  3.672702  0.005  -0.195228  0.003762  3.917344  0.004  -0.198048  0.00281  3.932961  0.003  -0.166953  -0.193371  0.003948  3.907544  0.004
C  C49  1  0.23128243  0.20030002  0.82634102  1  -0.154549  -0.005083  3.673198  -0.005  -0.195704  -0.003764  3.917985  -0.004  -0.198536  -0.002811  3.93362  -0.003  -0.167141  -0.193846  -0.003948  3.90817  -0.004
C  C50  1  0.87250598  0.91125483  0.11800713  1  -0.101493  0.001039  3.672892  0.001  -0.137915  0.001019  3.930192  0.001  -0.139372  0.000664  3.945585  0.001  -0.166102  -0.136814  0.001213  3.920496  0.001
C  C51  1  0.12748289  0.08876989  0.88200126  1  -0.100981  -0.001068  3.672365  -0.001  -0.137416  -0.001018  3.929666  -0.001  -0.138876  -0.000666  3.945071  -0.001  -0.165809  -0.136288  -0.001214  3.919926  -0.001
C  C52  1  0.89321225  0.99273694  0.20653157  1  -0.104144  0.001068  3.67956  0.001  -0.142534  0.001036  3.936069  0.001  -0.14388  0.000694  3.951451  0.001  -0.169142  -0.141228  0.001271  3.925988  0.001
C  C53  1  0.10678112  0.00726837  0.79347020  1  -0.104363  -0.001055  3.679381  -0.001  -0.142723  -0.001038  3.935951  -0.001  -0.144057  -0.000695  3.951329  -0.001  -0.169195  -0.14142  -0.001271  3.925868  -0.001
C  C54  1  0.96329030  0.93016039  0.29583811  1  -0.155076  0.005494  3.672526  0.006  -0.194262  0.003895  3.919858  0.004  -0.197316  0.002859  3.935945  0.003  -0.168464  -0.192412  0.004182  3.909318  0.004
C  C55  1  0.03672492  0.06985268  0.70415489  1  -0.155265  -0.005496  3.672737  -0.006  -0.194445  -0.003899  3.92005  -0.004  -0.197478  -0.00286  3.936115  -0.003  -0.16848  -0.192613  -0.004185  3.909541  -0.004
C  C56  1  0.85265292  0.82267157  0.35078160  1  0.118345  0.003341  3.637771  0.001  0.101336  0.004134  3.869447  0.002  0.105165  0.002838  3.887461  0.001  0.009143  0.09992  0.004782  3.85722  0.003
C  C57  1  0.14735854  0.17733928  0.64922709  1  0.118046  -0.00334  3.638378  -0.001  0.101257  -0.004129  3.870023  -0.002  0.105096  -0.002838  3.888038  -0.001  0.009113  0.099836  -0.004779  3.857798  -0.003
C  C58  1  0.95198236  0.78932609  0.51963263  1  0.130395  -0.01447  3.715464  -0.017  0.092746  -0.004056  3.966869  -0.007  0.113886  -0.005776  3.976844  -0.009  0.072876  0.078137  -0.002467  3.962417  -0.005
C  C59  1  0.04803518  0.21067427  0.48037564  1  0.130413  0.014479  3.715413  0.017  0.092869  0.004059  3.966869  0.007  0.114016  0.005779  3.97686  0.009  0.072985  0.078256  0.00247  3.962405  0.005
C  C60  1  0.94072404  0.70545975  0.61407884  1  0.071722  0.005152  3.859233  0.006  0.076689  0.003381  4.109694  0.004  0.070476  0.002747  4.138128  0.003  0.052796  0.081789  0.003572  4.09016  0.004
C  C61  1  0.05929183  0.29453305  0.38590929  1  0.071962  -0.005145  3.859234  -0.006  0.07693  -0.003385  4.109699  -0.004  0.070723  -0.002749  4.138144  -0.003  0.052944  0.082014  -0.003576  4.090179  -0.004
C  C62  1  0.98511163  0.70408485  0.71397106  1  0.016137  -0.006595  3.653828  -0.006  -0.017434  -0.002005  3.893462  -0.002  -0.009354  -0.002553  3.90972  -0.003  0.013248  -0.024187  -0.001203  3.885135  -0.001
C  C63  1  0.01489662  0.29590802  0.28602118  1  0.016067  0.006567  3.654404  0.006  -0.017546  0.002003  3.894034  0.002  -0.009483  0.002548  3.910294  0.003  0.013249  -0.024303  0.001201  3.885721  0.001
C  C64  1  0.85914597  0.53842046  0.71144779  1  0.218674  -0.005914  3.717124  -0.005  0.170431  -0.000828  3.990301  -0.001  0.18441  -0.00153  4.006056  -0.002  0.127394  0.16082  -0.00025  3.981496  0.0
C  C65  1  0.14086469  0.46156716  0.28854438  1  0.21817  0.005914  3.717357  0.005  0.170001  0.00083  3.990487  0.001  0.183981  0.001536  4.006237  0.002  0.127144  0.160395  0.000253  3.981676  0.0
I  I66  1  0.63088465  0.99577435  0.63775084  1  -0.392206  -0.002037  1.400378  -0.001  -0.351739  -0.001161  1.783065  -0.001  -0.373258  -0.00078  1.748688  -0.001  -0.190702  -0.331957  -0.001778  1.802571  -0.001
I  I67  1  0.36910312  0.00421744  0.36223789  1  -0.392165  0.002031  1.400283  0.001  -0.351703  0.001157  1.782961  0.001  -0.373224  0.00078  1.748589  0.001  -0.190683  -0.33192  0.001775  1.802465  0.001
I  I68  1  0.80478461  0.35412627  0.01851842  1  -0.408016  -0.000703  1.356473  0.0  -0.372487  0.000229  1.730845  0.0  -0.39453  0.000166  1.694463  0.0  -0.217313  -0.346265  0.000267  1.748176  0.0
I  I69  1  0.19519954  0.64586612  0.98149304  1  -0.408065  0.000694  1.356399  0.0  -0.372556  -0.000231  1.730754  0.0  -0.394599  -0.000167  1.694371  0.0  -0.21734  -0.346334  -0.000273  1.748091  0.0
N  N70  1  0.58099206  0.26775641  0.44886378  1  -0.345073  0.010654  3.393421  0.013  -0.275535  0.004802  3.718486  0.006  -0.294286  0.003293  3.727598  0.004  -0.409456  -0.264199  0.006022  3.713011  0.007
N  N71  1  0.41902123  0.73223386  0.55112840  1  -0.344914  -0.010656  3.393685  -0.013  -0.275439  -0.004801  3.718728  -0.006  -0.294188  -0.003291  3.727846  -0.004  -0.409464  -0.264107  -0.006023  3.713249  -0.007
N  N72  1  0.69237139  0.44248399  0.45881669  1  -0.409893  0.056015  3.324372  0.068  -0.36371  0.047324  3.634598  0.059  -0.395123  0.041993  3.658634  0.055  -0.391928  -0.344233  0.047084  3.619591  0.058
N  N73  1  0.30764855  0.55751194  0.54118899  1  -0.40988  -0.055986  3.324874  -0.068  -0.363668  -0.047311  3.635045  -0.059  -0.395117  -0.041981  3.659091  -0.055  -0.392044  -0.344196  -0.047069  3.620035  -0.057
N  N74  1  0.76692982  0.63079382  0.31936362  1  -0.316253  0.107249  3.281809  0.129  -0.264514  0.087618  3.582377  0.111  -0.296898  0.077056  3.601217  0.102  -0.364816  -0.248074  0.085625  3.574789  0.106
N  N75  1  0.23304935  0.36920292  0.68064775  1  -0.316512  -0.107314  3.282065  -0.129  -0.264699  -0.087651  3.582658  -0.111  -0.29711  -0.077094  3.601481  -0.102  -0.364871  -0.248262  -0.085657  3.575074  -0.106
N  N76  1  0.89130648  0.75410080  0.44245601  1  -0.332469  0.105022  3.296958  0.126  -0.278787  0.085098  3.596359  0.108  -0.312764  0.074727  3.615893  0.099  -0.373407  -0.261195  0.083272  3.58801  0.103
N  N77  1  0.10870814  0.24588564  0.55755576  1  -0.332364  -0.105033  3.297663  -0.127  -0.27897  -0.085118  3.597324  -0.108  -0.312972  -0.074739  3.616841  -0.099  -0.373534  -0.261346  -0.083288  3.588919  -0.103
N  N78  1  0.86057837  0.59877741  0.61411172  1  -0.424011  0.056177  3.319499  0.068  -0.383502  0.048412  3.641836  0.06  -0.415268  0.042927  3.663697  0.056  -0.391262  -0.36362  0.048309  3.628829  0.059
N  N79  1  0.13942666  0.40119259  0.38587755  1  -0.423999  -0.056157  3.32011  -0.068  -0.383478  -0.048399  3.642411  -0.06  -0.415276  -0.042918  3.664275  -0.056  -0.391151  -0.363594  -0.048297  3.629393  -0.059
N  N80  1  0.93300576  0.59893623  0.77491256  1  -0.331841  0.011083  3.387467  0.014  -0.252111  0.004778  3.691593  0.006  -0.27055  0.003071  3.700221  0.004  -0.403539  -0.241747  0.00656  3.687139  0.008
N  N81  1  0.06700103  0.40104726  0.22508899  1  -0.331774  -0.011077  3.388326  -0.014  -0.251909  -0.004776  3.692238  -0.006  -0.270321  -0.003071  3.70085  -0.004  -0.403557  -0.241558  -0.00656  3.687797  -0.008
