# generated using pymatgen
data_TbH6C7(NO4)2
_symmetry_space_group_name_H-M   'P 1'
_cell_length_a   6.10015501
_cell_length_b   6.98766900
_cell_length_c   13.10069321
_cell_angle_alpha   81.83986760
_cell_angle_beta   82.12582209
_cell_angle_gamma   61.05863464
_symmetry_Int_Tables_number   1
_chemical_formula_structural   TbH6C7(NO4)2
_chemical_formula_sum   'Tb2 H12 C14 N4 O16'
_cell_volume   482.23495048
_cell_formula_units_Z   2
loop_
 _symmetry_equiv_pos_site_id
 _symmetry_equiv_pos_as_xyz
  1  'x, y, z'
loop_
 _atom_site_type_symbol
 _atom_site_label
 _atom_site_symmetry_multiplicity
 _atom_site_fract_x
 _atom_site_fract_y
 _atom_site_fract_z
 _atom_site_occupancy
 _atom_site_pbe_bader_charge
 _atom_site_pbe_bader_spin_density
 _atom_site_pbe_cm5_charge
 _atom_site_pbe_ddec_charge
 _atom_site_pbe_ddec_spin_density
 _atom_site_pbe_ddec_sum_bond_order
 _atom_site_pbe_magmom
Tb  Tb0  1  0.80119707  0.62638265  0.22647686  1  2.173044  0  1.472081  1.969703  0  2.154194  0
Tb  Tb1  1  0.19880151  0.37361763  0.77352263  1  2.173037  0  1.472054  1.96964  0  2.154312  0
H  H2  1  0.35741958  0.03155300  0.03652284  1  0.10862  0  0.132976  0.105721  0  1.033659  0
H  H3  1  0.76976671  0.17832850  0.60707855  1  0.142955  0  0.130692  0.108333  0  1.020271  0
H  H4  1  0.70601783  0.94008917  0.39040348  1  0.665505  0  0.301577  0.401357  0  0.933137  0
H  H5  1  0.45110133  0.06547659  0.33539601  1  0.64626  0  0.311415  0.405844  0  0.909906  0
H  H6  1  0.54408247  0.38090384  0.17346343  1  0.632099  0  0.319244  0.417854  0  0.880681  0
H  H7  1  0.67766741  0.21265067  0.26494756  1  0.647603  0  0.302333  0.41217  0  0.906304  0
H  H8  1  0.64256760  0.96847294  0.96348563  1  0.108464  0  0.132917  0.105632  0  1.03378  0
H  H9  1  0.23024346  0.82165697  0.39291868  1  0.143048  0  0.13068  0.108329  0  1.020264  0
H  H10  1  0.29399786  0.05990256  0.60959385  1  0.66549  0  0.301574  0.401343  0  0.933142  0
H  H11  1  0.54890926  0.93451549  0.66460552  1  0.646179  0  0.311448  0.405854  0  0.910028  0
H  H12  1  0.45590470  0.61910717  0.82654055  1  0.632119  0  0.319245  0.417831  0  0.880751  0
H  H13  1  0.32233387  0.78734724  0.73505058  1  0.64764  0  0.302334  0.41217  0  0.9063  0
C  C14  1  0.19664899  0.82776344  0.19568180  1  1.641454  0  0.240124  0.610442  0  4.171071  0
C  C15  1  0.08555539  0.92558018  0.09377061  1  0.542088  0  0.137041  0.085496  0  3.93071  0
C  C16  1  0.19962114  0.01665176  0.01745386  1  0.566635  0  0.076377  0.082993  0  3.868294  0
C  C17  1  0.02002993  0.27702154  0.43073949  1  1.613112  0  0.218882  0.562768  0  4.23652  0
C  C18  1  0.74538647  0.39391662  0.46842695  1  0.498384  0  0.129506  0.078569  0  3.926183  0
C  C19  1  0.64876835  0.32209522  0.55968632  1  0.602199  0  0.078278  0.100562  0  3.8679  0
C  C20  1  0.13751606  0.45046410  0.01496374  1  1.573362  0  0.202232  0.474404  0  4.275361  0
C  C21  1  0.80334886  0.17224229  0.80432305  1  1.6413  0  0.240203  0.610652  0  4.170717  0
C  C22  1  0.91443920  0.07443286  0.90623558  1  0.542462  0  0.136974  0.085298  0  3.931026  0
C  C23  1  0.80036820  0.98336935  0.98255526  1  0.566643  0  0.076567  0.083246  0  3.868468  0
C  C24  1  0.97997891  0.72297427  0.56925455  1  1.613041  0  0.21888  0.562788  0  4.236415  0
C  C25  1  0.25462328  0.60606609  0.53157154  1  0.498652  0  0.129474  0.078513  0  3.926019  0
C  C26  1  0.35124433  0.67788087  0.44030840  1  0.601802  0  0.07836  0.100598  0  3.867879  0
C  C27  1  0.86246406  0.54954398  0.98503581  1  1.591463  0  0.202214  0.474452  0  4.275301  0
N  N28  1  0.88434105  0.90808047  0.07672913  1  -1.222399  0  -0.316582  -0.287639  0  3.427265  0
N  N29  1  0.59543785  0.57085981  0.40856133  1  -1.232696  0  -0.346071  -0.312356  0  3.484295  0
N  N30  1  0.11565066  0.09193900  0.92327620  1  -1.222521  0  -0.316522  -0.287514  0  3.427098  0
N  N31  1  0.40456869  0.42912261  0.59143590  1  -1.232656  0  -0.345969  -0.312232  0  3.484021  0
O  O32  1  0.10836810  0.71775160  0.25466381  1  -1.167245  0  -0.373297  -0.607005  0  2.355665  0
O  O33  1  0.37672755  0.85663908  0.21431054  1  -1.184554  0  -0.39864  -0.634782  0  2.345781  0
O  O34  1  0.07310522  0.32819597  0.33600255  1  -1.177668  0  -0.385812  -0.621278  0  2.245538  0
O  O35  1  0.17767159  0.13851322  0.49099924  1  -1.191362  0  -0.301083  -0.538589  0  2.206728  0
O  O36  1  0.16884736  0.43650314  0.10994935  1  -1.163815  0  -0.359793  -0.580284  0  2.289646  0
O  O37  1  0.30816970  0.38877807  0.94182926  1  -1.180148  0  -0.365449  -0.591262  0  2.377525  0
O  O38  1  0.63523280  0.98412479  0.32144544  1  -1.27791  0  -0.583185  -0.810715  0  2.104515  0
O  O39  1  0.67730505  0.33931415  0.21920386  1  -1.264497  0  -0.622979  -0.832407  0  2.06177  0
O  O40  1  0.89163897  0.28224455  0.74533496  1  -1.167175  0  -0.373402  -0.60712  0  2.35538  0
O  O41  1  0.62327419  0.14336166  0.78569485  1  -1.184674  0  -0.398601  -0.634816  0  2.34572  0
O  O42  1  0.92689526  0.67180367  0.66399147  1  -1.177472  0  -0.38576  -0.621265  0  2.245618  0
O  O43  1  0.82234049  0.86148270  0.50899144  1  -1.191375  0  -0.301073  -0.538546  0  2.206484  0
O  O44  1  0.83113461  0.56350449  0.89004937  1  -1.163729  0  -0.359818  -0.580347  0  2.28961  0
O  O45  1  0.69181175  0.61123818  0.05817038  1  -1.180323  0  -0.365465  -0.591331  0  2.3775  0
O  O46  1  0.36477886  0.01587221  0.67855208  1  -1.277889  0  -0.583195  -0.810693  0  2.104642  0
O  O47  1  0.32268651  0.66069069  0.78079771  1  -1.264549  0  -0.622987  -0.832378  0  2.061835  0
