# generated using pymatgen
data_Zn4H4C24S4Br2O13F2
_symmetry_space_group_name_H-M   'P 1'
_cell_length_a   19.68871015
_cell_length_b   19.72386637
_cell_length_c   33.42390630
_cell_angle_alpha   78.98826142
_cell_angle_beta   79.08936449
_cell_angle_gamma   63.87301025
_symmetry_Int_Tables_number   1
_chemical_formula_structural   Zn4H4C24S4Br2O13F2
_chemical_formula_sum   'Zn16 H16 C96 S16 Br8 O52 F8'
_cell_volume   11357.18942939
_cell_formula_units_Z   4
loop_
 _symmetry_equiv_pos_site_id
 _symmetry_equiv_pos_as_xyz
  1  'x, y, z'
loop_
 _atom_site_type_symbol
 _atom_site_label
 _atom_site_symmetry_multiplicity
 _atom_site_fract_x
 _atom_site_fract_y
 _atom_site_fract_z
 _atom_site_occupancy
 _atom_site_pbe_bader_charge
 _atom_site_pbe_bader_spin_density
 _atom_site_pbe_cm5_charge
 _atom_site_pbe_ddec_charge
 _atom_site_pbe_ddec_spin_density
 _atom_site_pbe_ddec_sum_bond_order
 _atom_site_pbe_magmom
Zn  Zn0  1  0.05624134  0.40000117  0.47810075  1  1.319505  0  0.672304  0.974328  0  2.328319  0
Zn  Zn1  1  0.98519427  0.48416214  0.56000172  1  1.31893  0  0.673415  0.96667  0  2.380866  0
Zn  Zn2  1  0.05800067  0.56193908  0.48256822  1  1.32165  0  0.674986  0.970735  0  2.372881  0
Zn  Zn3  1  0.90031516  0.55428625  0.47960606  1  1.317836  0  0.675587  0.972243  0  2.371312  0
Zn  Zn4  1  0.69449727  0.34977556  0.27155618  1  1.318895  0  0.672706  0.972367  0  2.339099  0
Zn  Zn5  1  0.68857436  0.18994731  0.26662751  1  1.311283  0  0.671646  0.966225  0  2.35564  0
Zn  Zn6  1  0.76912927  0.26518368  0.19015042  1  1.323526  0  0.675566  0.972237  0  2.368361  0
Zn  Zn7  1  0.84713375  0.19393103  0.27231082  1  1.316761  0  0.674477  0.964642  0  2.387558  0
Zn  Zn8  1  0.26649369  0.76690261  0.68947240  1  1.30811  0  0.671177  0.962498  0  2.362871  0
Zn  Zn9  1  0.34907369  0.69700722  0.77155622  1  1.316287  0  0.673129  0.969042  0  2.365208  0
Zn  Zn10  1  0.19263542  0.84897038  0.77162931  1  1.318088  0  0.675059  0.972364  0  2.357922  0
Zn  Zn11  1  0.19230177  0.68811629  0.76733726  1  1.322839  0  0.675414  0.971491  0  2.370171  0
Zn  Zn12  1  0.56063273  0.06026426  0.98342662  1  1.31415  0  0.672432  0.967454  0  2.35493  0
Zn  Zn13  1  0.40118120  0.05500451  0.97795094  1  1.313298  0  0.671461  0.963227  0  2.35825  0
Zn  Zn14  1  0.55623093  0.90126828  0.97870561  1  1.317891  0  0.675265  0.969334  0  2.372226  0
Zn  Zn15  1  0.48281132  0.98218449  0.06005165  1  1.320336  0  0.674495  0.966888  0  2.372964  0
H  H16  1  0.74893953  0.45177009  0.35016599  1  0.167101  0  0.122341  0.153453  0  0.972029  0
H  H17  1  0.00143138  0.29800263  0.39963011  1  0.163582  0  0.122219  0.153375  0  0.972736  0
H  H18  1  0.20103923  0.70062247  0.59890098  1  0.116332  0  0.121324  0.151361  0  0.974593  0
H  H19  1  0.04975817  0.55010479  0.65083466  1  0.144848  0  0.121789  0.15196  0  0.975248  0
H  H20  1  0.46317790  0.24021445  0.34103252  1  0.145079  0  0.122069  0.147579  0  0.968759  0
H  H21  1  0.47948583  0.70272196  0.60129516  1  0.117892  0  0.12219  0.147903  0  0.968718  0
H  H22  1  0.20286174  0.97940358  0.60143209  1  0.118346  0  0.121522  0.14719  0  0.969938  0
H  H23  1  0.94773932  0.97036706  0.34784713  1  0.119509  0  0.123048  0.149036  0  0.96851  0
H  H24  1  0.65081737  0.15123506  0.04952648  1  0.122097  0  0.121893  0.15271  0  0.972774  0
H  H25  1  0.59882689  0.09864772  0.20047514  1  0.152729  0  0.122109  0.152545  0  0.973195  0
H  H26  1  0.54748184  0.77028754  0.14839938  1  0.109305  0  0.123333  0.149243  0  0.967336  0
H  H27  1  0.16248941  0.14165306  0.04038044  1  0.089379  0  0.121575  0.146875  0  0.96958  0
H  H28  1  0.29796310  0.00147483  0.89971469  1  0.160465  0  0.121382  0.15211  0  0.973881  0
H  H29  1  0.45133283  0.74955637  0.85038463  1  0.103979  0  0.122326  0.153064  0  0.973212  0
H  H30  1  0.30105415  0.28013008  0.90205066  1  0.101422  0  0.122103  0.147425  0  0.968557  0
H  H31  1  0.78694087  0.01015821  0.90882222  1  0.140585  0  0.122112  0.147872  0  0.967903  0
C  C32  1  0.06164372  0.31655090  0.56164668  1  1.602501  0  0.215093  0.620921  0  4.210637  0
C  C33  1  0.06937097  0.57032048  0.56875194  1  1.564107  0  0.230601  0.621652  0  4.161636  0
C  C34  1  0.18344043  0.43949765  0.43868310  1  1.587758  0  0.215537  0.622503  0  4.208403  0
C  C35  1  0.93691936  0.68401527  0.43886817  1  1.598097  0  0.215123  0.619382  0  4.214457  0
C  C36  1  0.93063137  0.43057816  0.43111639  1  1.588269  0  0.231185  0.624507  0  4.158482  0
C  C37  1  0.81693806  0.56110606  0.56227671  1  1.580028  0  0.215482  0.619853  0  4.211154  0
C  C38  1  0.56558728  0.31134483  0.31136320  1  1.557141  0  0.21876  0.613734  0  4.212139  0
C  C39  1  0.68132454  0.18044405  0.18076840  1  1.563094  0  0.231325  0.623926  0  4.159762  0
C  C40  1  0.68969174  0.43315441  0.18842226  1  1.623638  0  0.21481  0.621026  0  4.209488  0
C  C41  1  0.93483965  0.18748365  0.18949501  1  1.576311  0  0.214162  0.616463  0  4.213578  0
C  C42  1  0.81924530  0.31872142  0.31920504  1  1.587863  0  0.230769  0.621659  0  4.163556  0
C  C43  1  0.81055340  0.06558529  0.31146195  1  1.597812  0  0.21769  0.609567  0  4.220543  0
C  C44  1  0.43376874  0.68946104  0.68816013  1  1.552642  0  0.218907  0.61263  0  4.215393  0
C  C45  1  0.31827240  0.82033735  0.81908236  1  1.590493  0  0.230881  0.622569  0  4.161614  0
C  C46  1  0.18861669  0.93381553  0.68821319  1  1.556597  0  0.218284  0.609496  0  4.216824  0
C  C47  1  0.06616482  0.81014813  0.81130953  1  1.597681  0  0.214892  0.6195  0  4.214268  0
C  C48  1  0.18141530  0.68043256  0.68103834  1  1.577084  0  0.230656  0.62352  0  4.159664  0
C  C49  1  0.31340708  0.56620407  0.81142101  1  1.627025  0  0.215306  0.619682  0  4.212601  0
C  C50  1  0.43827320  0.18398596  0.93860938  1  1.540288  0  0.219355  0.613251  0  4.209358  0
C  C51  1  0.43111773  0.93068057  0.93095565  1  1.590946  0  0.230481  0.621008  0  4.162046  0
C  C52  1  0.68449028  0.93914968  0.93883678  1  1.558625  0  0.218797  0.611894  0  4.218056  0
C  C53  1  0.56147827  0.81560240  0.06161419  1  1.571332  0  0.218603  0.610568  0  4.217566  0
C  C54  1  0.56901385  0.06868552  0.06926075  1  1.585466  0  0.230824  0.621775  0  4.162374  0
C  C55  1  0.31554864  0.06129156  0.06097259  1  1.555701  0  0.217678  0.610597  0  4.216673  0
C  C56  1  0.90084863  0.40353619  0.40222095  1  -0.021947  0  -0.014623  -0.111409  0  3.952969  0
C  C57  1  0.84942070  0.34614097  0.34768555  1  0.085234  0  -0.014404  -0.110218  0  3.953373  0
C  C58  1  0.82954575  0.44559607  0.38745625  1  0.47978  0  0.107132  0.271207  0  4.037308  0
C  C59  1  0.92082063  0.30416851  0.36234276  1  0.482025  0  0.106246  0.269812  0  4.038817  0
C  C60  1  0.80445057  0.41775072  0.36093829  1  -0.051233  0  -0.085807  -0.200482  0  3.968347  0
C  C61  1  0.94591696  0.33202219  0.38885639  1  0.060928  0  -0.086351  -0.20146  0  3.971882  0
C  C62  1  0.09891586  0.59921954  0.59677417  1  0.032737  0  -0.01377  -0.110394  0  3.955816  0
C  C63  1  0.15190757  0.65153793  0.65297987  1  0.063575  0  -0.014969  -0.11234  0  3.953443  0
C  C64  1  0.14201960  0.64206952  0.58314599  1  0.459077  0  0.106277  0.269482  0  4.041442  0
C  C65  1  0.10879077  0.60867122  0.66660831  1  0.515364  0  0.107014  0.27044  0  4.040787  0
C  C66  1  0.16782697  0.66758890  0.61045786  1  0.006065  0  -0.086439  -0.199586  0  3.970008  0
C  C67  1  0.08297431  0.58316139  0.63928920  1  0.023448  0  -0.085602  -0.198093  0  3.968497  0
C  C68  1  0.30461622  0.45479699  0.40101533  1  0.026266  0  -0.023011  0.059486  0  4.004754  0
C  C69  1  0.44604984  0.29688770  0.34899577  1  0.04162  0  -0.087232  -0.130511  0  3.957563  0
C  C70  1  0.25840568  0.41599955  0.41398255  1  -0.151617  0  -0.030538  -0.174394  0  3.950779  0
C  C71  1  0.49083269  0.33677463  0.33644524  1  -0.179736  0  -0.023255  -0.117498  0  3.974737  0
C  C72  1  0.37796496  0.33985017  0.37260731  1  -0.163002  0  -0.020204  0.004196  0  4.068665  0
C  C73  1  0.37268847  0.41153184  0.37744994  1  -0.155342  0  -0.030436  -0.072781  0  4.097767  0
C  C74  1  0.72592756  0.57575243  0.63030481  1  -0.037307  0  -0.023004  0.060017  0  4.004244  0
C  C75  1  0.52423356  0.67364837  0.62126055  1  0.005114  0  -0.087582  -0.132142  0  3.959521  0
C  C76  1  0.74291119  0.58508890  0.58782563  1  -0.126056  0  -0.030137  -0.173054  0  3.95193  0
C  C77  1  0.50894877  0.66378119  0.66359861  1  -0.081558  0  -0.02351  -0.116102  0  3.974821  0
C  C78  1  0.60350652  0.64148985  0.60897929  1  -0.178471  0  -0.020434  0.003392  0  4.069912  0
C  C79  1  0.64656960  0.60783764  0.64242621  1  -0.101398  0  -0.029592  -0.071986  0  4.097358  0
C  C80  1  0.07609237  0.22569096  0.62981260  1  0.027328  0  -0.02283  0.060443  0  3.999613  0
C  C81  1  0.17384635  0.02416765  0.62127402  1  0.003574  0  -0.087623  -0.132477  0  3.960201  0
C  C82  1  0.08551509  0.24255408  0.58729786  1  -0.130192  0  -0.030391  -0.173477  0  3.948267  0
C  C83  1  0.16367579  0.00899129  0.66361109  1  -0.080798  0  -0.023088  -0.114639  0  3.973232  0
C  C84  1  0.14183478  0.10331407  0.60883070  1  -0.188461  0  -0.020744  0.003011  0  4.070454  0
C  C85  1  0.10808711  0.14644133  0.64213470  1  -0.144182  0  -0.029881  -0.072287  0  4.096499  0
C  C86  1  0.84223271  0.80092297  0.39712434  1  -0.071283  0  -0.023411  0.058931  0  4.008228  0
C  C87  1  0.90360809  0.94971204  0.35245020  1  0.076511  0  -0.085925  -0.129699  0  3.954165  0
C  C88  1  0.91064309  0.75843332  0.41373353  1  -0.101697  0  -0.030569  -0.174258  0  3.952661  0
C  C89  1  0.83493494  0.99077559  0.33635981  1  -0.19713  0  -0.023282  -0.116025  0  3.97551  0
C  C90  1  0.90650512  0.88022388  0.37468368  1  -0.186731  0  -0.020211  0.003731  0  4.068749  0
C  C91  1  0.83975994  0.87027713  0.37489079  1  -0.08304  0  -0.030323  -0.072184  0  4.09957  0
C  C92  1  0.65300367  0.15280342  0.15145450  1  0.050132  0  -0.013856  -0.111285  0  3.953685  0
C  C93  1  0.59686138  0.09684888  0.09853935  1  0.005407  0  -0.014776  -0.111371  0  3.952314  0
C  C94  1  0.66655057  0.16663355  0.10843543  1  0.493558  0  0.107236  0.271819  0  4.037248  0
C  C95  1  0.58318608  0.08317663  0.14155959  1  0.478854  0  0.107644  0.27167  0  4.038629  0
C  C96  1  0.63927588  0.13947158  0.08265936  1  0.043912  0  -0.086225  -0.201067  0  3.967086  0
C  C97  1  0.61043802  0.11035076  0.16732874  1  0.012114  0  -0.086142  -0.200263  0  3.970669  0
C  C98  1  0.67416490  0.52385084  0.12017312  1  0.019137  0  -0.022983  0.05921  0  4.004558  0
C  C99  1  0.57642324  0.72545373  0.12859633  1  0.020998  0  -0.086151  -0.129832  0  3.956401  0
C  C100  1  0.66503386  0.50707827  0.16269798  1  -0.162244  0  -0.030239  -0.174074  0  3.950514  0
C  C101  1  0.58657087  0.74049385  0.08624016  1  -0.080086  0  -0.023215  -0.116784  0  3.974615  0
C  C102  1  0.60839585  0.64632104  0.14108877  1  -0.180399  0  -0.02022  0.003666  0  4.07069  0
C  C103  1  0.64202636  0.60309800  0.10781337  1  -0.147638  0  -0.029604  -0.07216  0  4.096133  0
C  C104  1  0.08246665  0.12360770  0.17806552  1  -0.065383  0  -0.023014  0.058323  0  4.006878  0
C  C105  1  0.16996926  0.12513961  0.07274721  1  0.078141  0  -0.086846  -0.13072  0  3.958667  0
C  C106  1  0.01024028  0.16242041  0.16527642  1  -0.07504  0  -0.029712  -0.171126  0  3.949215  0
C  C107  1  0.24110914  0.08627507  0.08630284  1  -0.158494  0  -0.023639  -0.116851  0  3.974404  0
C  C108  1  0.11184439  0.13890499  0.10621152  1  -0.154636  0  -0.020304  0.002863  0  4.070837  0
C  C109  1  0.14040710  0.11011767  0.14448134  1  -0.204329  0  -0.030051  -0.071592  0  4.097547  0
C  C110  1  0.34567129  0.85010877  0.84777129  1  0.054219  0  -0.014416  -0.11187  0  3.954866  0
C  C111  1  0.40361268  0.90092352  0.90232636  1  -0.026016  0  -0.014569  -0.111289  0  3.953692  0
C  C112  1  0.30377402  0.92127134  0.86244825  1  0.463048  0  0.106533  0.270899  0  4.039653  0
C  C113  1  0.44548887  0.82973090  0.88766665  1  0.481642  0  0.107731  0.271915  0  4.038747  0
C  C114  1  0.33189208  0.94608188  0.88897055  1  0.062374  0  -0.086651  -0.20173  0  3.971498  0
C  C115  1  0.41739192  0.80495255  0.86111879  1  0.070809  0  -0.085606  -0.199818  0  3.968876  0
C  C116  1  0.40790550  0.44855262  0.85300937  1  -0.021597  0  -0.023465  0.059001  0  4.007191  0
C  C117  1  0.34549683  0.30036659  0.89749060  1  0.099289  0  -0.087077  -0.130221  0  3.956228  0
C  C118  1  0.33961681  0.49146925  0.83633964  1  -0.153653  0  -0.03  -0.173468  0  3.949213  0
C  C119  1  0.41401162  0.25888524  0.91368910  1  -0.143796  0  -0.023569  -0.116482  0  3.972341  0
C  C120  1  0.34307407  0.36973226  0.87526620  1  -0.208169  0  -0.020095  0.002276  0  4.06835  0
C  C121  1  0.41004237  0.37920872  0.87515029  1  -0.08712  0  -0.030009  -0.070733  0  4.095516  0
C  C122  1  0.94502578  0.79503912  0.84918290  1  0.02634  0  -0.023333  0.058607  0  4.005692  0
C  C123  1  0.80396435  0.95342298  0.90097661  1  0.040514  0  -0.08701  -0.131254  0  3.957796  0
C  C124  1  0.99130562  0.83371522  0.83606104  1  -0.138116  0  -0.03038  -0.174589  0  3.951109  0
C  C125  1  0.75911379  0.91365595  0.91370748  1  -0.175257  0  -0.023314  -0.117016  0  3.974144  0
C  C126  1  0.87192563  0.91024484  0.87737219  1  -0.158599  0  -0.020332  0.003485  0  4.068898  0
C  C127  1  0.87702034  0.83851706  0.87271983  1  -0.15996  0  -0.029695  -0.072988  0  4.096324  0
S  S128  1  0.29883662  0.32637080  0.39721520  1  0.290489  0  0.08789  0.137859  0  2.731374  0
S  S129  1  0.45097041  0.42625109  0.35313329  1  0.307396  0  0.087679  0.138217  0  2.778681  0
S  S130  1  0.66130824  0.63318657  0.56282810  1  0.289926  0  0.091521  0.14237  0  2.731919  0
S  S131  1  0.59009355  0.61556876  0.68878480  1  0.278995  0  0.088176  0.139231  0  2.780285  0
S  S132  1  0.13369591  0.16091928  0.56257141  1  0.283959  0  0.088022  0.137925  0  2.731929  0
S  S133  1  0.11547727  0.09010832  0.68859238  1  0.286123  0  0.090492  0.141845  0  2.775471  0
S  S134  1  0.97188997  0.80376531  0.40192487  1  0.277692  0  0.091252  0.142279  0  2.729463  0
S  S135  1  0.77364404  0.94578891  0.34792844  1  0.295145  0  0.086272  0.136104  0  2.78108  0
S  S136  1  0.61673697  0.58879865  0.18738072  1  0.283922  0  0.088465  0.138691  0  2.730838  0
S  S137  1  0.63461682  0.65927646  0.06131637  1  0.283841  0  0.090844  0.142299  0  2.774947  0
S  S138  1  0.01368615  0.18244449  0.11197561  1  0.308856  0  0.090706  0.141258  0  2.730531  0
S  S139  1  0.23819650  0.06624910  0.13948062  1  0.316085  0  0.089533  0.140627  0  2.77752  0
S  S140  1  0.27804685  0.44647645  0.84795665  1  0.275967  0  0.0914  0.14283  0  2.728573  0
S  S141  1  0.47578194  0.30339293  0.90217188  1  0.290875  0  0.087303  0.137182  0  2.778996  0
S  S142  1  0.95105567  0.92352992  0.85261782  1  0.295628  0  0.090713  0.142264  0  2.728791  0
S  S143  1  0.79871537  0.82402227  0.89722507  1  0.311565  0  0.090816  0.142939  0  2.775059  0
Br  Br144  1  0.28461513  0.55225252  0.41182954  1  0.011733  0  0.048073  -0.00489  0  1.398059  0
Br  Br145  1  0.79537491  0.52737271  0.66927556  1  0.011719  0  0.044028  -0.010051  0  1.40586  0
Br  Br146  1  0.02775539  0.29500020  0.66868954  1  0.010524  0  0.044269  -0.01001  0  1.406427  0
Br  Br147  1  0.76015076  0.77447413  0.40178629  1  0.012735  0  0.047841  -0.005137  0  1.398078  0
Br  Br148  1  0.72190545  0.45435345  0.08139361  1  0.020319  0  0.048626  -0.004225  0  1.397155  0
Br  Br149  1  0.10609256  0.09102415  0.23228715  1  0.011178  0  0.047065  -0.005746  0  1.396495  0
Br  Br150  1  0.49043012  0.47431550  0.84844731  1  0.007878  0  0.046258  -0.007081  0  1.396034  0
Br  Br151  1  0.96502540  0.69754049  0.83845882  1  0.012471  0  0.048742  -0.003907  0  1.396734  0
O  O152  1  0.00065239  0.49886062  0.49974180  1  -1.23607  0  -0.570444  -1.031336  0  2.519299  0
O  O153  1  0.07769662  0.31459218  0.52273730  1  -1.17672  0  -0.32036  -0.548443  0  2.318091  0
O  O154  1  0.03217005  0.53129181  0.58621560  1  -1.152683  0  -0.311688  -0.53857  0  2.324596  0
O  O155  1  0.15427189  0.50540510  0.45029518  1  -1.169208  0  -0.314568  -0.539076  0  2.391314  0
O  O156  1  0.02747342  0.37563896  0.58017885  1  -1.177488  0  -0.315993  -0.539749  0  2.392528  0
O  O157  1  0.15425995  0.39098304  0.44621480  1  -1.157968  0  -0.32143  -0.550198  0  2.319238  0
O  O158  1  0.08337698  0.58677496  0.53035914  1  -1.139448  0  -0.308286  -0.53649  0  2.36578  0
O  O159  1  0.00383918  0.65860370  0.44964231  1  -1.164743  0  -0.318698  -0.542259  0  2.328547  0
O  O160  1  0.88755079  0.49506051  0.44313976  1  -1.158222  0  -0.308711  -0.536984  0  2.369747  0
O  O161  1  0.89172252  0.65149598  0.44778458  1  -1.16719  0  -0.31506  -0.540799  0  2.389497  0
O  O162  1  0.99692109  0.38610704  0.44122190  1  -1.169176  0  -0.313166  -0.54379  0  2.311924  0
O  O163  1  0.87648611  0.52695091  0.58060446  1  -1.162053  0  -0.315858  -0.541114  0  2.388053  0
O  O164  1  0.81446974  0.57718645  0.52339414  1  -1.154798  0  -0.318425  -0.542404  0  2.326334  0
O  O165  1  0.74862422  0.25040691  0.25040424  1  -1.226998  0  -0.569826  -1.031553  0  2.521357  0
O  O166  1  0.59689899  0.35794798  0.30352781  1  -1.171802  0  -0.319358  -0.546621  0  2.327692  0
O  O167  1  0.66283652  0.16420799  0.21893735  1  -1.164955  0  -0.312466  -0.542271  0  2.317211  0
O  O168  1  0.72567209  0.37388524  0.17013126  1  -1.177367  0  -0.314877  -0.540082  0  2.388763  0
O  O169  1  0.59218079  0.24540745  0.29975897  1  -1.170204  0  -0.316278  -0.53933  0  2.312218  0
O  O170  1  0.67257822  0.43536736  0.22730672  1  -1.172744  0  -0.320793  -0.548389  0  2.321429  0
O  O171  1  0.72116532  0.21727990  0.16541761  1  -1.147596  0  -0.309114  -0.53702  0  2.365731  0
O  O172  1  0.87768624  0.22293661  0.16889960  1  -1.164992  0  -0.318075  -0.541749  0  2.325694  0
O  O173  1  0.86099968  0.25298003  0.30841841  1  -1.159972  0  -0.309534  -0.536103  0  2.372964  0
O  O174  1  0.93251498  0.17203895  0.22837289  1  -1.14264  0  -0.314397  -0.538708  0  2.388883  0
O  O175  1  0.75378690  0.36398314  0.30827185  1  -1.165709  0  -0.312016  -0.541692  0  2.315173  0
O  O176  1  0.74425873  0.09317701  0.29971316  1  -1.173094  0  -0.319624  -0.547443  0  2.331772  0
O  O177  1  0.85765151  0.09607468  0.30385209  1  -1.175061  0  -0.313824  -0.532675  0  2.320335  0
O  O178  1  0.25028866  0.75057934  0.74971484  1  -1.226683  0  -0.570519  -1.032079  0  2.522887  0
O  O179  1  0.37560935  0.72424944  0.66855978  1  -1.164061  0  -0.316429  -0.540015  0  2.3112  0
O  O180  1  0.36403292  0.75508715  0.80821336  1  -1.170654  0  -0.312029  -0.539881  0  2.322027  0
O  O181  1  0.17222111  0.93375190  0.72714114  1  -1.174046  0  -0.316943  -0.540709  0  2.333492  0
O  O182  1  0.43395226  0.67440320  0.72715337  1  -1.169528  0  -0.319123  -0.544753  0  2.336509  0
O  O183  1  0.22409266  0.87588917  0.66861633  1  -1.163631  0  -0.316515  -0.539471  0  2.311646  0
O  O184  1  0.25254756  0.86183944  0.80803176  1  -1.159048  0  -0.30856  -0.537131  0  2.364159  0
O  O185  1  0.09486600  0.85907120  0.80349776  1  -1.174515  0  -0.318899  -0.543856  0  2.325033  0
O  O186  1  0.16706245  0.66394292  0.71938655  1  -1.154948  0  -0.308338  -0.535979  0  2.367778  0
O  O187  1  0.09593046  0.74404608  0.79987757  1  -1.172291  0  -0.314762  -0.540072  0  2.39024  0
O  O188  1  0.21882404  0.71936678  0.66371559  1  -1.161025  0  -0.313168  -0.543526  0  2.319649  0
O  O189  1  0.35822607  0.59919414  0.80311323  1  -1.179256  0  -0.315832  -0.54307  0  2.386722  0
O  O190  1  0.24680864  0.59145478  0.80027013  1  -1.166256  0  -0.318042  -0.541129  0  2.327849  0
O  O191  1  0.49989493  0.00045230  0.99981035  1  -1.230386  0  -0.569878  -1.031708  0  2.52438  0
O  O192  1  0.50464492  0.15657900  0.95022545  1  -1.175173  0  -0.320052  -0.547131  0  2.331336  0
O  O193  1  0.38621764  0.99659914  0.94127555  1  -1.1665  0  -0.313854  -0.543339  0  2.318831  0
O  O194  1  0.65363295  0.89217365  0.94691306  1  -1.17914  0  -0.317231  -0.540882  0  2.337723  0
O  O195  1  0.39129557  0.15330258  0.94634284  1  -1.155609  0  -0.316449  -0.539704  0  2.308141  0
O  O196  1  0.65736502  0.00527971  0.95028497  1  -1.166611  0  -0.316734  -0.541089  0  2.312166  0
O  O197  1  0.49625119  0.88832289  0.94254925  1  -1.165744  0  -0.307731  -0.534118  0  2.367643  0
O  O198  1  0.57810127  0.81578573  0.02267413  1  -1.178033  0  -0.317457  -0.541969  0  2.335315  0
O  O199  1  0.53089247  0.03009852  0.08466962  1  -1.143717  0  -0.309038  -0.53623  0  2.367043  0
O  O200  1  0.52558316  0.87358558  0.08112925  1  -1.170609  0  -0.314389  -0.536168  0  2.312832  0
O  O201  1  0.58631740  0.08606120  0.03107953  1  -1.159651  0  -0.312487  -0.541878  0  2.319981  0
O  O202  1  0.31532206  0.07751721  0.02210760  1  -1.139583  0  -0.316019  -0.54008  0  2.311298  0
O  O203  1  0.37393354  0.02533497  0.08049430  1  -1.166231  0  -0.317733  -0.54202  0  2.335248  0
F  F204  1  0.78218805  0.51532954  0.39856026  1  -0.622036  0  -0.099125  -0.133904  0  1.351004  0
F  F205  1  0.96830053  0.23451883  0.35111368  1  -0.62377  0  -0.099881  -0.134683  0  1.350464  0
F  F206  1  0.16025857  0.66016069  0.54263533  1  -0.623681  0  -0.099286  -0.133823  0  1.350798  0
F  F207  1  0.09053094  0.59052080  0.70710589  1  -0.623533  0  -0.0986  -0.133045  0  1.351715  0
F  F208  1  0.70687071  0.20728940  0.09030213  1  -0.626745  0  -0.098911  -0.133501  0  1.350354  0
F  F209  1  0.54267546  0.04269218  0.15969846  1  -0.619643  0  -0.100093  -0.134659  0  1.347331  0
F  F210  1  0.23400834  0.96876813  0.85117695  1  -0.621236  0  -0.09914  -0.133581  0  1.346922  0
F  F211  1  0.51524725  0.78227675  0.89889937  1  -0.622504  0  -0.097662  -0.131771  0  1.348604  0
