# generated using pymatgen
data_ZnH11C14N2O7
_symmetry_space_group_name_H-M   'P 1'
_cell_length_a   8.14136265
_cell_length_b   12.43450639
_cell_length_c   14.58669122
_cell_angle_alpha   90.00004144
_cell_angle_beta   90.00014206
_cell_angle_gamma   107.28473769
_symmetry_Int_Tables_number   1
_chemical_formula_structural   ZnH11C14N2O7
_chemical_formula_sum   'Zn4 H44 C56 N8 O28'
_cell_volume   1409.98026685
_cell_formula_units_Z   4
loop_
 _symmetry_equiv_pos_site_id
 _symmetry_equiv_pos_as_xyz
  1  'x, y, z'
loop_
 _atom_site_type_symbol
 _atom_site_label
 _atom_site_symmetry_multiplicity
 _atom_site_fract_x
 _atom_site_fract_y
 _atom_site_fract_z
 _atom_site_occupancy
 _atom_site_hle17_bader_spin_density
 _atom_site_hle17_ddec_charge
 _atom_site_hle17_ddec_spin_density
 _atom_site_hle17_ddec_sum_bond_order
 _atom_site_hle17_magmom
 _atom_site_hse06_10hf_bader_spin_density
 _atom_site_hse06_10hf_ddec_charge
 _atom_site_hse06_10hf_ddec_spin_density
 _atom_site_hse06_10hf_ddec_sum_bond_order
 _atom_site_hse06_10hf_magmom
 _atom_site_hse06_bader_spin_density
 _atom_site_hse06_ddec_charge
 _atom_site_hse06_ddec_spin_density
 _atom_site_hse06_ddec_sum_bond_order
 _atom_site_hse06_magmom
 _atom_site_pbe_bader_spin_density
 _atom_site_pbe_cm5_charge
 _atom_site_pbe_ddec_charge
 _atom_site_pbe_ddec_spin_density
 _atom_site_pbe_ddec_sum_bond_order
 _atom_site_pbe_magmom
Zn  Zn0  1  0.81913345  0.35033568  0.66882817  1  0  1.132872  0  1.696365  0  0  0.954818  0  2.152969  0  0  1.003885  0  2.0942  0  0  0.698529  0.920281  0  2.193633  0
Zn  Zn1  1  0.68086956  0.64966692  0.16882855  1  0  1.132842  0  1.696308  0  0  0.954815  0  2.152899  0  0  1.003882  0  2.094133  0  0  0.698543  0.920279  0  2.193563  0
Zn  Zn2  1  0.18086704  0.64966516  0.33117140  1  0  1.132839  0  1.696335  0  0  0.954793  0  2.152944  0  0  1.003861  0  2.094177  0  0  0.698514  0.920252  0  2.193604  0
Zn  Zn3  1  0.31913341  0.35033395  0.83117101  1  0  1.13286  0  1.696323  0  0  0.954838  0  2.152905  0  0  1.003903  0  2.094149  0  0  0.698528  0.920306  0  2.193566  0
H  H4  1  0.15088548  0.38164471  0.65642051  1  0  0.418451  0  0.891189  0  0  0.38558  0  0.960123  0  0  0.396499  0  0.944276  0  0  0.291058  0.377888  0  0.971268  0
H  H5  1  0.34911636  0.61835663  0.15642180  1  0  0.41843  0  0.891214  0  0  0.385568  0  0.960134  0  0  0.396486  0  0.944288  0  0  0.291055  0.377876  0  0.971279  0
H  H6  1  0.84911307  0.61835442  0.34357974  1  0  0.418425  0  0.891229  0  0  0.385557  0  0.960156  0  0  0.396475  0  0.94431  0  0  0.291054  0.377865  0  0.971302  0
H  H7  1  0.65088573  0.38164507  0.84357982  1  0  0.418449  0  0.891189  0  0  0.385575  0  0.960125  0  0  0.396493  0  0.944279  0  0  0.29106  0.377884  0  0.971269  0
H  H8  1  0.14018404  0.49750366  0.68804732  1  0  0.4295  0  0.874485  0  0  0.401239  0  0.933549  0  0  0.411561  0  0.918725  0  0  0.293333  0.393981  0  0.943965  0
H  H9  1  0.35981884  0.50249690  0.18804648  1  0  0.429534  0  0.874441  0  0  0.401276  0  0.933508  0  0  0.411598  0  0.918684  0  0  0.293334  0.394016  0  0.943927  0
H  H10  1  0.85981698  0.50249551  0.31195362  1  0  0.429503  0  0.874486  0  0  0.401246  0  0.93355  0  0  0.411568  0  0.918727  0  0  0.293307  0.393986  0  0.943969  0
H  H11  1  0.64018325  0.49750479  0.81195445  1  0  0.429538  0  0.874432  0  0  0.40128  0  0.9335  0  0  0.411602  0  0.918675  0  0  0.293325  0.394019  0  0.94392  0
H  H12  1  0.30888690  0.43096054  0.53327551  1  0  0.117378  0  0.943116  0  0  0.124384  0  1.009562  0  0  0.128458  0  1.00611  0  0  0.114208  0.121362  0  1.012174  0
H  H13  1  0.19112046  0.56904066  0.03327722  1  0  0.11739  0  0.943169  0  0  0.124345  0  1.009667  0  0  0.128427  0  1.006194  0  0  0.114211  0.121326  0  1.012275  0
H  H14  1  0.69112172  0.56904209  0.46672474  1  0  0.117345  0  0.943128  0  0  0.124325  0  1.009611  0  0  0.128402  0  1.006147  0  0  0.114203  0.121303  0  1.012219  0
H  H15  1  0.80888303  0.43095855  0.96672302  1  0  0.117343  0  0.943185  0  0  0.124352  0  1.009626  0  0  0.128426  0  1.006169  0  0  0.114236  0.121332  0  1.012237  0
H  H16  1  0.37286099  0.27032937  0.28081249  1  0  0.124059  0  0.951757  0  0  0.125169  0  1.024741  0  0  0.130218  0  1.019494  0  0  0.115526  0.121546  0  1.028484  0
H  H17  1  0.12713673  0.72966961  0.78081277  1  0  0.124048  0  0.951729  0  0  0.125151  0  1.024734  0  0  0.1302  0  1.019487  0  0  0.115513  0.121526  0  1.028476  0
H  H18  1  0.62712943  0.72966796  0.71918845  1  0  0.123964  0  0.951797  0  0  0.125112  0  1.024759  0  0  0.13016  0  1.019514  0  0  0.115499  0.121489  0  1.028504  0
H  H19  1  0.87286995  0.27033132  0.21918543  1  0  0.124029  0  0.951834  0  0  0.125127  0  1.024838  0  0  0.130176  0  1.019589  0  0  0.115504  0.121502  0  1.028576  0
H  H20  1  0.49669814  0.14049943  0.53795378  1  0  0.135085  0  0.949666  0  0  0.135481  0  1.022804  0  0  0.140058  0  1.018507  0  0  0.117239  0.132222  0  1.025904  0
H  H21  1  0.00329954  0.85949912  0.03795474  1  0  0.135081  0  0.949685  0  0  0.135466  0  1.022853  0  0  0.140039  0  1.018557  0  0  0.117232  0.132206  0  1.025954  0
H  H22  1  0.50329758  0.85949882  0.46204510  1  0  0.135036  0  0.94973  0  0  0.135442  0  1.022874  0  0  0.140017  0  1.018573  0  0  0.117216  0.132181  0  1.025973  0
H  H23  1  0.99669512  0.14049661  0.96204277  1  0  0.135053  0  0.949631  0  0  0.135477  0  1.022755  0  0  0.140053  0  1.018455  0  0  0.117216  0.132216  0  1.025857  0
H  H24  1  0.80896298  0.12213751  0.71665319  1  0  0.091761  0  0.926445  0  0  0.102506  0  0.984079  0  0  0.104989  0  0.981558  0  0  0.122975  0.100625  0  0.986044  0
H  H25  1  0.69103693  0.87786596  0.21665442  1  0  0.091811  0  0.926538  0  0  0.102636  0  0.984081  0  0  0.105123  0  0.981554  0  0  0.123028  0.100751  0  0.986043  0
H  H26  1  0.19104034  0.87786420  0.28334706  1  0  0.091827  0  0.926492  0  0  0.102571  0  0.984109  0  0  0.105055  0  0.981588  0  0  0.123019  0.100689  0  0.986074  0
H  H27  1  0.30896304  0.12213654  0.78334651  1  0  0.091819  0  0.926489  0  0  0.102564  0  0.984112  0  0  0.105048  0  0.981592  0  0  0.123003  0.100683  0  0.986074  0
H  H28  1  0.91555391  0.97159323  0.65761822  1  0  0.112601  0  0.992963  0  0  0.117828  0  1.062296  0  0  0.121712  0  1.060162  0  0  0.105253  0.115065  0  1.064019  0
H  H29  1  0.58444250  0.02840841  0.15761875  1  0  0.112606  0  0.992944  0  0  0.117814  0  1.062313  0  0  0.121701  0  1.060174  0  0  0.105237  0.11505  0  1.064031  0
H  H30  1  0.08444534  0.02840758  0.34238135  1  0  0.112569  0  0.992966  0  0  0.117808  0  1.0623  0  0  0.121694  0  1.060162  0  0  0.105237  0.115045  0  1.064017  0
H  H31  1  0.41555552  0.97159239  0.84238218  1  0  0.112584  0  0.992974  0  0  0.117816  0  1.062307  0  0  0.1217  0  1.060173  0  0  0.105249  0.115053  0  1.064025  0
H  H32  1  0.99209224  0.14528180  0.39599459  1  0  0.116677  0  0.966237  0  0  0.127295  0  1.026924  0  0  0.130109  0  1.026465  0  0  0.10837  0.125251  0  1.027493  0
H  H33  1  0.50791285  0.85472039  0.89599478  1  0  0.116729  0  0.966154  0  0  0.127341  0  1.026824  0  0  0.130156  0  1.026361  0  0  0.108401  0.125295  0  1.027397  0
H  H34  1  0.00790543  0.85471816  0.60400498  1  0  0.11667  0  0.966226  0  0  0.127268  0  1.026946  0  0  0.130081  0  1.02649  0  0  0.108368  0.125258  0  1.027475  0
H  H35  1  0.49209206  0.14528218  0.10400547  1  0  0.116684  0  0.966234  0  0  0.127303  0  1.026914  0  0  0.130117  0  1.026455  0  0  0.108368  0.12526  0  1.027482  0
H  H36  1  0.76723661  0.33872557  0.46226038  1  0  0.128658  0  0.952808  0  0  0.150875  0  1.012745  0  0  0.152088  0  1.01315  0  0  0.097775  0.149926  0  1.012592  0
H  H37  1  0.73276388  0.66127667  0.96226213  1  0  0.128662  0  0.952829  0  0  0.1509  0  1.012737  0  0  0.152101  0  1.013158  0  0  0.09777  0.149952  0  1.012586  0
H  H38  1  0.23276265  0.66127524  0.53773919  1  0  0.128605  0  0.952865  0  0  0.150823  0  1.012794  0  0  0.152036  0  1.013197  0  0  0.097757  0.149874  0  1.012642  0
H  H39  1  0.26723979  0.33872589  0.03773949  1  0  0.128668  0  0.952819  0  0  0.150883  0  1.012755  0  0  0.152086  0  1.013172  0  0  0.097777  0.149934  0  1.012602  0
H  H40  1  0.91071070  0.31049223  0.37993748  1  0  0.128065  0  0.939136  0  0  0.150783  0  0.995167  0  0  0.152279  0  0.994716  0  0  0.097825  0.149636  0  0.995593  0
H  H41  1  0.58929219  0.68951074  0.87993905  1  0  0.128005  0  0.939135  0  0  0.150743  0  0.995147  0  0  0.152238  0  0.994694  0  0  0.09781  0.149598  0  0.995571  0
H  H42  1  0.08929015  0.68950945  0.62006277  1  0  0.128026  0  0.939098  0  0  0.150737  0  0.995148  0  0  0.152232  0  0.994694  0  0  0.097819  0.14959  0  0.995575  0
H  H43  1  0.41071396  0.31049186  0.12006257  1  0  0.128068  0  0.939117  0  0  0.150769  0  0.995167  0  0  0.152265  0  0.994713  0  0  0.097827  0.149623  0  0.995589  0
H  H44  1  0.99047877  0.39796368  0.47639947  1  0  0.142518  0  0.949025  0  0  0.16431  0  1.008947  0  0  0.165954  0  1.008655  0  0  0.103007  0.163035  0  1.009296  0
H  H45  1  0.50952091  0.60203940  0.97640087  1  0  0.14252  0  0.949048  0  0  0.164321  0  1.008965  0  0  0.165967  0  1.00867  0  0  0.103011  0.163046  0  1.009316  0
H  H46  1  0.00952137  0.60203631  0.52360215  1  0  0.142494  0  0.949028  0  0  0.16427  0  1.008972  0  0  0.165914  0  1.008682  0  0  0.102994  0.162995  0  1.009321  0
H  H47  1  0.49048224  0.39796482  0.02360143  1  0  0.14252  0  0.949062  0  0  0.16433  0  1.00895  0  0  0.165975  0  1.008655  0  0  0.103007  0.163055  0  1.009301  0
C  C48  1  0.41846434  0.29061041  0.64945610  1  0  0.670801  0  3.880835  0  0  0.61417  0  4.174299  0  0  0.649553  0  4.166296  0  0  0.218  0.590151  0  4.179054  0
C  C49  1  0.08153833  0.70939009  0.14945707  1  0  0.670707  0  3.881056  0  0  0.614164  0  4.174374  0  0  0.64955  0  4.166371  0  0  0.218044  0.59014  0  4.179128  0
C  C50  1  0.58153632  0.70938792  0.35054346  1  0  0.670851  0  3.880755  0  0  0.614238  0  4.174189  0  0  0.649627  0  4.166181  0  0  0.218098  0.590216  0  4.178941  0
C  C51  1  0.91846340  0.29061076  0.85054112  1  0  0.670987  0  3.88081  0  0  0.614265  0  4.174356  0  0  0.649654  0  4.166348  0  0  0.218099  0.590241  0  4.179113  0
C  C52  1  0.40164780  0.28529544  0.54691330  1  0  -0.056432  0  3.725412  0  0  -0.027795  0  3.961814  0  0  -0.038202  0  3.984336  0  0  -0.009483  -0.021392  0  3.946966  0
C  C53  1  0.09835345  0.71470569  0.04691361  1  0  -0.056633  0  3.72546  0  0  -0.028035  0  3.96187  0  0  -0.038447  0  3.984393  0  0  -0.00958  -0.021621  0  3.947008  0
C  C54  1  0.59835181  0.71470622  0.45308763  1  0  -0.056559  0  3.725434  0  0  -0.027952  0  3.961891  0  0  -0.038367  0  3.984409  0  0  -0.009529  -0.021546  0  3.947033  0
C  C55  1  0.90164845  0.28529265  0.95308390  1  0  -0.056585  0  3.725549  0  0  -0.027896  0  3.961926  0  0  -0.03831  0  3.984448  0  0  -0.009507  -0.021486  0  3.94707  0
C  C56  1  0.34473067  0.36426637  0.49764988  1  0  -0.026828  0  3.622915  0  0  -0.071351  0  3.876086  0  0  -0.06601  0  3.892769  0  0  -0.057325  -0.074393  0  3.864769  0
C  C57  1  0.15527348  0.63573392  0.99765083  1  0  -0.026668  0  3.622933  0  0  -0.071143  0  3.876066  0  0  -0.065794  0  3.892747  0  0  -0.057248  -0.074195  0  3.864767  0
C  C58  1  0.65527424  0.63573620  0.50234968  1  0  -0.026686  0  3.622883  0  0  -0.071188  0  3.875993  0  0  -0.065841  0  3.892679  0  0  -0.057317  -0.074239  0  3.864696  0
C  C59  1  0.84472842  0.36426442  0.00234736  1  0  -0.026644  0  3.623042  0  0  -0.071179  0  3.876173  0  0  -0.065833  0  3.892858  0  0  -0.057349  -0.074229  0  3.864869  0
C  C60  1  0.33403781  0.35906585  0.40192015  1  0  -0.057148  0  3.717946  0  0  -0.029035  0  3.953476  0  0  -0.040047  0  3.97703  0  0  -0.008555  -0.022206  0  3.937846  0
C  C61  1  0.16596266  0.64093255  0.90192179  1  0  -0.057277  0  3.718115  0  0  -0.029134  0  3.953614  0  0  -0.040149  0  3.97717  0  0  -0.008601  -0.022308  0  3.937987  0
C  C62  1  0.66595915  0.64093242  0.59807942  1  0  -0.057356  0  3.717977  0  0  -0.029167  0  3.953421  0  0  -0.040183  0  3.976973  0  0  -0.008603  -0.022342  0  3.93779  0
C  C63  1  0.83403960  0.35906664  0.09807708  1  0  -0.057355  0  3.718062  0  0  -0.029227  0  3.953566  0  0  -0.040243  0  3.977123  0  0  -0.008649  -0.0224  0  3.937936  0
C  C64  1  0.38064307  0.27469671  0.35507060  1  0  -0.065815  0  3.671635  0  0  -0.107929  0  3.932559  0  0  -0.102484  0  3.946248  0  0  -0.06193  -0.110904  0  3.922567  0
C  C65  1  0.11935520  0.72529989  0.85507155  1  0  -0.065815  0  3.67158  0  0  -0.107961  0  3.932492  0  0  -0.102518  0  3.946188  0  0  -0.061928  -0.110928  0  3.922491  0
C  C66  1  0.61934999  0.72529815  0.64493034  1  0  -0.06569  0  3.671613  0  0  -0.107873  0  3.932508  0  0  -0.10243  0  3.946207  0  0  -0.061877  -0.110839  0  3.922507  0
C  C67  1  0.88064776  0.27470098  0.14492733  1  0  -0.065801  0  3.671673  0  0  -0.107928  0  3.932584  0  0  -0.102481  0  3.946277  0  0  -0.061913  -0.11089  0  3.922577  0
C  C68  1  0.43926322  0.19817772  0.40501546  1  0  0.063697  0  3.723113  0  0  0.050311  0  3.978701  0  0  0.049506  0  4.004764  0  0  0.07716  0.05372  0  3.962945  0
C  C69  1  0.06073479  0.80182065  0.90501569  1  0  0.063685  0  3.723189  0  0  0.050363  0  3.978693  0  0  0.049553  0  4.004758  0  0  0.077161  0.053771  0  3.962937  0
C  C70  1  0.56072896  0.80181797  0.59498616  1  0  0.063672  0  3.723175  0  0  0.05033  0  3.978717  0  0  0.049504  0  4.004773  0  0  0.077118  0.053734  0  3.962962  0
C  C71  1  0.93926570  0.19818019  0.09498250  1  0  0.06377  0  3.723103  0  0  0.050422  0  3.978644  0  0  0.049618  0  4.004706  0  0  0.077185  0.053827  0  3.962889  0
C  C72  1  0.45079655  0.20152390  0.50040859  1  0  -0.084434  0  3.663549  0  0  -0.124247  0  3.922482  0  0  -0.119615  0  3.937659  0  0  -0.063627  -0.126597  0  3.911368  0
C  C73  1  0.04920128  0.79847542  0.00040820  1  0  -0.084306  0  3.663721  0  0  -0.124126  0  3.922617  0  0  -0.119496  0  3.937809  0  0  -0.063565  -0.126482  0  3.911508  0
C  C74  1  0.54919988  0.79847603  0.49959372  1  0  -0.08428  0  3.663547  0  0  -0.124102  0  3.922422  0  0  -0.119471  0  3.937616  0  0  -0.063532  -0.126459  0  3.911321  0
C  C75  1  0.95079532  0.20152201  0.99959068  1  0  -0.084407  0  3.66368  0  0  -0.124253  0  3.922569  0  0  -0.119624  0  3.937759  0  0  -0.063599  -0.126606  0  3.911455  0
C  C76  1  0.27219497  0.44167548  0.34656556  1  0  0.658304  0  3.901631  0  0  0.605374  0  4.195415  0  0  0.639994  0  4.188637  0  0  0.21491  0.58194  0  4.199263  0
C  C77  1  0.22780927  0.55832371  0.84656724  1  0  0.658344  0  3.901685  0  0  0.605403  0  4.195477  0  0  0.640024  0  4.188702  0  0  0.214966  0.581973  0  4.199327  0
C  C78  1  0.72780270  0.55832447  0.65343469  1  0  0.658405  0  3.901693  0  0  0.605464  0  4.195455  0  0  0.640086  0  4.188676  0  0  0.214923  0.58203  0  4.199305  0
C  C79  1  0.77219228  0.44167379  0.15343301  1  0  0.658389  0  3.90148  0  0  0.605487  0  4.195224  0  0  0.64011  0  4.188446  0  0  0.214963  0.582053  0  4.199073  0
C  C80  1  0.85266169  0.12472399  0.64601828  1  0  0.165217  0  3.691293  0  0  0.127647  0  3.951987  0  0  0.13721  0  3.967694  0  0  0.050238  0.12139  0  3.941292  0
C  C81  1  0.64733908  0.87527936  0.14601945  1  0  0.165084  0  3.6914  0  0  0.127411  0  3.952126  0  0  0.136974  0  3.96783  0  0  0.05018  0.121164  0  3.941426  0
C  C82  1  0.14733880  0.87527684  0.35398196  1  0  0.165144  0  3.691393  0  0  0.127566  0  3.952109  0  0  0.137129  0  3.967814  0  0  0.05021  0.12131  0  3.941411  0
C  C83  1  0.35266336  0.12472317  0.85398148  1  0  0.165149  0  3.691337  0  0  0.12756  0  3.952061  0  0  0.137125  0  3.967763  0  0  0.050224  0.121305  0  3.941365  0
C  C84  1  0.91123498  0.03919976  0.61139975  1  0  -0.16636  0  3.69582  0  0  -0.190617  0  3.952775  0  0  -0.199632  0  3.974037  0  0  -0.089545  -0.184758  0  3.938486  0
C  C85  1  0.58876243  0.96080181  0.11140021  1  0  -0.166361  0  3.695913  0  0  -0.190635  0  3.952888  0  0  -0.199649  0  3.974148  0  0  -0.089582  -0.18477  0  3.938584  0
C  C86  1  0.08876269  0.96080019  0.38859981  1  0  -0.166289  0  3.695871  0  0  -0.190572  0  3.952817  0  0  -0.199587  0  3.974077  0  0  -0.089531  -0.184712  0  3.938523  0
C  C87  1  0.41123559  0.03919898  0.88860072  1  0  -0.166351  0  3.695868  0  0  -0.190626  0  3.952802  0  0  -0.199641  0  3.974065  0  0  -0.08957  -0.184765  0  3.938511  0
C  C88  1  0.96677910  0.04426254  0.51993148  1  0  0.113253  0  3.736848  0  0  0.125695  0  3.968117  0  0  0.130427  0  3.989464  0  0  0.015542  0.122733  0  3.953489  0
C  C89  1  0.53322154  0.95573892  0.01993186  1  0  0.113286  0  3.737007  0  0  0.125778  0  3.96816  0  0  0.130512  0  3.989507  0  0  0.015596  0.122815  0  3.953535  0
C  C90  1  0.03321857  0.95573742  0.48006808  1  0  0.113224  0  3.736955  0  0  0.125703  0  3.968186  0  0  0.130437  0  3.98953  0  0  0.01555  0.122736  0  3.953566  0
C  C91  1  0.46677931  0.04426275  0.98006907  1  0  0.113282  0  3.736925  0  0  0.125773  0  3.968091  0  0  0.130507  0  3.989437  0  0  0.015569  0.122808  0  3.953465  0
C  C92  1  0.95582272  0.13672075  0.46799375  1  0  -0.2016  0  3.644502  0  0  -0.226622  0  3.886278  0  0  -0.236055  0  3.908648  0  0  -0.081444  -0.220494  0  3.871377  0
C  C93  1  0.54418027  0.86328154  0.96799400  1  0  -0.201513  0  3.644619  0  0  -0.226595  0  3.886295  0  0  -0.236026  0  3.908659  0  0  -0.081451  -0.220469  0  3.871402  0
C  C94  1  0.04417494  0.86327921  0.53200581  1  0  -0.201426  0  3.644537  0  0  -0.226487  0  3.886246  0  0  -0.235919  0  3.908616  0  0  -0.081373  -0.220386  0  3.871328  0
C  C95  1  0.45582341  0.13672102  0.03200625  1  0  -0.201622  0  3.644552  0  0  -0.226676  0  3.886284  0  0  -0.236108  0  3.908648  0  0  -0.081451  -0.220547  0  3.871383  0
C  C96  1  0.89846574  0.22158695  0.50713558  1  0  0.327347  0  3.711707  0  0  0.331674  0  3.957652  0  0  0.341164  0  3.978506  0  0  0.126048  0.325343  0  3.943386  0
C  C97  1  0.60153961  0.77841707  0.00713663  1  0  0.326956  0  3.712075  0  0  0.331472  0  3.957741  0  0  0.340961  0  3.978596  0  0  0.125931  0.325142  0  3.943481  0
C  C98  1  0.10153193  0.77841300  0.49286398  1  0  0.327045  0  3.71195  0  0  0.331515  0  3.957682  0  0  0.341005  0  3.978535  0  0  0.125934  0.325184  0  3.94342  0
C  C99  1  0.39846725  0.22158721  0.99286431  1  0  0.327374  0  3.711693  0  0  0.331762  0  3.957539  0  0  0.341253  0  3.978391  0  0  0.126058  0.32543  0  3.943276  0
C  C100  1  0.89114135  0.32209613  0.45310691  1  0  -0.389233  0  3.682539  0  0  -0.475499  0  3.917903  0  0  -0.47882  0  3.92566  0  0  -0.244832  -0.472897  0  3.912523  0
C  C101  1  0.60885750  0.67790523  0.95310987  1  0  -0.389128  0  3.682608  0  0  -0.475488  0  3.91787  0  0  -0.4788  0  3.925641  0  0  -0.244823  -0.472882  0  3.912491  0
C  C102  1  0.10885914  0.67790470  0.54689334  1  0  -0.389068  0  3.682548  0  0  -0.475341  0  3.917864  0  0  -0.478662  0  3.925622  0  0  -0.244797  -0.472739  0  3.912483  0
C  C103  1  0.39114459  0.32209647  0.04689312  1  0  -0.389262  0  3.682576  0  0  -0.475539  0  3.917914  0  0  -0.478851  0  3.925679  0  0  -0.244843  -0.472934  0  3.912534  0
N  N104  1  0.49473672  0.11293876  0.35462296  1  0  0.468129  0  3.951853  0  0  0.532076  0  4.201236  0  0  0.535493  0  4.237751  0  0  0.059249  0.518153  0  4.194901  0
N  N105  1  0.00525625  0.88705693  0.85462248  1  0  0.468188  0  3.951931  0  0  0.532137  0  4.201277  0  0  0.535569  0  4.237772  0  0  0.059263  0.518213  0  4.194945  0
N  N106  1  0.50525299  0.88705689  0.64537798  1  0  0.46823  0  3.951851  0  0  0.5322  0  4.201183  0  0  0.535684  0  4.237599  0  0  0.05931  0.518276  0  4.194851  0
N  N107  1  0.99473840  0.11293880  0.14537571  1  0  0.468169  0  3.951769  0  0  0.53211  0  4.201142  0  0  0.535526  0  4.23766  0  0  0.059283  0.518186  0  4.194809  0
N  N108  1  0.84945314  0.21546231  0.59630724  1  0  -0.398447  0  3.236805  0  0  -0.314862  0  3.503849  0  0  -0.336163  0  3.517176  0  0  -0.327321  -0.300435  0  3.494675  0
N  N109  1  0.65054985  0.78454099  0.09630836  1  0  -0.398195  0  3.236822  0  0  -0.314624  0  3.503764  0  0  -0.335926  0  3.517098  0  0  -0.327214  -0.300195  0  3.494568  0
N  N110  1  0.15054736  0.78453852  0.40369232  1  0  -0.398373  0  3.236853  0  0  -0.314827  0  3.503842  0  0  -0.336129  0  3.51717  0  0  -0.327295  -0.300395  0  3.494647  0
N  N111  1  0.34945542  0.21546242  0.90369189  1  0  -0.398465  0  3.236807  0  0  -0.314892  0  3.503831  0  0  -0.336195  0  3.517159  0  0  -0.32734  -0.300468  0  3.494658  0
O  O112  1  0.53133016  0.25591764  0.68744354  1  0  -0.630833  0  2.029306  0  0  -0.581009  0  2.288314  0  0  -0.606373  0  2.276846  0  0  -0.3097  -0.563178  0  2.29557  0
O  O113  1  0.96867029  0.74408161  0.18744370  1  0  -0.630787  0  2.029368  0  0  -0.580997  0  2.288332  0  0  -0.606361  0  2.276865  0  0  -0.309712  -0.563166  0  2.295588  0
O  O114  1  0.46867069  0.74408404  0.31255671  1  0  -0.630855  0  2.029262  0  0  -0.581054  0  2.288292  0  0  -0.606418  0  2.276823  0  0  -0.309729  -0.563223  0  2.295547  0
O  O115  1  0.03133232  0.25591842  0.81255450  1  0  -0.630909  0  2.029247  0  0  -0.581072  0  2.288302  0  0  -0.606437  0  2.276833  0  0  -0.309747  -0.563241  0  2.295562  0
O  O116  1  0.31152801  0.33061699  0.69335633  1  0  -0.655193  0  2.116818  0  0  -0.570829  0  2.379005  0  0  -0.600622  0  2.362797  0  0  -0.307191  -0.550184  0  2.389667  0
O  O117  1  0.18847401  0.66938441  0.19335811  1  0  -0.655075  0  2.116907  0  0  -0.570751  0  2.379073  0  0  -0.600536  0  2.362846  0  0  -0.307168  -0.550107  0  2.389734  0
O  O118  1  0.68847301  0.66938218  0.30664255  1  0  -0.655121  0  2.116817  0  0  -0.570783  0  2.37902  0  0  -0.600571  0  2.362796  0  0  -0.307204  -0.550138  0  2.389679  0
O  O119  1  0.81153002  0.33061898  0.80664077  1  0  -0.655237  0  2.116891  0  0  -0.570814  0  2.379106  0  0  -0.600597  0  2.36287  0  0  -0.307197  -0.550167  0  2.389766  0
O  O120  1  0.26181867  0.52967321  0.38981665  1  0  -0.652051  0  2.072442  0  0  -0.574809  0  2.342157  0  0  -0.605827  0  2.33024  0  0  -0.317078  -0.553095  0  2.349656  0
O  O121  1  0.23817926  0.47032513  0.88981829  1  0  -0.652072  0  2.072549  0  0  -0.574861  0  2.342319  0  0  -0.605882  0  2.330404  0  0  -0.317102  -0.553147  0  2.349822  0
O  O122  1  0.73817899  0.47032674  0.61018291  1  0  -0.652066  0  2.072478  0  0  -0.574832  0  2.342209  0  0  -0.605852  0  2.330292  0  0  -0.317049  -0.553115  0  2.34971  0
O  O123  1  0.76182229  0.52967237  0.11018264  1  0  -0.652043  0  2.072408  0  0  -0.574852  0  2.342152  0  0  -0.60587  0  2.330234  0  0  -0.317073  -0.553139  0  2.349655  0
O  O124  1  0.23530350  0.41927912  0.26355836  1  0  -0.623367  0  1.947933  0  0  -0.573297  0  2.167826  0  0  -0.596562  0  2.157962  0  0  -0.321648  -0.557036  0  2.174067  0
O  O125  1  0.26470206  0.58071827  0.76356079  1  0  -0.623383  0  1.947906  0  0  -0.573309  0  2.167807  0  0  -0.596576  0  2.157945  0  0  -0.3217  -0.557038  0  2.174029  0
O  O126  1  0.76469381  0.58071999  0.73644121  1  0  -0.623406  0  1.947928  0  0  -0.573347  0  2.167841  0  0  -0.596612  0  2.157973  0  0  -0.321675  -0.557096  0  2.174106  0
O  O127  1  0.73530124  0.41927758  0.23644152  1  0  -0.623418  0  1.947817  0  0  -0.573357  0  2.167699  0  0  -0.596624  0  2.157834  0  0  -0.321682  -0.557097  0  2.173947  0
O  O128  1  0.46776674  0.10544208  0.27051270  1  0  -0.358796  0  1.775867  0  0  -0.351573  0  1.969521  0  0  -0.358425  0  1.973542  0  0  -0.128082  -0.343006  0  1.972697  0
O  O129  1  0.03223215  0.89455690  0.77051501  1  0  -0.358699  0  1.775941  0  0  -0.351524  0  1.969577  0  0  -0.35837  0  1.973583  0  0  -0.128019  -0.342955  0  1.972758  0
O  O130  1  0.53223180  0.89455705  0.72948618  1  0  -0.358775  0  1.77589  0  0  -0.351596  0  1.969549  0  0  -0.358458  0  1.973524  0  0  -0.128051  -0.343028  0  1.972726  0
O  O131  1  0.96776923  0.10544311  0.22948387  1  0  -0.358643  0  1.775915  0  0  -0.351458  0  1.969566  0  0  -0.358312  0  1.973596  0  0  -0.127995  -0.34289  0  1.972742  0
O  O132  1  0.56519860  0.05306335  0.39797552  1  0  -0.335285  0  1.763585  0  0  -0.329748  0  1.953161  0  0  -0.335258  0  1.959236  0  0  -0.120665  -0.322049  0  1.955033  0
O  O133  1  0.93478970  0.94693106  0.89797636  1  0  -0.335426  0  1.763575  0  0  -0.329901  0  1.953219  0  0  -0.335418  0  1.959287  0  0  -0.120758  -0.322197  0  1.955089  0
O  O134  1  0.43478103  0.94692880  0.60202542  1  0  -0.335371  0  1.76351  0  0  -0.329907  0  1.953161  0  0  -0.335445  0  1.959205  0  0  -0.120782  -0.322207  0  1.955035  0
O  O135  1  0.06520619  0.05306468  0.10202183  1  0  -0.335427  0  1.763449  0  0  -0.329896  0  1.953093  0  0  -0.335405  0  1.959166  0  0  -0.120766  -0.322197  0  1.954967  0
O  O136  1  0.08013221  0.43377487  0.64646963  1  0  -0.842552  0  1.920274  0  0  -0.77798  0  2.130911  0  0  -0.801058  0  2.097088  0  0  -0.577819  -0.761615  0  2.154264  0
O  O137  1  0.41986992  0.56622729  0.14646961  1  0  -0.842586  0  1.920311  0  0  -0.778019  0  2.130903  0  0  -0.801106  0  2.097098  0  0  -0.577825  -0.761653  0  2.154257  0
O  O138  1  0.91986669  0.56622510  0.35353062  1  0  -0.842536  0  1.920311  0  0  -0.777963  0  2.130904  0  0  -0.801045  0  2.097091  0  0  -0.577794  -0.761597  0  2.154258  0
O  O139  1  0.58013181  0.43377357  0.85353133  1  0  -0.842565  0  1.920232  0  0  -0.778016  0  2.130862  0  0  -0.801094  0  2.09704  0  0  -0.57781  -0.761648  0  2.154217  0
