# generated using pymatgen
data_MnH18C18N4O5
_symmetry_space_group_name_H-M   'P 1'
_cell_length_a   9.34583511
_cell_length_b   9.50379341
_cell_length_c   11.43013308
_cell_angle_alpha   74.05969461
_cell_angle_beta   81.57878520
_cell_angle_gamma   65.50036627
_symmetry_Int_Tables_number   1
_chemical_formula_structural   MnH18C18N4O5
_chemical_formula_sum   'Mn2 H36 C36 N8 O10'
_cell_volume   887.68883419
_cell_formula_units_Z   2
loop_
 _symmetry_equiv_pos_site_id
 _symmetry_equiv_pos_as_xyz
  1  'x, y, z'
loop_
 _atom_site_type_symbol
 _atom_site_label
 _atom_site_symmetry_multiplicity
 _atom_site_fract_x
 _atom_site_fract_y
 _atom_site_fract_z
 _atom_site_occupancy
 _atom_site_hle17_ddec_charge
 _atom_site_hle17_ddec_spin_density
 _atom_site_hle17_ddec_sum_bond_order
 _atom_site_hle17_magmom
 _atom_site_hse06_10hf_ddec_charge
 _atom_site_hse06_10hf_ddec_spin_density
 _atom_site_hse06_10hf_ddec_sum_bond_order
 _atom_site_hse06_10hf_magmom
 _atom_site_hse06_ddec_charge
 _atom_site_hse06_ddec_spin_density
 _atom_site_hse06_ddec_sum_bond_order
 _atom_site_hse06_magmom
 _atom_site_pbe_cm5_charge
 _atom_site_pbe_ddec_charge
 _atom_site_pbe_ddec_spin_density
 _atom_site_pbe_ddec_sum_bond_order
 _atom_site_pbe_magmom
Mn  Mn0  1  0.69253232  0.80303254  0.60740146  1  1.123403  4.791876  1.833539  4.658  0.952954  4.712586  2.346498  4.506  1.012892  4.761018  2.274371  4.576  0.618606  0.906103  4.66177  2.401353  4.435
Mn  Mn1  1  0.30746990  0.19696584  0.39259873  1  1.123317  4.791899  1.833576  4.658  0.952847  4.712607  2.346577  4.506  1.012827  4.761038  2.274393  4.576  0.618581  0.905994  4.6618  2.401425  4.435
H  H2  1  0.21919436  0.23517251  0.10988126  1  0.401965  -0.000264  0.887145  0.0  0.373891  -0.000242  0.964397  0.0  0.384706  -0.000274  0.95087  0.0  0.30645  0.366311  -0.000199  0.973142  0.0
H  H3  1  0.78080706  0.76483065  0.89011966  1  0.401987  -0.000261  0.887069  0.0  0.373918  -0.000242  0.964316  0.0  0.384731  -0.000274  0.950821  0.0  0.30646  0.366337  -0.000199  0.973074  0.0
H  H4  1  0.18604743  0.39284305  0.58996125  1  0.115105  -0.000245  0.960283  0.0  0.121596  7.6e-05  1.030037  0.0  0.126169  -5.1e-05  1.02593  0.0  0.109553  0.118089  0.000165  1.03342  0.0
H  H5  1  0.81395310  0.60715412  0.41003944  1  0.115102  -0.000248  0.960254  0.0  0.121568  7.7e-05  1.030033  0.0  0.126144  -5.2e-05  1.025926  0.0  0.109524  0.118061  0.000165  1.033415  0.0
H  H6  1  0.04122232  0.41887160  0.96166720  1  0.103614  -0.000331  0.998436  0.0  0.111217  -3e-06  1.068961  0.0  0.115319  -8.3e-05  1.065329  0.0  0.099624  0.108116  7.2e-05  1.071769  0.0
H  H7  1  0.95877984  0.58113515  0.03833191  1  0.103582  -0.000335  0.998478  0.0  0.111218  -3e-06  1.068954  0.0  0.115321  -8.3e-05  1.065319  0.0  0.099627  0.108124  7.2e-05  1.071757  0.0
H  H8  1  0.48202880  0.05460771  0.88239063  1  0.129812  -0.000417  0.970798  0.0  0.135221  -0.0002  1.039613  0.0  0.140017  -0.000235  1.035656  0.0  0.107961  0.131564  -0.000115  1.042772  0.0
H  H9  1  0.51797370  0.94539547  0.11761103  1  0.129846  -0.000438  0.970782  0.0  0.13522  -0.0002  1.039641  0.0  0.139995  -0.000235  1.035692  0.0  0.10796  0.131562  -0.000115  1.042797  0.0
H  H10  1  0.03312113  0.68582836  0.43663553  1  0.103093  -0.000608  0.948131  0.0  0.11071  -0.000318  1.014589  0.0  0.11342  -0.000403  1.011381  0.0  0.134789  0.108584  -0.000232  1.017078  0.0
H  H11  1  0.96688061  0.31417121  0.56336445  1  0.103085  -0.000618  0.948123  0.0  0.110702  -0.000318  1.014582  0.0  0.113411  -0.000403  1.011375  0.0  0.134785  0.108575  -0.000232  1.017067  0.0
H  H12  1  0.95025474  0.17102010  0.28402973  1  0.116439  1.2e-05  0.977274  0.0  0.124001  4.2e-05  1.044002  0.0  0.126831  -3.2e-05  1.042467  0.0  0.116913  0.121927  0.000151  1.045135  0.0
H  H13  1  0.04974809  0.82897948  0.71597098  1  0.116475  -1e-06  0.977205  0.0  0.124034  4.1e-05  1.043934  0.0  0.126865  -3.1e-05  1.042397  0.0  0.116922  0.121962  0.000151  1.045068  0.0
H  H14  1  0.70645159  0.14778359  0.45307184  1  0.104469  -0.000359  0.977455  0.0  0.111603  -9.7e-05  1.042289  0.0  0.114114  -0.000233  1.041358  0.0  0.11499  0.109824  2.4e-05  1.043031  0.0
H  H15  1  0.29354907  0.85221596  0.54692739  1  0.10448  -0.00038  0.977455  0.0  0.111609  -9.7e-05  1.042299  0.0  0.114118  -0.000232  1.041369  0.0  0.114991  0.109829  2.4e-05  1.043047  0.0
H  H16  1  0.47932072  0.82228889  0.87609342  1  0.094892  -0.000346  0.985041  0.0  0.099725  -4.8e-05  1.058862  0.0  0.10207  -0.000114  1.055826  0.0  0.133423  0.098407  5.6e-05  1.060208  0.0
H  H17  1  0.52068150  0.17770949  0.12390764  1  0.094899  -0.000352  0.985053  0.0  0.099732  -4.8e-05  1.058869  0.0  0.102074  -0.000113  1.055838  0.0  0.133417  0.09841  5.6e-05  1.060214  0.0
H  H18  1  0.31911470  0.49233395  0.81547299  1  0.101875  0.000146  1.022758  0.0  0.109215  0.00022  1.091361  0.0  0.109515  0.00017  1.094528  0.0  0.111388  0.109353  0.00036  1.088508  0.0
H  H19  1  0.68088238  0.50766915  0.18452586  1  0.101836  0.000145  1.02276  0.0  0.109217  0.000221  1.091327  0.0  0.109516  0.00017  1.094495  0.0  0.11141  0.109353  0.00036  1.088478  0.0
H  H20  1  0.55079340  0.52723393  0.63986095  1  0.102266  -0.000158  0.938262  0.0  0.116006  7.7e-05  0.989644  0.0  0.118437  -1e-05  0.988369  0.0  0.121163  0.114025  0.000179  0.99117  0.0
H  H21  1  0.44920370  0.47276918  0.36013877  1  0.102304  -0.000154  0.938231  0.0  0.116027  7.7e-05  0.989631  0.0  0.118458  -1e-05  0.988358  0.0  0.12116  0.11405  0.000179  0.991156  0.0
H  H22  1  0.13345272  0.73972267  0.94069090  1  0.070272  4.7e-05  0.914335  0.0  0.088788  0.000188  0.97463  0.0  0.088837  0.000131  0.974812  0.0  0.108038  0.088423  0.000277  0.974975  0.0
H  H23  1  0.86654605  0.26028166  0.05930833  1  0.070261  5.4e-05  0.914366  0.0  0.088809  0.000188  0.97462  0.0  0.088857  0.000131  0.974801  0.0  0.108061  0.088443  0.000277  0.974965  0.0
H  H24  1  0.26620850  0.56766339  0.03660794  1  0.077423  -0.00012  0.911887  0.0  0.095829  -5.8e-05  0.970196  0.0  0.095786  -8e-05  0.971224  0.0  0.110902  0.095927  -1e-05  0.969179  0.0
H  H25  1  0.73379014  0.43233855  0.96339187  1  0.077405  -0.000123  0.911867  0.0  0.095818  -5.8e-05  0.97018  0.0  0.095769  -7.9e-05  0.971214  0.0  0.110891  0.095914  -1e-05  0.969165  0.0
H  H26  1  0.26970372  0.78228868  0.30675726  1  0.072627  -0.000104  0.912022  0.0  0.09184  -9e-06  0.969157  0.0  0.091836  -5.4e-05  0.969607  0.0  0.110348  0.091426  7.9e-05  0.969437  0.0
H  H27  1  0.73029695  0.21771088  0.69324372  1  0.072639  -7.7e-05  0.912022  0.0  0.091844  -9e-06  0.969164  0.0  0.091845  -5.4e-05  0.96961  0.0  0.110355  0.091429  7.9e-05  0.969437  0.0
H  H28  1  0.19460757  0.97794116  0.21583539  1  0.093558  -0.000249  0.928702  0.0  0.108801  -0.000186  0.990682  0.0  0.110097  -0.000217  0.989899  0.0  0.116462  0.107477  -9.4e-05  0.991965  0.0
H  H29  1  0.80539371  0.02205961  0.78416523  1  0.093567  -0.000188  0.928726  0.0  0.108808  -0.000186  0.990705  0.0  0.110107  -0.000217  0.98992  0.0  0.11647  0.107481  -9.4e-05  0.991989  0.0
H  H30  1  0.02172038  0.88938330  0.11700470  1  0.068733  1.4e-05  0.928524  0.0  0.08936  2.2e-05  0.984016  0.0  0.089653  1.5e-05  0.98556  0.0  0.091599  0.089197  2.9e-05  0.98261  0.0
H  H31  1  0.97827874  0.11061745  0.88299619  1  0.068743  -1.6e-05  0.928511  0.0  0.089383  2.2e-05  0.983987  0.0  0.089677  1.5e-05  0.985528  0.0  0.091594  0.089219  2.9e-05  0.982586  0.0
H  H32  1  0.12809281  0.69381968  0.19873715  1  0.071854  -0.000163  0.958829  0.0  0.088431  -0.000181  1.022865  0.0  0.088217  -0.000207  1.025057  0.0  0.092197  0.0882  -0.000135  1.021717  0.0
H  H33  1  0.87190739  0.30618108  0.80126274  1  0.071832  -0.000211  0.958827  0.0  0.088411  -0.000181  1.022862  0.0  0.088198  -0.000207  1.025054  0.0  0.092192  0.088182  -0.000135  1.02171  0.0
H  H34  1  0.25546016  0.90554027  0.99752449  1  0.071486  0.0  0.941154  0.0  0.09018  2.3e-05  1.001817  0.0  0.090446  1.3e-05  1.002861  0.0  0.092551  0.09013  4.3e-05  1.000518  0.0
H  H35  1  0.74453802  0.09446285  0.00247597  1  0.071503  4.1e-05  0.941161  0.0  0.090178  2.3e-05  1.001845  0.0  0.090443  1.3e-05  1.002884  0.0  0.092557  0.090124  4.3e-05  1.000544  0.0
H  H36  1  0.38234761  0.73062481  0.09437497  1  0.069639  9e-06  0.951594  0.0  0.085791  3.1e-05  1.017883  0.0  0.085702  1.2e-05  1.020274  0.0  0.090837  0.08578  2.9e-05  1.016042  0.0
H  H37  1  0.61765258  0.26937594  0.90562492  1  0.069617  3e-05  0.951598  0.0  0.085796  3.1e-05  1.017856  0.0  0.085709  1.2e-05  1.02024  0.0  0.090829  0.085785  2.9e-05  1.01601  0.0
C  C38  1  0.95285590  0.56382768  0.72883772  1  0.643241  0.003363  3.90946  0.002  0.593345  0.006707  4.201943  0.004  0.627106  0.005368  4.194796  0.004  0.210363  0.570381  0.008454  4.205147  0.005
C  C39  1  0.04714489  0.43617426  0.27116006  1  0.643306  0.003353  3.90957  0.002  0.593405  0.006707  4.202047  0.004  0.627165  0.005367  4.194908  0.004  0.210358  0.57043  0.008454  4.205264  0.005
C  C40  1  0.09938360  0.42130367  0.77138501  1  -0.043363  -0.00484  3.810363  -0.003  -0.018115  -0.003055  4.047273  -0.002  -0.022792  -0.00381  4.066641  -0.002  -0.022346  -0.015281  -0.001709  4.03466  -0.001
C  C41  1  0.90061780  0.57869948  0.22861417  1  -0.043603  -0.00487  3.810551  -0.003  -0.018337  -0.003053  4.047458  -0.002  -0.023018  -0.003808  4.066829  -0.002  -0.022366  -0.015492  -0.001708  4.03483  -0.001
C  C42  1  0.26379190  0.22950213  0.93689016  1  0.323665  -0.003959  3.861284  -0.003  0.317685  -0.001869  4.128439  -0.002  0.32805  -0.002557  4.142531  -0.002  0.074937  0.31006  -0.00155  4.117697  -0.001
C  C43  1  0.73621011  0.77050222  0.06310866  1  0.32358  -0.003989  3.861468  -0.003  0.317652  -0.001868  4.128584  -0.002  0.328017  -0.002558  4.142665  -0.002  0.07493  0.310032  -0.00155  4.117832  -0.001
C  C44  1  0.20803090  0.34760656  0.68673678  1  -0.113414  0.003115  3.723783  0.003  -0.155344  0.002868  3.978273  0.003  -0.154436  0.002698  3.995881  0.003  -0.092024  -0.156423  0.006374  3.967261  0.005
C  C45  1  0.79196822  0.65239419  0.31326412  1  -0.113323  0.003131  3.723744  0.003  -0.155233  0.002865  3.978236  0.003  -0.154328  0.002697  3.99585  0.003  -0.091979  -0.15631  0.006374  3.967215  0.005
C  C46  1  0.12701118  0.36244498  0.89602646  1  -0.222785  0.00675  3.737428  0.006  -0.258131  0.008002  3.992922  0.006  -0.259621  0.006288  4.00827  0.005  -0.109386  -0.257074  0.007983  3.982759  0.006
C  C47  1  0.87299191  0.63755938  0.10397310  1  -0.222615  0.00679  3.737451  0.006  -0.258016  0.007999  3.992948  0.006  -0.259495  0.006289  4.008282  0.005  -0.109345  -0.256971  0.007983  3.982783  0.006
C  C48  1  0.34554778  0.21519394  0.72749087  1  -0.049252  -0.004253  3.786322  -0.003  -0.02356  -0.002272  4.023212  -0.001  -0.029779  -0.003532  4.04419  -0.002  -0.020022  -0.018996  -0.000393  4.008952  -0.001
C  C49  1  0.65445518  0.78480804  0.27250926  1  -0.049175  -0.004307  3.786333  -0.003  -0.023511  -0.002269  4.023228  -0.001  -0.029733  -0.003531  4.0442  -0.002  -0.020054  -0.018951  -0.000393  4.008964  -0.001
C  C50  1  0.37366065  0.15639539  0.85201888  1  -0.19806  0.007047  3.686118  0.006  -0.234437  0.008339  3.944792  0.007  -0.235562  0.006617  3.96002  0.005  -0.101842  -0.232733  0.008336  3.932768  0.007
C  C51  1  0.62634123  0.84360658  0.14798139  1  -0.198054  0.007133  3.686173  0.006  -0.234413  0.008337  3.944825  0.007  -0.235511  0.006617  3.960075  0.005  -0.101797  -0.232699  0.008336  3.932787  0.007
C  C52  1  0.46198218  0.13302087  0.63798436  1  0.667732  0.018824  3.868331  0.018  0.612921  0.029524  4.159977  0.026  0.650619  0.022181  4.150204  0.021  0.224577  0.585261  0.038146  4.167329  0.033
C  C53  1  0.53801631  0.86697866  0.36201427  1  0.66752  0.018842  3.86859  0.018  0.612763  0.029525  4.160181  0.026  0.650478  0.022182  4.150389  0.021  0.224534  0.585098  0.038148  4.167537  0.033
C  C54  1  0.97641945  0.81461095  0.42063003  1  0.156418  0.005662  3.653059  0.006  0.099785  0.007618  3.915084  0.007  0.112259  0.006708  3.930666  0.006  0.141897  0.091674  0.008591  3.903799  0.008
C  C55  1  0.02358183  0.18538982  0.57937059  1  0.156408  0.005676  3.653016  0.006  0.099765  0.007617  3.915047  0.007  0.112238  0.006706  3.930631  0.006  0.141896  0.091659  0.008591  3.903755  0.008
C  C56  1  0.92724422  0.06949841  0.33954945  1  -0.069917  -0.000962  3.674652  0.0  -0.11155  0.000105  3.93671  0.0  -0.110494  -0.000584  3.95615  0.0  -0.004927  -0.111912  0.000707  3.92356  0.001
C  C57  1  0.07275767  0.93050356  0.66045082  1  -0.069971  -0.000921  3.674583  0.0  -0.111603  0.000105  3.936638  0.0  -0.110549  -0.000582  3.95608  0.0  -0.004936  -0.111969  0.000707  3.923499  0.001
C  C58  1  0.81108754  0.05600504  0.42503510  1  0.004486  0.002232  3.746517  0.003  -0.030515  0.004016  4.018477  0.004  -0.02872  0.003317  4.03966  0.004  -0.004326  -0.031698  0.004722  4.003764  0.005
C  C59  1  0.18891373  0.94399571  0.57496378  1  0.004464  0.002273  3.746552  0.003  -0.030542  0.004015  4.018519  0.004  -0.028749  0.003318  4.03971  0.004  -0.004332  -0.031723  0.004722  4.003818  0.005
C  C60  1  0.46802576  0.73745380  0.83528611  1  0.158656  0.005117  3.658747  0.005  0.09736  0.00706  3.926622  0.007  0.11091  0.006051  3.940613  0.006  0.141188  0.088594  0.008256  3.915821  0.007
C  C61  1  0.53197444  0.26254695  0.16471465  1  0.15862  0.005164  3.658894  0.005  0.097332  0.00706  3.926742  0.007  0.110879  0.006055  3.940746  0.006  0.141176  0.08857  0.008256  3.915928  0.007
C  C62  1  0.38807463  0.56349773  0.80175426  1  -0.081556  -0.000233  3.699523  0.0  -0.119733  0.000672  3.955232  0.001  -0.118772  0.000168  3.976577  0.0  -0.006843  -0.120443  0.001106  3.940666  0.001
C  C63  1  0.61192401  0.43650420  0.19824555  1  -0.081457  -0.000272  3.699523  0.0  -0.119667  0.00067  3.955208  0.001  -0.118702  0.000169  3.976549  0.0  -0.006834  -0.120384  0.001107  3.940656  0.001
C  C64  1  0.50270756  0.58164345  0.71635512  1  0.009925  0.001397  3.756634  0.002  -0.02026  0.002779  4.019844  0.003  -0.01802  0.002216  4.039696  0.003  0.002392  -0.022271  0.003316  4.007073  0.003
C  C65  1  0.49729061  0.41835967  0.28364359  1  0.009854  0.001434  3.756655  0.002  -0.020321  0.00278  4.019872  0.003  -0.018081  0.002212  4.039728  0.003  0.00238  -0.02234  0.003316  4.007109  0.003
C  C66  1  0.25143903  0.68591544  0.97845959  1  0.015176  0.000552  3.620366  0.001  -0.048591  0.000643  3.884209  0.001  -0.043539  0.000493  3.895184  0.0  -0.049431  -0.052197  0.000885  3.877301  0.001
C  C67  1  0.74856069  0.31408650  0.02154008  1  0.015216  0.000542  3.620297  0.001  -0.048577  0.000643  3.884151  0.001  -0.043525  0.000494  3.895129  0.0  -0.049436  -0.052183  0.000885  3.877244  0.001
C  C68  1  0.16766572  0.87219598  0.25443665  1  0.007529  0.000521  3.611443  0.001  -0.056605  0.000602  3.870826  0.001  -0.051859  0.000404  3.881273  0.0  -0.04945  -0.059699  0.000792  3.864335  0.001
C  C69  1  0.83233448  0.12780477  0.74556411  1  0.007499  0.000349  3.61146  0.0  -0.056631  0.000604  3.870846  0.001  -0.051892  0.0004  3.881295  0.0  -0.04946  -0.05972  0.000792  3.864349  0.001
C  C70  1  0.13709143  0.80860232  0.15569397  1  -0.125419  1.6e-05  3.683197  0.0  -0.164216  0.000272  3.944091  0.0  -0.165828  0.000195  3.958732  0.0  -0.162602  -0.162948  0.000362  3.934188  0.0
C  C71  1  0.86290984  0.19139844  0.84430665  1  -0.125403  0.000203  3.683129  0.0  -0.16421  0.000271  3.944032  0.0  -0.165825  0.000198  3.958673  0.0  -0.162611  -0.162945  0.000362  3.934131  0.0
C  C72  1  0.26553148  0.78805050  0.05458609  1  -0.127572  -1.4e-05  3.688394  0.0  -0.169153  7.6e-05  3.949264  0.0  -0.170439  4.5e-05  3.963179  0.0  -0.163055  -0.168434  0.000106  3.940142  0.0
C  C73  1  0.73446980  0.21195026  0.94541453  1  -0.127574  -0.000175  3.688344  0.0  -0.169161  7.7e-05  3.94923  0.0  -0.170442  4.3e-05  3.963135  0.0  -0.163038  -0.16844  0.000106  3.940101  0.0
N  N74  1  0.84311395  0.89649260  0.47539464  1  -0.404848  0.0266  3.263572  0.011  -0.334268  0.028707  3.55936  0.008  -0.357598  0.025846  3.576274  0.006  -0.353392  -0.316972  0.0315  3.547218  0.01
N  N75  1  0.15688578  0.10350935  0.52460591  1  -0.404835  0.026582  3.263596  0.011  -0.334222  0.028706  3.559338  0.008  -0.357557  0.025847  3.576259  0.006  -0.353387  -0.316929  0.031498  3.5472  0.01
N  N76  1  0.03113131  0.91567751  0.33804490  1  -0.067225  0.001508  3.581379  0.002  0.028805  0.002969  3.798619  0.003  0.014141  0.002326  3.825384  0.002  -0.243751  0.038554  0.003639  3.780329  0.004
N  N77  1  0.96886889  0.08432324  0.66195587  1  -0.067167  0.001512  3.581246  0.002  0.028861  0.00297  3.79848  0.003  0.014201  0.002324  3.825243  0.002  -0.243746  0.038613  0.003639  3.780184  0.004
N  N78  1  0.55186532  0.69018987  0.73814006  1  -0.387295  0.024741  3.248134  0.012  -0.32101  0.027213  3.541962  0.01  -0.342747  0.02456  3.557568  0.008  -0.351378  -0.305254  0.029438  3.530843  0.012
N  N79  1  0.44813488  0.30981088  0.26185983  1  -0.387247  0.024691  3.248281  0.011  -0.320942  0.027211  3.542069  0.01  -0.342687  0.024557  3.557687  0.008  -0.35133  -0.305188  0.029437  3.530945  0.012
N  N80  1  0.36763750  0.66278264  0.87701500  1  -0.07262  0.00114  3.568289  0.001  0.022465  0.002339  3.78682  0.002  0.007692  0.001762  3.812914  0.002  -0.245092  0.032459  0.002859  3.769256  0.003
N  N81  1  0.63236067  0.33722048  0.12298372  1  -0.072666  0.001146  3.568333  0.001  0.022403  0.002339  3.786894  0.002  0.007633  0.001762  3.812986  0.002  -0.245142  0.032396  0.002858  3.769331  0.003
O  O82  1  0.57784141  0.00484254  0.68021400  1  -0.63163  0.039304  2.055336  0.026  -0.563417  0.050427  2.331376  0.032  -0.592793  0.043465  2.315244  0.026  -0.308109  -0.542094  0.058107  2.343583  0.039
O  O83  1  0.42215899  0.99515224  0.31978814  1  -0.631439  0.039291  2.055382  0.026  -0.5633  0.050424  2.331462  0.032  -0.592687  0.043461  2.31532  0.026  -0.308081  -0.541972  0.058103  2.343661  0.039
O  O84  1  0.44014724  0.19515068  0.52455056  1  -0.658485  0.036513  2.08918  0.021  -0.593761  0.049096  2.373998  0.03  -0.623655  0.042073  2.355943  0.023  -0.317607  -0.57054  0.055079  2.386055  0.035
O  O85  1  0.55985512  0.80485010  0.47545080  1  -0.658477  0.036506  2.089313  0.021  -0.593752  0.049098  2.374104  0.03  -0.623642  0.042079  2.356028  0.023  -0.317592  -0.570528  0.055082  2.386155  0.035
O  O86  1  0.89134233  0.57042636  0.63384005  1  -0.626008  0.030909  1.986464  0.022  -0.56343  0.036687  2.241833  0.025  -0.593142  0.032593  2.230051  0.021  -0.306814  -0.541176  0.04126  2.248905  0.03
O  O87  1  0.10865987  0.42957200  0.36615839  1  -0.626048  0.030913  1.986582  0.022  -0.563453  0.036689  2.241944  0.025  -0.59318  0.032592  2.23017  0.021  -0.306837  -0.541198  0.041261  2.249023  0.03
O  O88  1  0.89687063  0.67322777  0.78730734  1  -0.666073  0.01106  1.971836  0.006  -0.612367  0.019304  2.216133  0.014  -0.637331  0.01663  2.203652  0.011  -0.319364  -0.59398  0.021847  2.224177  0.016
O  O89  1  0.10312800  0.32677415  0.21269072  1  -0.666045  0.01106  1.971776  0.006  -0.612322  0.019302  2.216058  0.014  -0.637294  0.016628  2.203575  0.011  -0.319347  -0.593934  0.021845  2.224104  0.016
O  O90  1  0.29561784  0.16706335  0.05679867  1  -0.533824  -0.000827  2.150343  0.0  -0.47908  -0.000763  2.367659  0.0  -0.497723  -0.000899  2.356785  0.0  -0.351385  -0.465728  -0.000682  2.373793  0.0
O  O91  1  0.70438369  0.83294219  0.94319992  1  -0.533854  -0.000849  2.150403  0.0  -0.479093  -0.00076  2.367627  0.0  -0.497766  -0.000899  2.356845  0.0  -0.351409  -0.465742  -0.000682  2.373769  0.0
