# generated using pymatgen
data_Tb2H12C16N2O17
_symmetry_space_group_name_H-M   'P 1'
_cell_length_a   7.87122222
_cell_length_b   10.06720216
_cell_length_c   15.34483102
_cell_angle_alpha   87.77030918
_cell_angle_beta   87.65585206
_cell_angle_gamma   78.33834366
_symmetry_Int_Tables_number   1
_chemical_formula_structural   Tb2H12C16N2O17
_chemical_formula_sum   'Tb4 H24 C32 N4 O34'
_cell_volume   1189.26359508
_cell_formula_units_Z   2
loop_
 _symmetry_equiv_pos_site_id
 _symmetry_equiv_pos_as_xyz
  1  'x, y, z'
loop_
 _atom_site_type_symbol
 _atom_site_label
 _atom_site_symmetry_multiplicity
 _atom_site_fract_x
 _atom_site_fract_y
 _atom_site_fract_z
 _atom_site_occupancy
 _atom_site_hle17_bader_spin_density
 _atom_site_hle17_ddec_charge
 _atom_site_hle17_ddec_spin_density
 _atom_site_hle17_ddec_sum_bond_order
 _atom_site_hle17_magmom
 _atom_site_hse06_10hf_bader_spin_density
 _atom_site_hse06_10hf_ddec_charge
 _atom_site_hse06_10hf_ddec_spin_density
 _atom_site_hse06_10hf_ddec_sum_bond_order
 _atom_site_hse06_10hf_magmom
 _atom_site_hse06_bader_spin_density
 _atom_site_hse06_ddec_charge
 _atom_site_hse06_ddec_spin_density
 _atom_site_hse06_ddec_sum_bond_order
 _atom_site_hse06_magmom
 _atom_site_pbe_bader_spin_density
 _atom_site_pbe_cm5_charge
 _atom_site_pbe_ddec_charge
 _atom_site_pbe_ddec_spin_density
 _atom_site_pbe_ddec_sum_bond_order
 _atom_site_pbe_magmom
Tb  Tb0  1  0.35320695  0.33424900  0.06308594  1  0  2.245144  0  1.648384  0  0  2.093302  0  2.130663  0  0  2.220657  0  1.939439  0  0  1.501274  2.058339  0  2.161604  0
Tb  Tb1  1  0.64680031  0.66574959  0.93691155  1  0  2.245095  0  1.648415  0  0  2.093264  0  2.130685  0  0  2.220615  0  1.939464  0  0  1.501261  2.058308  0  2.161631  0
Tb  Tb2  1  0.62521919  0.86495940  0.32547531  1  0  2.157526  0  1.662122  0  0  1.997389  0  2.152639  0  0  2.049098  0  2.1078  0  0  1.460671  1.958011  0  2.18803  0
Tb  Tb3  1  0.37477648  0.13504008  0.67452637  1  0  2.157579  0  1.662096  0  0  1.997488  0  2.152545  0  0  2.049144  0  2.107786  0  0  1.460695  1.958101  0  2.187926  0
H  H4  1  0.56191808  0.41660518  0.19959876  1  0  0.437145  0  0.813199  0  0  0.419783  0  0.867766  0  0  0.428141  0  0.856892  0  0  0.328571  0.414073  0  0.874227  0
H  H5  1  0.43808515  0.58339439  0.80040076  1  0  0.437207  0  0.813212  0  0  0.419854  0  0.867764  0  0  0.428212  0  0.856817  0  0  0.328589  0.414144  0  0.874224  0
H  H6  1  0.68146694  0.41698038  0.11407999  1  0  0.445454  0  0.85075  0  0  0.411362  0  0.918399  0  0  0.42419  0  0.89976  0  0  0.299662  0.402546  0  0.931354  0
H  H7  1  0.31853912  0.58301821  0.88592014  1  0  0.445454  0  0.850736  0  0  0.411357  0  0.918393  0  0  0.424184  0  0.899753  0  0  0.299692  0.402546  0  0.931341  0
H  H8  1  0.31716557  0.14058624  0.91623690  1  0  0.446883  0  0.844669  0  0  0.420038  0  0.899879  0  0  0.431729  0  0.88303  0  0  0.306203  0.412009  0  0.911516  0
H  H9  1  0.68283203  0.85941529  0.08376272  1  0  0.446882  0  0.844662  0  0  0.420034  0  0.899877  0  0  0.431725  0  0.883027  0  0  0.306204  0.412007  0  0.911512  0
H  H10  1  0.20728320  0.27972665  0.89625636  1  0  0.434543  0  0.851464  0  0  0.402619  0  0.924064  0  0  0.413207  0  0.908925  0  0  0.302477  0.395305  0  0.93465  0
H  H11  1  0.79271874  0.72027289  0.10374190  1  0  0.434458  0  0.851493  0  0  0.402529  0  0.924178  0  0  0.413119  0  0.909036  0  0  0.30243  0.395216  0  0.934762  0
H  H12  1  0.72338655  0.69665436  0.47543482  1  0  0.440014  0  0.811083  0  0  0.422677  0  0.866302  0  0  0.430035  0  0.856648  0  0  0.333729  0.417493  0  0.87173  0
H  H13  1  0.27661553  0.30334009  0.52456359  1  0  0.440045  0  0.810991  0  0  0.422706  0  0.866218  0  0  0.430064  0  0.856597  0  0  0.333737  0.41752  0  0.871647  0
H  H14  1  0.84033365  0.80506890  0.46597781  1  0  0.450405  0  0.802856  0  0  0.431384  0  0.856228  0  0  0.440234  0  0.843395  0  0  0.333562  0.425114  0  0.864612  0
H  H15  1  0.15966480  0.19492446  0.53401617  1  0  0.450293  0  0.802961  0  0  0.431299  0  0.856332  0  0  0.440145  0  0.843508  0  0  0.333585  0.425033  0  0.864693  0
H  H16  1  0.17341231  0.53049749  0.69391699  1  0  0.126549  0  0.906303  0  0  0.137927  0  0.959247  0  0  0.141684  0  0.955395  0  0  0.144088  0.135162  0  0.962058  0
H  H17  1  0.82658304  0.46950299  0.30608272  1  0  0.126538  0  0.906333  0  0  0.137917  0  0.959292  0  0  0.141676  0  0.955439  0  0  0.144104  0.13515  0  0.962101  0
H  H18  1  0.90862234  0.66285275  0.61837686  1  0  0.117167  0  0.921326  0  0  0.129322  0  0.971472  0  0  0.132864  0  0.969674  0  0  0.122535  0.12668  0  0.973077  0
H  H19  1  0.09136813  0.33715688  0.38163118  1  0  0.117042  0  0.921365  0  0  0.129234  0  0.97148  0  0  0.13278  0  0.969681  0  0  0.122526  0.12659  0  0.973079  0
H  H20  1  0.64480998  0.55287533  0.61237750  1  0  0.116501  0  0.916587  0  0  0.128153  0  0.972056  0  0  0.13235  0  0.967729  0  0  0.119644  0.12499  0  0.975272  0
H  H21  1  0.35518126  0.44713124  0.38762735  1  0  0.116523  0  0.916533  0  0  0.128199  0  0.971972  0  0  0.132377  0  0.96767  0  0  0.119689  0.125037  0  0.975182  0
H  H22  1  0.10688239  0.87774185  0.79979929  1  0  0.127861  0  0.898255  0  0  0.138992  0  0.952235  0  0  0.143075  0  0.947679  0  0  0.145699  0.136027  0  0.955429  0
H  H23  1  0.89311730  0.12225665  0.20019971  1  0  0.1278  0  0.898331  0  0  0.138967  0  0.952268  0  0  0.14305  0  0.947711  0  0  0.145687  0.136001  0  0.955457  0
H  H24  1  0.92900549  0.87297467  0.94037947  1  0  0.120382  0  0.969379  0  0  0.126306  0  1.033657  0  0  0.129367  0  1.034056  0  0  0.118126  0.123601  0  1.034945  0
H  H25  1  0.07100358  0.12702703  0.05962308  1  0  0.120318  0  0.969392  0  0  0.126255  0  1.033668  0  0  0.129319  0  1.034062  0  0  0.118134  0.123544  0  1.034962  0
H  H26  1  0.73134068  0.08970815  0.98774090  1  0  0.125188  0  0.950579  0  0  0.133137  0  1.012469  0  0  0.137563  0  1.008364  0  0  0.119637  0.130116  0  1.015011  0
H  H27  1  0.26866489  0.91029249  0.01226243  1  0  0.12523  0  0.9505  0  0  0.133182  0  1.012375  0  0  0.137609  0  1.008262  0  0  0.119651  0.130164  0  1.014911  0
C  C28  1  0.05080866  0.49699417  0.69225633  1  0  0.062382  0  3.538257  0  0  0.018235  0  3.79906  0  0  0.027263  0  3.808265  0  0  0.066088  0.012499  0  3.792974  0
C  C29  1  0.94918773  0.50300736  0.30774593  1  0  0.062441  0  3.53806  0  0  0.018259  0  3.798941  0  0  0.027286  0  3.808147  0  0  0.066065  0.012523  0  3.792851  0
C  C30  1  0.90567037  0.56450778  0.64965983  1  0  -0.057905  0  3.71932  0  0  -0.074254  0  3.987009  0  0  -0.078138  0  4.00231  0  0  -0.058711  -0.072114  0  3.976832  0
C  C31  1  0.09432776  0.43549684  0.35034424  1  0  -0.057726  0  3.718975  0  0  -0.074107  0  3.986676  0  0  -0.077995  0  4.001977  0  0  -0.05869  -0.071967  0  3.976487  0
C  C32  1  0.76070616  0.50511555  0.64702851  1  0  -0.00597  0  3.659949  0  0  -0.046302  0  3.925017  0  0  -0.038976  0  3.936745  0  0  -0.054695  -0.050658  0  3.916821  0
C  C33  1  0.23928853  0.49489207  0.35297296  1  0  -0.005943  0  3.659713  0  0  -0.046281  0  3.924809  0  0  -0.038941  0  3.93654  0  0  -0.054713  -0.050637  0  3.916603  0
C  C34  1  0.76052513  0.38199765  0.69168454  1  0  -0.079911  0  3.674211  0  0  -0.064718  0  3.913847  0  0  -0.073543  0  3.931157  0  0  0.007637  -0.059417  0  3.902313  0
C  C35  1  0.23946092  0.61800882  0.30831525  1  0  -0.080094  0  3.674485  0  0  -0.064961  0  3.914095  0  0  -0.073785  0  3.931393  0  0  0.007553  -0.059662  0  3.902561  0
C  C36  1  0.90517363  0.32085543  0.73949150  1  0  0.119377  0  3.606108  0  0  0.098528  0  3.854605  0  0  0.108675  0  3.86564  0  0  0.142388  0.092041  0  3.847117  0
C  C37  1  0.09481966  0.67914296  0.26050442  1  0  0.119381  0  3.606725  0  0  0.098619  0  3.854932  0  0  0.108767  0  3.865962  0  0  0.142456  0.092136  0  3.84743  0
C  C38  1  0.60676978  0.31450198  0.68920433  1  0  0.655045  0  3.933021  0  0  0.609453  0  4.226685  0  0  0.644178  0  4.218265  0  0  0.196006  0.586072  0  4.231257  0
C  C39  1  0.39322316  0.68550254  0.31079468  1  0  0.655037  0  3.932862  0  0  0.609471  0  4.22648  0  0  0.644196  0  4.218062  0  0  0.195983  0.586091  0  4.23105  0
C  C40  1  0.02059091  0.96664850  0.82583025  1  0  0.051437  0  3.539004  0  0  0.005815  0  3.801016  0  0  0.014691  0  3.810506  0  0  0.0629  0.000216  0  3.794547  0
C  C41  1  0.97940622  0.03334996  0.17416752  1  0  0.05152  0  3.539062  0  0  0.005897  0  3.801072  0  0  0.014773  0  3.810562  0  0  0.062942  0.000301  0  3.794595  0
C  C42  1  0.92171849  0.96718539  0.90211159  1  0  -0.089056  0  3.737093  0  0  -0.103445  0  4.003005  0  0  -0.110046  0  4.023163  0  0  -0.066616  -0.099755  0  3.990375  0
C  C43  1  0.07828985  0.03281426  0.09788975  1  0  -0.089007  0  3.737075  0  0  -0.103444  0  4.003064  0  0  -0.110044  0  4.023211  0  0  -0.066667  -0.099751  0  3.990421  0
C  C44  1  0.81410430  0.08746324  0.92893514  1  0  -0.010043  0  3.649598  0  0  -0.047255  0  3.90977  0  0  -0.040432  0  3.922313  0  0  -0.059466  -0.051084  0  3.90021  0
C  C45  1  0.18589742  0.91253734  0.07106570  1  0  -0.010098  0  3.64955  0  0  -0.047313  0  3.909755  0  0  -0.040484  0  3.922294  0  0  -0.059478  -0.051144  0  3.9002  0
C  C46  1  0.80996567  0.20625377  0.87865092  1  0  -0.095672  0  3.665652  0  0  -0.081066  0  3.905556  0  0  -0.089972  0  3.920608  0  0  0.006579  -0.075526  0  3.894585  0
C  C47  1  0.19003656  0.79374476  0.12134801  1  0  -0.095602  0  3.665741  0  0  -0.08107  0  3.905599  0  0  -0.089983  0  3.920645  0  0  0.006619  -0.075527  0  3.894632  0
C  C48  1  0.90989950  0.20211631  0.80044734  1  0  0.118033  0  3.607123  0  0  0.097815  0  3.854679  0  0  0.109057  0  3.864229  0  0  0.139065  0.090493  0  3.848259  0
C  C49  1  0.09009577  0.79788416  0.19954912  1  0  0.117891  0  3.607337  0  0  0.097913  0  3.854536  0  0  0.109164  0  3.864067  0  0  0.139048  0.090588  0  3.848115  0
C  C50  1  0.69691760  0.33724110  0.90770757  1  0  0.736194  0  3.84729  0  0  0.687512  0  4.138137  0  0  0.724429  0  4.130794  0  0  0.238996  0.663009  0  4.145427  0
C  C51  1  0.30308857  0.66276156  0.09229113  1  0  0.736217  0  3.847243  0  0  0.687511  0  4.138132  0  0  0.724434  0  4.130781  0  0  0.238956  0.663007  0  4.145425  0
C  C52  1  0.95495932  0.46364352  0.03749097  1  0  0.571838  0  3.88791  0  0  0.525471  0  4.184003  0  0  0.556093  0  4.180842  0  0  0.222613  0.504935  0  4.189563  0
C  C53  1  0.04505189  0.53635003  0.96250656  1  0  0.571566  0  3.887975  0  0  0.525151  0  4.184131  0  0  0.555773  0  4.18097  0  0  0.222402  0.504616  0  4.189694  0
C  C54  1  0.42662776  0.95863154  0.50401069  1  0  0.560172  0  3.948766  0  0  0.516419  0  4.252011  0  0  0.546579  0  4.242047  0  0  0.204726  0.495911  0  4.258016  0
C  C55  1  0.57336823  0.04135777  0.49599260  1  0  0.560532  0  3.948513  0  0  0.516824  0  4.251681  0  0  0.546985  0  4.241714  0  0  0.204876  0.496312  0  4.25769  0
C  C56  1  0.51184026  0.05792555  0.15608898  1  0  0.560053  0  3.927632  0  0  0.514716  0  4.225243  0  0  0.543816  0  4.221319  0  0  0.221194  0.494708  0  4.230371  0
C  C57  1  0.48816761  0.94207615  0.84391622  1  0  0.560127  0  3.927239  0  0  0.514724  0  4.224973  0  0  0.543823  0  4.22105  0  0  0.221257  0.494715  0  4.230099  0
C  C58  1  0.40936903  0.13898465  0.23157004  1  0  0.56018  0  3.961969  0  0  0.519734  0  4.259257  0  0  0.549677  0  4.254297  0  0  0.211236  0.499352  0  4.264313  0
C  C59  1  0.59063210  0.86101795  0.76843010  1  0  0.560179  0  3.961946  0  0  0.51976  0  4.259225  0  0  0.549701  0  4.254265  0  0  0.211206  0.499379  0  4.264282  0
N  N60  1  0.04981985  0.37633903  0.73506011  1  0  0.245315  0  3.676611  0  0  0.291701  0  3.947007  0  0  0.290453  0  3.965065  0  0  -0.106738  0.291838  0  3.934502  0
N  N61  1  0.95017855  0.62365944  0.26493762  1  0  0.245228  0  3.676867  0  0  0.291584  0  3.947234  0  0  0.290335  0  3.965294  0  0  -0.106802  0.291722  0  3.934725  0
N  N62  1  0.01276707  0.08267510  0.77594090  1  0  0.269487  0  3.690168  0  0  0.316643  0  3.958403  0  0  0.317136  0  3.975945  0  0  -0.097649  0.315594  0  3.946503  0
N  N63  1  0.98722772  0.91732742  0.22405877  1  0  0.269526  0  3.690299  0  0  0.31657  0  3.958547  0  0  0.317062  0  3.97609  0  0  -0.09762  0.315525  0  3.946647  0
O  O64  1  0.19270249  0.31037434  0.77305642  1  0  -0.616063  0  1.814992  0  0  -0.579388  0  2.058197  0  0  -0.600352  0  2.055812  0  0  -0.273827  -0.563995  0  2.059107  0
O  O65  1  0.80729494  0.68962310  0.22694202  1  0  -0.615992  0  1.815025  0  0  -0.579325  0  2.058244  0  0  -0.600297  0  2.055859  0  0  -0.273804  -0.563934  0  2.059156  0
O  O66  1  0.10231270  0.07741861  0.70152051  1  0  -0.60275  0  1.843142  0  0  -0.573367  0  2.094583  0  0  -0.596152  0  2.09224  0  0  -0.309546  -0.55677  0  2.095616  0
O  O67  1  0.89768064  0.92257980  0.29847801  1  0  -0.602713  0  1.843139  0  0  -0.573329  0  2.094632  0  0  -0.596123  0  2.09229  0  0  -0.309537  -0.556732  0  2.095666  0
O  O68  1  0.47140088  0.37268852  0.65061391  1  0  -0.668412  0  1.904701  0  0  -0.627916  0  2.129585  0  0  -0.651904  0  2.119429  0  0  -0.346817  -0.610883  0  2.135804  0
O  O69  1  0.52860139  0.62731406  0.34938034  1  0  -0.668402  0  1.904521  0  0  -0.627919  0  2.129404  0  0  -0.65191  0  2.119245  0  0  -0.346823  -0.61088  0  2.13562  0
O  O70  1  0.62190774  0.19661319  0.72606435  1  0  -0.692649  0  2.028093  0  0  -0.643171  0  2.265785  0  0  -0.671258  0  2.261242  0  0  -0.39378  -0.623033  0  2.26803  0
O  O71  1  0.37808475  0.80338826  0.27393345  1  0  -0.692609  0  2.028174  0  0  -0.643156  0  2.265881  0  0  -0.67125  0  2.261339  0  0  -0.393771  -0.623016  0  2.268127  0
O  O72  1  0.73000028  0.44764544  0.87555992  1  0  -0.730656  0  2.070839  0  0  -0.680689  0  2.322231  0  0  -0.718661  0  2.313147  0  0  -0.376046  -0.661692  0  2.325938  0
O  O73  1  0.27000461  0.55235719  0.12443816  1  0  -0.730635  0  2.070774  0  0  -0.680674  0  2.322219  0  0  -0.718647  0  2.31313  0  0  -0.375975  -0.661674  0  2.325922  0
O  O74  1  0.57751120  0.33051741  0.96467809  1  0  -0.74969  0  2.076442  0  0  -0.696597  0  2.343717  0  0  -0.735913  0  2.327348  0  0  -0.408105  -0.679209  0  2.352657  0
O  O75  1  0.42249043  0.66949231  0.03531922  1  0  -0.749652  0  2.076309  0  0  -0.696576  0  2.343632  0  0  -0.735888  0  2.327251  0  0  -0.408106  -0.679187  0  2.352573  0
O  O76  1  0.79152169  0.50408072  0.04691366  1  0  -0.671994  0  2.150789  0  0  -0.609401  0  2.384266  0  0  -0.643285  0  2.373287  0  0  -0.34434  -0.591617  0  2.38989  0
O  O77  1  0.20848222  0.49592088  0.95308448  1  0  -0.671822  0  2.150957  0  0  -0.609204  0  2.384436  0  0  -0.643087  0  2.373455  0  0  -0.344224  -0.59142  0  2.390056  0
O  O78  1  0.04710356  0.37210582  0.08281138  1  0  -0.629041  0  2.038426  0  0  -0.584311  0  2.283309  0  0  -0.616552  0  2.271403  0  0  -0.366746  -0.568512  0  2.2889  0
O  O79  1  0.95289930  0.62789474  0.91718422  1  0  -0.629034  0  2.038262  0  0  -0.584294  0  2.283188  0  0  -0.616537  0  2.271276  0  0  -0.366705  -0.568493  0  2.288782  0
O  O80  1  0.31016365  0.99291083  0.56292915  1  0  -0.659348  0  2.041628  0  0  -0.613598  0  2.278221  0  0  -0.63538  0  2.265662  0  0  -0.37916  -0.598157  0  2.286392  0
O  O81  1  0.68984521  0.00707358  0.43707654  1  0  -0.659543  0  2.041602  0  0  -0.613794  0  2.278186  0  0  -0.635586  0  2.265619  0  0  -0.37924  -0.598356  0  2.286365  0
O  O82  1  0.43603581  0.86412005  0.45099109  1  0  -0.660879  0  2.047821  0  0  -0.614934  0  2.284657  0  0  -0.638347  0  2.274606  0  0  -0.382585  -0.598488  0  2.291153  0
O  O83  1  0.56395956  0.13587127  0.54900954  1  0  -0.660923  0  2.047734  0  0  -0.615001  0  2.284558  0  0  -0.638402  0  2.274503  0  0  -0.382589  -0.598551  0  2.291052  0
O  O84  1  0.43205298  0.08667328  0.30731931  1  0  -0.629764  0  1.990025  0  0  -0.587216  0  2.221155  0  0  -0.609557  0  2.211474  0  0  -0.356372  -0.570988  0  2.226992  0
O  O85  1  0.56794649  0.91332625  0.69268227  1  0  -0.629731  0  1.990122  0  0  -0.587184  0  2.221236  0  0  -0.609518  0  2.211557  0  0  -0.356327  -0.570958  0  2.227073  0
O  O86  1  0.61252828  0.94702054  0.17628063  1  0  -0.663232  0  2.156182  0  0  -0.606825  0  2.396869  0  0  -0.630569  0  2.388627  0  0  -0.355324  -0.589436  0  2.401202  0
O  O87  1  0.38746202  0.05297988  0.82371987  1  0  -0.663265  0  2.155988  0  0  -0.606866  0  2.396754  0  0  -0.630599  0  2.388502  0  0  -0.355352  -0.589479  0  2.40109  0
O  O88  1  0.31395146  0.25152610  0.20905646  1  0  -0.670416  0  2.016784  0  0  -0.624638  0  2.259344  0  0  -0.660281  0  2.250181  0  0  -0.377381  -0.606867  0  2.262962  0
O  O89  1  0.68605226  0.74847655  0.79094621  1  0  -0.670455  0  2.016756  0  0  -0.624687  0  2.259333  0  0  -0.660331  0  2.250172  0  0  -0.377412  -0.606917  0  2.262954  0
O  O90  1  0.49131350  0.10713278  0.07935154  1  0  -0.654837  0  2.076674  0  0  -0.6048  0  2.327199  0  0  -0.639337  0  2.317087  0  0  -0.378827  -0.588194  0  2.332329  0
O  O91  1  0.50868697  0.89286779  0.92065063  1  0  -0.654836  0  2.07652  0  0  -0.604779  0  2.327087  0  0  -0.639312  0  2.316975  0  0  -0.378853  -0.588182  0  2.332223  0
O  O92  1  0.60169706  0.36536662  0.14755740  1  0  -0.893933  0  1.816936  0  0  -0.848461  0  2.00334  0  0  -0.876356  0  1.966679  0  0  -0.62177  -0.835397  0  2.022762  0
O  O93  1  0.39830743  0.63463297  0.85244209  1  0  -0.894003  0  1.816946  0  0  -0.848546  0  2.003349  0  0  -0.87644  0  1.966618  0  0  -0.621808  -0.835481  0  2.022767  0
O  O94  1  0.24962183  0.22071670  0.94703481  1  0  -0.909947  0  1.878317  0  0  -0.863275  0  2.080389  0  0  -0.893979  0  2.044578  0  0  -0.642806  -0.848758  0  2.101309  0
O  O95  1  0.75038082  0.77928489  0.05296401  1  0  -0.90986  0  1.878322  0  0  -0.863181  0  2.080446  0  0  -0.893886  0  2.044638  0  0  -0.642748  -0.84866  0  2.101363  0
O  O96  1  0.81218819  0.72681231  0.43782961  1  0  -0.858174  0  1.849747  0  0  -0.818867  0  2.031306  0  0  -0.837292  0  2.007726  0  0  -0.598036  -0.805643  0  2.045706  0
O  O97  1  0.18781502  0.27317808  0.56216888  1  0  -0.858097  0  1.849742  0  0  -0.818818  0  2.031353  0  0  -0.837235  0  2.00781  0  0  -0.598069  -0.805605  0  2.045722  0
