# generated using pymatgen
data_Zn4H21C36N3O16
_symmetry_space_group_name_H-M   'P 1'
_cell_length_a   21.24699036
_cell_length_b   21.78119545
_cell_length_c   21.03388982
_cell_angle_alpha   60.25693186
_cell_angle_beta   61.35688358
_cell_angle_gamma   89.94942020
_symmetry_Int_Tables_number   1
_chemical_formula_structural   Zn4H21C36N3O16
_chemical_formula_sum   'Zn8 H42 C72 N6 O32'
_cell_volume   7049.80610036
_cell_formula_units_Z   2
loop_
 _symmetry_equiv_pos_site_id
 _symmetry_equiv_pos_as_xyz
  1  'x, y, z'
loop_
 _atom_site_type_symbol
 _atom_site_label
 _atom_site_symmetry_multiplicity
 _atom_site_fract_x
 _atom_site_fract_y
 _atom_site_fract_z
 _atom_site_occupancy
 _atom_site_pbe_bader_charge
 _atom_site_pbe_bader_spin_density
 _atom_site_pbe_cm5_charge
 _atom_site_pbe_ddec_charge
 _atom_site_pbe_ddec_spin_density
 _atom_site_pbe_ddec_sum_bond_order
 _atom_site_pbe_magmom
Zn  Zn0  1  0.97172190  0.04080260  0.91098470  1  1.306857  0  0.674675  0.953718  0  2.447191  0
Zn  Zn1  1  0.96276401  0.04519288  0.05869653  1  1.316401  0  0.672217  0.959032  0  2.408404  0
Zn  Zn2  1  0.11749280  0.04903791  0.91432703  1  1.317687  0  0.672707  0.971058  0  2.347822  0
Zn  Zn3  1  0.97156913  0.89448043  0.06257490  1  1.308458  0  0.670375  0.978324  0  2.285236  0
Zn  Zn4  1  0.54577172  0.47156576  0.06125282  1  1.295471  0  0.654782  0.957095  0  2.401391  0
Zn  Zn5  1  0.54310288  0.47176583  0.91124076  1  1.31206  0  0.664688  0.958391  0  2.405391  0
Zn  Zn6  1  0.54026628  0.61836419  0.91214417  1  1.323354  0  0.68963  0.984213  0  2.314683  0
Zn  Zn7  1  0.39522162  0.46778510  0.06338939  1  1.320082  0  0.67668  0.969637  0  2.365431  0
H  H8  1  0.79850679  0.12767598  0.91322311  1  0.105716  0  0.110604  0.1192  0  0.990378  0
H  H9  1  0.71346778  0.20839087  0.90098510  1  0.127214  0  0.112642  0.118639  0  0.989279  0
H  H10  1  0.85887223  0.21466687  0.02676253  1  0.088536  0  0.108394  0.116387  0  1.026785  0
H  H11  1  0.87696398  0.33212136  0.00408912  1  0.079882  0  0.11481  0.128517  0  0.968479  0
H  H12  1  0.80292743  0.35394198  0.07002820  1  0.070246  0  0.119613  0.131653  0  0.976924  0
H  H13  1  0.80191588  0.25943042  0.11288156  1  0.069532  0  0.114055  0.127586  0  0.969825  0
H  H14  1  0.72009600  0.38191519  0.03944770  1  0.102389  0  0.127298  0.107419  0  0.995341  0
H  H15  1  0.06751284  0.22380135  0.66336619  1  0.08817  0  0.109186  0.117636  0  0.994105  0
H  H16  1  0.13503611  0.31339775  0.49864369  1  0.118287  0  0.113729  0.119332  0  0.989338  0
H  H17  1  0.26736588  0.16216637  0.63001686  1  0.098483  0  0.107822  0.115397  0  1.026755  0
H  H18  1  0.35992734  0.14539846  0.52599213  1  0.05015  0  0.115505  0.129756  0  0.966519  0
H  H19  1  0.44591272  0.21739624  0.43125090  1  0.082951  0  0.120209  0.132304  0  0.977077  0
H  H20  1  0.39692289  0.21813766  0.52736711  1  0.068534  0  0.111947  0.123609  0  0.972857  0
H  H21  1  0.44083032  0.29927623  0.32337817  1  0.143432  0  0.127012  0.106854  0  0.995505  0
H  H22  1  0.90222392  0.94394117  0.82680270  1  0.094961  0  0.109715  0.118129  0  0.993442  0
H  H23  1  0.82363185  0.87894319  0.80485876  1  0.115963  0  0.115036  0.121322  0  0.985801  0
H  H24  1  0.80318540  0.75224523  0.08962643  1  0.110522  0  0.105692  0.112566  0  1.029837  0
H  H25  1  0.68091430  0.66547692  0.19853283  1  0.085903  0  0.113565  0.127172  0  0.968538  0
H  H26  1  0.65589592  0.57987615  0.21163687  1  0.08463  0  0.119371  0.13113  0  0.978505  0
H  H27  1  0.75192340  0.62415969  0.16430851  1  0.051954  0  0.110798  0.121954  0  0.975126  0
H  H28  1  0.63085086  0.58379989  0.12381424  1  0.121105  0  0.126434  0.106607  0  0.997908  0
H  H29  1  0.05610351  0.12566435  0.14544797  1  0.110642  0  0.108807  0.117208  0  0.993606  0
H  H30  1  0.12582370  0.19810087  0.16900217  1  0.108489  0  0.113146  0.119273  0  0.989515  0
H  H31  1  0.25573122  0.20817786  0.89293670  1  0.082574  0  0.107254  0.114394  0  1.030674  0
H  H32  1  0.35409560  0.32155088  0.78312246  1  0.076242  0  0.112022  0.123735  0  0.973822  0
H  H33  1  0.43917716  0.33676072  0.77857479  1  0.061464  0  0.121442  0.134345  0  0.975736  0
H  H34  1  0.38500295  0.24446300  0.83023854  1  0.064204  0  0.114892  0.129106  0  0.967906  0
H  H35  1  0.43445622  0.36653160  0.86271567  1  0.135814  0  0.130351  0.111997  0  0.992143  0
H  H36  1  0.78811449  0.94825279  0.30712359  1  0.102152  0  0.107437  0.115449  0  0.998094  0
H  H37  1  0.69779025  0.88201942  0.47130107  1  0.107844  0  0.113737  0.119366  0  0.988059  0
H  H38  1  0.84917882  0.75062301  0.34632545  1  0.080445  0  0.106257  0.113091  0  1.029549  0
H  H39  1  0.86352894  0.65653179  0.45311996  1  0.052529  0  0.114229  0.128371  0  0.968661  0
H  H40  1  0.78897992  0.57263954  0.54784311  1  0.09965  0  0.122172  0.136401  0  0.974335  0
H  H41  1  0.78888735  0.62272477  0.45024577  1  0.053819  0  0.110959  0.122925  0  0.973463  0
H  H42  1  0.70746706  0.57846394  0.65353621  1  0.146144  0  0.129605  0.111186  0  0.991637  0
H  H43  1  0.27433034  0.94866279  0.92931822  1  0.080235  0  0.10659  0.114264  0  0.998526  0
H  H44  1  0.36994193  0.87877982  0.92539930  1  0.103798  0  0.113662  0.119925  0  0.988554  0
H  H45  1  0.10760725  0.75083849  0.04514694  1  0.078184  0  0.105633  0.112325  0  1.030923  0
H  H46  1  0.11148810  0.65211563  0.02780091  1  0.061893  0  0.111323  0.12327  0  0.973093  0
H  H47  1  0.12414675  0.56856996  0.09492782  1  0.081487  0  0.122978  0.137289  0  0.972451  0
H  H48  1  0.08395024  0.62311374  0.13572472  1  0.076412  0  0.112284  0.124889  0  0.97188  0
H  H49  1  0.23802618  0.57373381  0.05656252  1  0.118645  0  0.131812  0.114305  0  0.987297  0
C  C50  1  0.88223738  0.11917746  0.97923854  1  1.5452  0  0.22774  0.604012  0  4.155406  0
C  C51  1  0.83284122  0.16733212  0.97100269  1  -0.029844  0  -0.015587  -0.019509  0  3.997479  0
C  C52  1  0.79257830  0.16479883  0.93480185  1  -0.027065  0  -0.082121  -0.100436  0  3.974615  0
C  C53  1  0.74618107  0.20893726  0.92794567  1  -0.009795  0  -0.073744  -0.076404  0  3.971499  0
C  C54  1  0.73882497  0.25660478  0.95597014  1  -0.024577  0  -0.010974  -0.067087  0  3.930999  0
C  C55  1  0.78000605  0.25940805  0.99156479  1  0.302148  0  0.102688  0.138732  0  3.995498  0
C  C56  1  0.82685268  0.21436976  0.99912329  1  0.026745  0  -0.088523  -0.19164  0  3.953551  0
C  C57  1  0.81616493  0.31318287  0.05356203  1  0.24651  0  -0.115713  -0.268898  0  3.905042  0
C  C58  1  0.72451722  0.34742658  0.01464178  1  0.40144  0  0.052104  0.024074  0  3.953498  0
C  C59  1  0.68245617  0.34803526  0.98111910  1  0.045916  0  -0.044502  -0.231902  0  3.968631  0
C  C60  1  0.63278811  0.39625562  0.98194267  1  1.539381  0  0.219848  0.626143  0  4.18358  0
C  C61  1  0.68739012  0.30220318  0.94733382  1  0.963204  0  0.127419  0.35016  0  4.108218  0
C  C62  1  0.12352127  0.13652380  0.75232360  1  1.534  0  0.227813  0.606803  0  4.153706  0
C  C63  1  0.16460378  0.18889206  0.65492415  1  -0.06059  0  -0.016615  -0.02165  0  3.997728  0
C  C64  1  0.12589756  0.23059726  0.61907093  1  -0.022116  0  -0.084712  -0.10335  0  3.979584  0
C  C65  1  0.16251145  0.27925404  0.52908403  1  0.010303  0  -0.073298  -0.0739  0  3.976029  0
C  C66  1  0.23730277  0.28666532  0.47243514  1  -0.00445  0  -0.010059  -0.067339  0  3.931095  0
C  C67  1  0.27549324  0.24342064  0.50862477  1  0.361261  0  0.102998  0.140156  0  3.993539  0
C  C68  1  0.23913966  0.19532385  0.60023616  1  -0.031378  0  -0.089848  -0.194693  0  3.95538  0
C  C69  1  0.39007596  0.20504082  0.48641801  1  0.271364  0  -0.116701  -0.268373  0  3.905696  0
C  C70  1  0.38317959  0.29717581  0.36361598  1  0.330893  0  0.051899  0.023434  0  3.952336  0
C  C71  1  0.35026719  0.34108950  0.32317133  1  0.009588  0  -0.042678  -0.227877  0  3.960718  0
C  C72  1  0.39632117  0.38848705  0.22539841  1  1.610953  0  0.222135  0.628778  0  4.17763  0
C  C73  1  0.27356728  0.34058169  0.37608055  1  0.970845  0  0.130044  0.351509  0  4.104203  0
C  C74  1  0.90412696  0.89062597  0.97056834  1  1.555181  0  0.227322  0.607301  0  4.151174  0
C  C75  1  0.85707664  0.85076265  0.95948898  1  -0.007592  0  -0.016929  -0.023265  0  3.996748  0
C  C76  1  0.86314773  0.88781255  0.87872851  1  -0.04299  0  -0.083931  -0.101088  0  3.974798  0
C  C77  1  0.81999256  0.85255748  0.86667519  1  -0.016779  0  -0.072274  -0.074108  0  3.971205  0
C  C78  1  0.76903988  0.78061894  0.93417250  1  0.013452  0  -0.009356  -0.066534  0  3.927835  0
C  C79  1  0.76199450  0.74408909  0.01586204  1  0.308675  0  0.102386  0.139932  0  3.994179  0
C  C80  1  0.80680633  0.77917671  0.02791062  1  -0.011257  0  -0.091304  -0.195398  0  3.96006  0
C  C81  1  0.69944889  0.63367604  0.16913947  1  0.256854  0  -0.117553  -0.268247  0  3.91377  0
C  C82  1  0.66930388  0.63969190  0.06871381  1  0.379603  0  0.049975  0.021847  0  3.956136  0
C  C83  1  0.67291972  0.67089750  0.99157623  1  0.042813  0  -0.041574  -0.225577  0  3.961743  0
C  C84  1  0.62315222  0.62423024  0.99003950  1  1.585036  0  0.223644  0.628884  0  4.172152  0
C  C85  1  0.72505322  0.74539896  0.91616949  1  0.967653  0  0.130071  0.348431  0  4.107958  0
C  C86  1  0.11154761  0.12093012  0.00364632  1  1.543306  0  0.229316  0.609521  0  4.153816  0
C  C87  1  0.15283177  0.16373518  0.01731178  1  0.016807  0  -0.017737  -0.023141  0  4.000027  0
C  C88  1  0.11483493  0.16012235  0.09589385  1  -0.036841  0  -0.085186  -0.105005  0  3.984541  0
C  C89  1  0.15270697  0.19982336  0.10883367  1  -0.003405  0  -0.074612  -0.077092  0  3.976989  0
C  C90  1  0.22811115  0.24477184  0.04434964  1  -0.011395  0  -0.010774  -0.067104  0  3.929012  0
C  C91  1  0.26599815  0.24830847  0.96539989  1  0.31603  0  0.103101  0.140367  0  3.991836  0
C  C92  1  0.22814006  0.20711071  0.95255742  1  -0.033571  0  -0.089924  -0.192904  0  3.958405  0
C  C93  1  0.38188004  0.29906142  0.81873194  1  0.276567  0  -0.116422  -0.269997  0  3.908088  0
C  C94  1  0.37585985  0.33293042  0.91526034  1  0.395597  0  0.055461  0.029281  0  3.942922  0
C  C95  1  0.34288167  0.33391529  0.98906041  1  0.0158  0  -0.043134  -0.231443  0  3.964651  0
C  C96  1  0.39026505  0.38412770  0.98916831  1  1.57994  0  0.221948  0.626901  0  4.180859  0
C  C97  1  0.26502909  0.28744465  0.06179889  1  0.969338  0  0.128309  0.349074  0  4.109044  0
C  C98  1  0.87605584  0.89280907  0.22101413  1  1.577061  0  0.228535  0.609701  0  4.148091  0
C  C99  1  0.82302337  0.85235592  0.31834436  1  -0.019644  0  -0.017562  -0.022211  0  3.994409  0
C  C100  1  0.78104314  0.89060513  0.35252555  1  -0.044142  0  -0.086011  -0.105574  0  3.985183  0
C  C101  1  0.73184900  0.85463954  0.44226273  1  0.034707  0  -0.074025  -0.074725  0  3.976618  0
C  C102  1  0.72364840  0.78064497  0.50045458  1  -0.080084  0  -0.009171  -0.065722  0  3.928581  0
C  C103  1  0.76670634  0.74264549  0.46599415  1  0.40196  0  0.102531  0.139424  0  3.991351  0
C  C104  1  0.81585404  0.77862718  0.37467218  1  -0.066475  0  -0.091032  -0.195165  0  3.958139  0
C  C105  1  0.80270723  0.62822314  0.49168200  1  0.271117  0  -0.117473  -0.272291  0  3.908842  0
C  C106  1  0.71079217  0.63584649  0.61213505  1  0.349806  0  0.051981  0.022399  0  3.94798  0
C  C107  1  0.66737306  0.66880777  0.65093434  1  0.061817  0  -0.041403  -0.226279  0  3.962137  0
C  C108  1  0.61898978  0.62254997  0.74871153  1  1.533576  0  0.224321  0.630204  0  4.173366  0
C  C109  1  0.66911321  0.74497589  0.59650649  1  1.004511  0  0.129313  0.349153  0  4.107979  0
C  C110  1  0.12993120  0.89495582  0.99038977  1  1.574651  0  0.2289  0.611438  0  4.149549  0
C  C111  1  0.18577732  0.85284912  0.98789308  1  -0.027047  0  -0.017849  -0.023097  0  3.997359  0
C  C112  1  0.25984389  0.89026409  0.95312743  1  -0.008002  0  -0.087328  -0.107904  0  3.991051  0
C  C113  1  0.31230906  0.85235067  0.95046541  1  0.019469  0  -0.074385  -0.075661  0  3.977338  0
C  C114  1  0.29357737  0.77740517  0.98006161  1  0.01746  0  -0.009025  -0.066372  0  3.930341  0
C  C115  1  0.21942000  0.74016921  0.01374608  1  0.283715  0  0.102449  0.141269  0  3.9878  0
C  C116  1  0.16535252  0.77806131  0.01860223  1  -0.000619  0  -0.091524  -0.196391  0  3.957942  0
C  C117  1  0.12594159  0.62538961  0.07695194  1  0.251577  0  -0.117127  -0.271187  0  3.908994  0
C  C118  1  0.25572433  0.63148151  0.03412617  1  0.4021  0  0.055728  0.02772  0  3.935921  0
C  C119  1  0.32920033  0.66394613  0.00088486  1  0.032146  0  -0.040776  -0.227844  0  3.962153  0
C  C120  1  0.38082633  0.61789286  0.99476467  1  1.572893  0  0.225117  0.629203  0  4.175213  0
C  C121  1  0.35307029  0.74005300  0.97493492  1  0.952939  0  0.129979  0.349463  0  4.108199  0
N  N122  1  0.77251464  0.30691694  0.01943785  1  -1.21469  0  -0.246439  0.037204  0  3.755261  0
N  N123  1  0.34941717  0.24985040  0.45169373  1  -1.222871  0  -0.246936  0.035461  0  3.755856  0
N  N124  1  0.71023061  0.67283794  0.08314302  1  -1.261792  0  -0.248264  0.033678  0  3.758558  0
N  N125  1  0.34108885  0.29320266  0.90141539  1  -1.237391  0  -0.246759  0.035983  0  3.754365  0
N  N126  1  0.75894892  0.66919334  0.52438915  1  -1.261035  0  -0.247187  0.035946  0  3.751956  0
N  N127  1  0.20171970  0.66583747  0.04168972  1  -1.243278  0  -0.245757  0.036843  0  3.746295  0
O  O128  1  0.00756845  0.00388532  0.98912622  1  -1.211904  0  -0.575451  -1.031985  0  2.545525  0
O  O129  1  0.91488830  0.11992689  0.01664507  1  -1.166598  0  -0.316477  -0.545315  0  2.312534  0
O  O130  1  0.88813047  0.08034452  0.94805981  1  -1.172647  0  -0.315021  -0.5444  0  2.333482  0
O  O131  1  0.60924362  0.41247791  0.93214460  1  -1.14811  0  -0.306775  -0.52225  0  2.364742  0
O  O132  1  0.61837318  0.41782900  0.03298689  1  -1.180869  0  -0.332614  -0.577185  0  2.324033  0
O  O133  1  0.65249708  0.29809721  0.91564014  1  -1.094071  0  -0.303639  -0.435021  0  2.066198  0
O  O134  1  0.16099923  0.10762166  0.78624140  1  -1.162462  0  -0.315295  -0.544719  0  2.289972  0
O  O135  1  0.05228833  0.12480734  0.79481893  1  -1.169566  0  -0.317665  -0.551718  0  2.358655  0
O  O136  1  0.36144962  0.41175748  0.18750457  1  -1.148475  0  -0.299482  -0.514003  0  2.352592  0
O  O137  1  0.46811527  0.40107133  0.18755865  1  -1.186802  0  -0.333255  -0.579699  0  2.323068  0
O  O138  1  0.23994208  0.38105095  0.34754346  1  -1.085643  0  -0.298486  -0.427958  0  2.059367  0
O  O139  1  0.90581092  0.85492334  0.03942600  1  -1.173879  0  -0.315967  -0.549777  0  2.286336  0
O  O140  1  0.93977817  0.95929279  0.90809153  1  -1.177569  0  -0.319207  -0.54988  0  2.360825  0
O  O141  1  0.60802018  0.65655372  0.93217556  1  -1.153492  0  -0.296232  -0.508765  0  2.335857  0
O  O142  1  0.59913914  0.55397070  0.04946471  1  -1.189305  0  -0.335622  -0.584431  0  2.338292  0
O  O143  1  0.73586244  0.77793742  0.84240122  1  -1.086401  0  -0.292631  -0.4191  0  2.059055  0
O  O144  1  0.14993203  0.11575634  0.93855056  1  -1.169009  0  -0.317731  -0.551228  0  2.314377  0
O  O145  1  0.04019363  0.09288739  0.05912631  1  -1.169339  0  -0.315325  -0.545415  0  2.346491  0
O  O146  1  0.35706444  0.39967072  0.04545973  1  -1.156697  0  -0.304431  -0.521677  0  2.355391  0
O  O147  1  0.46134012  0.40875610  0.93038916  1  -1.186441  0  -0.327382  -0.56884  0  2.335693  0
O  O148  1  0.23032076  0.28099524  0.13287438  1  -1.089476  0  -0.299072  -0.427748  0  2.061316  0
O  O149  1  0.90873714  0.85633445  0.18930430  1  -1.171221  0  -0.317519  -0.550498  0  2.287356  0
O  O150  1  0.88408660  0.96219303  0.17697274  1  -1.186715  0  -0.318382  -0.552169  0  2.361865  0
O  O151  1  0.59696387  0.65569817  0.78712178  1  -1.142061  0  -0.298027  -0.514425  0  2.335855  0
O  O152  1  0.60461395  0.55186560  0.78584528  1  -1.166612  0  -0.331723  -0.577159  0  2.338504  0
O  O153  1  0.62905323  0.77857512  0.62356414  1  -1.085385  0  -0.295222  -0.423152  0  2.055834  0
O  O154  1  0.06024715  0.85797465  0.03523858  1  -1.176492  0  -0.31933  -0.552868  0  2.300477  0
O  O155  1  0.15757547  0.96540558  0.94672327  1  -1.182828  0  -0.317002  -0.551103  0  2.355266  0
O  O156  1  0.45122555  0.65170689  0.94508572  1  -1.150236  0  -0.301243  -0.518873  0  2.35163  0
O  O157  1  0.34920140  0.54755175  0.03944250  1  -1.180966  0  -0.326181  -0.567381  0  2.328786  0
O  O158  1  0.41507158  0.77269225  0.95226429  1  -1.080675  0  -0.294749  -0.421807  0  2.060058  0
O  O159  1  0.50617900  0.50800270  0.98699273  1  -1.21284  0  -0.571908  -1.033246  0  2.535624  0
