# generated using pymatgen
data_DyH21C23O8
_symmetry_space_group_name_H-M   'P 1'
_cell_length_a   9.57628141
_cell_length_b   9.88748542
_cell_length_c   12.48710000
_cell_angle_alpha   95.54646686
_cell_angle_beta   104.68922201
_cell_angle_gamma   97.32016819
_symmetry_Int_Tables_number   1
_chemical_formula_structural   DyH21C23O8
_chemical_formula_sum   'Dy2 H42 C46 O16'
_cell_volume   1124.08502598
_cell_formula_units_Z   2
loop_
 _symmetry_equiv_pos_site_id
 _symmetry_equiv_pos_as_xyz
  1  'x, y, z'
loop_
 _atom_site_type_symbol
 _atom_site_label
 _atom_site_symmetry_multiplicity
 _atom_site_fract_x
 _atom_site_fract_y
 _atom_site_fract_z
 _atom_site_occupancy
 _atom_site_pbe_bader_charge
 _atom_site_pbe_bader_spin_density
 _atom_site_pbe_cm5_charge
 _atom_site_pbe_ddec_charge
 _atom_site_pbe_ddec_spin_density
 _atom_site_pbe_ddec_sum_bond_order
 _atom_site_pbe_magmom
Dy  Dy0  1  0.75239248  0.47967141  0.01185914  1  2.186665  0  1.532648  2.068253  0  2.206309  0
Dy  Dy1  1  0.24760513  0.52032524  0.98814013  1  2.186537  0  1.53269  2.068317  0  2.206345  0
H  H2  1  0.48644387  0.36218206  0.52734823  1  0.048571  0  0.099942  0.098705  0  1.013239  0
H  H3  1  0.51355892  0.63781973  0.47264444  1  0.048637  0  0.099863  0.098649  0  1.013351  0
H  H4  1  0.45060870  0.88000985  0.25317613  1  0.069314  0  0.100547  0.10422  0  1.047493  0
H  H5  1  0.54938994  0.11999297  0.74682142  1  0.069326  0  0.10054  0.104207  0  1.047531  0
H  H6  1  0.58641712  0.07156277  0.40318207  1  0.066222  0  0.093568  0.087583  0  1.045194  0
H  H7  1  0.41358714  0.92843491  0.59681698  1  0.066179  0  0.093579  0.087584  0  1.045108  0
H  H8  1  0.63698700  0.39759608  0.72553594  1  0.119065  0  0.110285  0.115715  0  1.034615  0
H  H9  1  0.36301056  0.60240674  0.27445740  1  0.118977  0  0.110298  0.115715  0  1.034551  0
H  H10  1  0.60319409  0.14490987  0.05438405  1  0.060633  0  0.104353  0.070234  0  0.970717  0
H  H11  1  0.39680857  0.85508472  0.94561685  1  0.060738  0  0.104374  0.070252  0  0.970776  0
H  H12  1  0.64416044  0.16079190  0.20406468  1  0.062416  0  0.099928  0.06944  0  1.011751  0
H  H13  1  0.35583911  0.83920990  0.79593697  1  0.062362  0  0.099909  0.069421  0  1.011759  0
H  H14  1  0.89965444  0.26393761  0.22068997  1  0.032068  0  0.102537  0.067292  0  0.977057  0
H  H15  1  0.10034472  0.73606830  0.77931353  1  0.03213  0  0.102533  0.067293  0  0.977051  0
H  H16  1  0.85446935  0.10035705  0.13473004  1  0.040462  0  0.101821  0.068985  0  0.991733  0
H  H17  1  0.14553576  0.89964578  0.86527678  1  0.040413  0  0.101822  0.06898  0  0.991761  0
H  H18  1  0.60884395  0.35121982  0.37254365  1  0.107933  0  0.101954  0.100214  0  1.012088  0
H  H19  1  0.39116229  0.64877683  0.62745170  1  0.108176  0  0.101939  0.100254  0  1.012094  0
H  H20  1  0.64641017  0.68788712  0.66944689  1  0.095427  0  0.101537  0.099676  0  1.034773  0
H  H21  1  0.35358864  0.31211673  0.33055718  1  0.095701  0  0.101532  0.099707  0  1.03471  0
H  H22  1  0.85621312  0.76373579  0.22054865  1  0.119533  0  0.107395  0.111231  0  1.042016  0
H  H23  1  0.14378215  0.23625983  0.77944449  1  0.11969  0  0.107369  0.111211  0  1.041967  0
H  H24  1  0.02806104  0.40570689  0.61629416  1  0.112955  0  0.106242  0.110576  0  1.013508  0
H  H25  1  0.97194300  0.59429594  0.38370684  1  0.11298  0  0.106251  0.11058  0  1.01341  0
H  H26  1  0.87339017  0.97871325  0.95881419  1  0.102456  0  0.10315  0.101494  0  1.022652  0
H  H27  1  0.12660773  0.02129163  0.04119138  1  0.102635  0  0.103131  0.101422  0  1.022698  0
H  H28  1  0.65991468  0.87342922  0.54728542  1  0.046013  0  0.096367  0.091837  0  1.036775  0
H  H29  1  0.34008629  0.12657464  0.45271907  1  0.046007  0  0.096349  0.09179  0  1.036828  0
H  H30  1  0.85886788  0.11024498  0.45974389  1  0.052703  0  0.095154  0.086431  0  1.04255  0
H  H31  1  0.14113624  0.88974549  0.54025698  1  0.052722  0  0.095154  0.086454  0  1.042581  0
H  H32  1  0.77189928  0.11256647  0.63346969  1  0.081983  0  0.099525  0.092421  0  1.031783  0
H  H33  1  0.22810260  0.88743635  0.36653570  1  0.081541  0  0.099545  0.092466  0  1.031737  0
H  H34  1  0.87849615  0.37003973  0.41674093  1  0.08218  0  0.10249  0.099129  0  1.010187  0
H  H35  1  0.12150970  0.62996104  0.58325866  1  0.082223  0  0.102462  0.099105  0  1.01019  0
H  H36  1  0.99379327  0.95757083  0.36853236  1  0.085654  0  0.092817  0.086759  0  1.060016  0
H  H37  1  0.00620529  0.04241862  0.63146495  1  0.085653  0  0.092845  0.086825  0  1.059926  0
H  H38  1  0.87865004  0.16582385  0.83964567  1  0.090753  0  0.109063  0.115569  0  1.011243  0
H  H39  1  0.12134570  0.83418103  0.16036028  1  0.090861  0  0.109082  0.115584  0  1.011311  0
H  H40  1  0.96361948  0.27322768  0.04536706  1  0.633564  0  0.308898  0.364883  0  0.961993  0
H  H41  1  0.03638222  0.72677411  0.95463581  1  0.633265  0  0.308876  0.364898  0  0.961969  0
H  H42  1  0.54376980  0.35382121  0.13609528  1  0.63945  0  0.312527  0.370075  0  0.951626  0
H  H43  1  0.45622564  0.64617544  0.86390198  1  0.639516  0  0.312553  0.370113  0  0.951587  0
C  C44  1  0.56237867  0.69666576  0.13891654  1  1.564132  0  0.237114  0.660554  0  4.146315  0
C  C45  1  0.43762161  0.30333397  0.86107949  1  1.564436  0  0.237254  0.660769  0  4.14622  0
C  C46  1  0.93228271  0.43344435  0.80125805  1  1.544443  0  0.231699  0.643381  0  4.168133  0
C  C47  1  0.06771200  0.56655435  0.19874243  1  1.544345  0  0.231532  0.643023  0  4.168251  0
C  C48  1  0.64560416  0.81130470  0.22818650  1  -0.073253  0  -0.020492  -0.051872  0  3.960562  0
C  C49  1  0.35439305  0.18869607  0.77180981  1  -0.073597  0  -0.020436  -0.051959  0  3.960567  0
C  C50  1  0.84130218  0.40643750  0.68230660  1  -0.097108  0  -0.019818  -0.051033  0  3.962719  0
C  C51  1  0.15869793  0.59356121  0.31768772  1  -0.097103  0  -0.019776  -0.050799  0  3.962768  0
C  C52  1  0.75801711  0.82303974  0.82089487  1  -0.069677  0  -0.020951  -0.037005  0  3.991677  0
C  C53  1  0.24197971  0.17696514  0.17911049  1  -0.069984  0  -0.021001  -0.037204  0  3.991938  0
C  C54  1  0.60510750  0.37176747  0.54611584  1  -0.095618  0  -0.094482  -0.100425  0  4.024006  0
C  C55  1  0.39489693  0.62823124  0.45387852  1  -0.095219  0  -0.094391  -0.100385  0  4.024039  0
C  C56  1  0.56952120  0.89760316  0.27993416  1  -0.015532  0  -0.085252  -0.093896  0  3.965585  0
C  C57  1  0.43047925  0.10239761  0.72006439  1  -0.015492  0  -0.085312  -0.093973  0  3.965564  0
C  C58  1  0.64598140  0.00429517  0.36354886  1  -0.154703  0  -0.098082  -0.101325  0  4.03741  0
C  C59  1  0.35402035  0.99570046  0.63645114  1  -0.154755  0  -0.098091  -0.101252  0  4.037187  0
C  C60  1  0.68848403  0.39230379  0.65720569  1  0.044745  0  -0.080321  -0.089958  0  3.949388  0
C  C61  1  0.31151443  0.60769801  0.34278934  1  0.044214  0  -0.080334  -0.089996  0  3.949346  0
C  C62  1  0.67107220  0.20585718  0.13327459  1  0.399045  0  -0.073993  0.051078  0  3.905649  0
C  C63  1  0.32892808  0.79414256  0.86672705  1  0.399018  0  -0.073994  0.051119  0  3.905689  0
C  C64  1  0.83114834  0.20661763  0.14049260  1  0.466021  0  -0.072239  0.052965  0  3.914161  0
C  C65  1  0.16885246  0.79338519  0.85951017  1  0.465995  0  -0.072272  0.052926  0  3.914165  0
C  C66  1  0.67337918  0.36525063  0.45953907  1  -0.053464  0  -0.085149  -0.073256  0  3.99228  0
C  C67  1  0.32662524  0.63474808  0.54045688  1  -0.05358  0  -0.085123  -0.073267  0  3.992192  0
C  C68  1  0.69675922  0.79314749  0.70514180  1  -0.085824  0  -0.08619  -0.103517  0  3.970722  0
C  C69  1  0.30324067  0.20685637  0.29486327  1  -0.085975  0  -0.086159  -0.103573  0  3.970667  0
C  C70  1  0.79880818  0.83251195  0.26077809  1  0.023207  0  -0.080408  -0.0868  0  3.946635  0
C  C71  1  0.20119158  0.16748470  0.73922081  1  0.02312  0  -0.080465  -0.08671  0  3.946572  0
C  C72  1  0.90938107  0.39683872  0.59527950  1  -0.124754  0  -0.083811  -0.099297  0  3.968799  0
C  C73  1  0.09062262  0.60316205  0.40471648  1  -0.124158  0  -0.083835  -0.099357  0  3.968678  0
C  C74  1  0.82634028  0.95691740  0.86866666  1  -0.057728  0  -0.082733  -0.096543  0  3.957179  0
C  C75  1  0.17365762  0.04308749  0.13133972  1  -0.057603  0  -0.082756  -0.096393  0  3.957223  0
C  C76  1  0.70452898  0.89662146  0.63763797  1  -0.070954  0  -0.091012  -0.085549  0  4.009921  0
C  C77  1  0.29547143  0.10338548  0.36236825  1  -0.071226  0  -0.090971  -0.085373  0  4.009909  0
C  C78  1  0.79883953  0.02571234  0.39542857  1  0.019169  0  -0.089907  -0.078798  0  4.003954  0
C  C79  1  0.20116295  0.97428123  0.60457142  1  0.018977  0  -0.089845  -0.078725  0  4.003894  0
C  C80  1  0.75189980  0.71152082  0.89208047  1  1.538668  0  0.206392  0.588593  0  4.183557  0
C  C81  1  0.24810083  0.28848097  0.10792220  1  1.538695  0  0.206478  0.588729  0  4.183303  0
C  C82  1  0.76933367  0.03079883  0.68592768  1  -0.065559  0  -0.083965  -0.075002  0  3.989843  0
C  C83  1  0.23066657  0.96920709  0.31407762  1  -0.06495  0  -0.084059  -0.075122  0  3.990009  0
C  C84  1  0.82555935  0.37663477  0.48435194  1  -0.054978  0  -0.091866  -0.089118  0  4.015025  0
C  C85  1  0.17444184  0.62336394  0.51564579  1  -0.05554  0  -0.09184  -0.089136  0  4.014842  0
C  C86  1  0.87482220  0.93978921  0.34414941  1  -0.085948  0  -0.096716  -0.091439  0  4.011413  0
C  C87  1  0.12517704  0.06020435  0.65584915  1  -0.085845  0  -0.096713  -0.091612  0  4.011336  0
C  C88  1  0.82995850  0.06117781  0.80145795  1  0.024244  0  -0.08285  -0.071055  0  3.966475  0
C  C89  1  0.17004156  0.93882707  0.19854804  1  0.024153  0  -0.082814  -0.071091  0  3.966571  0
O  O90  1  0.86886425  0.43611468  0.87923627  1  -1.216383  0  -0.417687  -0.701569  0  2.409813  0
O  O91  1  0.13113663  0.56387579  0.12075676  1  -1.216248  0  -0.417672  -0.701474  0  2.40958  0
O  O92  1  0.86032815  0.27275948  0.04903874  1  -1.144027  0  -0.448414  -0.564074  0  2.420413  0
O  O93  1  0.13967446  0.72724129  0.95096422  1  -1.143753  0  -0.448372  -0.564077  0  2.420382  0
O  O94  1  0.07055582  0.45304529  0.81897532  1  -1.155037  0  -0.394702  -0.663437  0  2.322606  0
O  O95  1  0.92944299  0.54695856  0.18102554  1  -1.155099  0  -0.394596  -0.663255  0  2.3227  0
O  O96  1  0.63276188  0.61665982  0.09546405  1  -1.213476  0  -0.425987  -0.700937  0  2.412713  0
O  O97  1  0.36722761  0.38333992  0.90453228  1  -1.213462  0  -0.42614  -0.701096  0  2.412421  0
O  O98  1  0.86308301  0.70557818  0.97330979  1  -1.18665  0  -0.351195  -0.622705  0  2.247547  0
O  O99  1  0.13691835  0.29442156  0.02669285  1  -1.186631  0  -0.351214  -0.622718  0  2.247552  0
O  O100  1  0.64668904  0.34682793  0.13618475  1  -1.147388  0  -0.446986  -0.558929  0  2.391703  0
O  O101  1  0.35330658  0.65316975  0.86381262  1  -1.147404  0  -0.447028  -0.559002  0  2.391673  0
O  O102  1  0.42362413  0.68435138  0.11059226  1  -1.205648  0  -0.399634  -0.666465  0  2.326762  0
O  O103  1  0.57636626  0.31564733  0.88940337  1  -1.205568  0  -0.399643  -0.666472  0  2.327088  0
O  O104  1  0.63728085  0.62044664  0.87034312  1  -1.186041  0  -0.353091  -0.623304  0  2.257299  0
O  O105  1  0.36272085  0.37955515  0.12965815  1  -1.185977  0  -0.353128  -0.623357  0  2.257199  0
