# generated using pymatgen
data_CdH15C13N11
_symmetry_space_group_name_H-M   'P 1'
_cell_length_a   9.53699134
_cell_length_b   9.85362868
_cell_length_c   9.83830689
_cell_angle_alpha   73.03541483
_cell_angle_beta   68.91599007
_cell_angle_gamma   86.62531851
_symmetry_Int_Tables_number   1
_chemical_formula_structural   CdH15C13N11
_chemical_formula_sum   'Cd2 H30 C26 N22'
_cell_volume   824.01069621
_cell_formula_units_Z   2
loop_
 _symmetry_equiv_pos_site_id
 _symmetry_equiv_pos_as_xyz
  1  'x, y, z'
loop_
 _atom_site_type_symbol
 _atom_site_label
 _atom_site_symmetry_multiplicity
 _atom_site_fract_x
 _atom_site_fract_y
 _atom_site_fract_z
 _atom_site_occupancy
 _atom_site_pbe_bader_spin_density
 _atom_site_pbe_cm5_charge
 _atom_site_pbe_ddec_charge
 _atom_site_pbe_ddec_spin_density
 _atom_site_pbe_ddec_sum_bond_order
 _atom_site_pbe_magmom
Cd  Cd0  1  0.17912504  0.11499272  0.68454915  1  0  0.816932  0.843347  0  2.373907  0
Cd  Cd1  1  0.82087079  0.88500941  0.31545163  1  0  0.816952  0.843309  0  2.373886  0
H  H2  1  0.15494208  0.07764007  0.09911619  1  0  0.104032  0.112833  0  1.056222  0
H  H3  1  0.84506126  0.92235567  0.90088079  1  0  0.104036  0.112849  0  1.056214  0
H  H4  1  0.24942077  0.09197985  0.30031317  1  0  0.101135  0.097806  0  1.053916  0
H  H5  1  0.75057920  0.90801590  0.69968701  1  0  0.101152  0.097875  0  1.053918  0
H  H6  1  0.50687719  0.17588451  0.23967319  1  0  0.105665  0.109013  0  1.013473  0
H  H7  1  0.49312066  0.82411337  0.76032610  1  0  0.10565  0.108994  0  1.013444  0
H  H8  1  0.69188437  0.24368141  0.97213783  1  0  0.107556  0.112546  0  1.056337  0
H  H9  1  0.30811471  0.75631859  0.02786244  1  0  0.107552  0.112546  0  1.05635  0
H  H10  1  0.82044014  0.21235766  0.69024935  1  0  0.134568  0.111357  0  1.010484  0
H  H11  1  0.17956041  0.78764872  0.30975363  1  0  0.134543  0.111287  0  1.010512  0
H  H12  1  0.76417837  0.23642170  0.53072067  1  0  0.14402  0.116536  0  0.967998  0
H  H13  1  0.23582651  0.76358148  0.46927868  1  0  0.144021  0.116538  0  0.967936  0
H  H14  1  0.86019817  0.42029580  0.77023840  1  0  0.11782  0.114698  0  1.064683  0
H  H15  1  0.13979807  0.57971377  0.22976209  1  0  0.117814  0.114713  0  1.064728  0
H  H16  1  0.87724138  0.71277162  0.63155663  1  0  0.112835  0.105008  0  1.043083  0
H  H17  1  0.12275706  0.28723688  0.36843934  1  0  0.112831  0.105006  0  1.043045  0
H  H18  1  0.61868844  0.40132165  0.41953034  1  0  0.099121  0.102314  0  1.011612  0
H  H19  1  0.38131283  0.59867729  0.58047151  1  0  0.099128  0.102316  0  1.011596  0
H  H20  1  0.63600043  0.58482866  0.32699191  1  0  0.09965  0.105375  0  1.032508  0
H  H21  1  0.36399966  0.41516921  0.67300456  1  0  0.09965  0.10538  0  1.032599  0
H  H22  1  0.88254679  0.37339488  0.25870556  1  0  0.086347  0.078832  0  0.987058  0
H  H23  1  0.11745111  0.62660406  0.74129645  1  0  0.086344  0.078846  0  0.986989  0
H  H24  1  0.91057744  0.55997864  0.17808910  1  0  0.083754  0.073177  0  1.027783  0
H  H25  1  0.08942708  0.44001817  0.82191427  1  0  0.083745  0.073174  0  1.027785  0
H  H26  1  0.85394882  0.43603256  0.00864539  1  0  0.0844  0.112575  0  1.03334  0
H  H27  1  0.14605345  0.56396425  0.99135978  1  0  0.084389  0.11256  0  1.033301  0
H  H28  1  0.71930911  0.56217430  0.05819907  1  0  0.079477  0.109983  0  1.025322  0
H  H29  1  0.28069441  0.43782463  0.94179996  1  0  0.079502  0.110045  0  1.025333  0
H  H30  1  0.67457377  0.37814393  0.15165808  1  0  0.083803  0.115029  0  1.024167  0
H  H31  1  0.32542963  0.62185288  0.84834467  1  0  0.083785  0.115025  0  1.024182  0
C  C32  1  0.37390104  0.15344237  0.91984110  1  0  0.094626  0.11562  0  4.053604  0
C  C33  1  0.62610005  0.84655338  0.08015869  1  0  0.09462  0.115684  0  4.053627  0
C  C34  1  0.27047677  0.11429036  0.07014451  1  0  -0.086317  -0.137084  0  3.941026  0
C  C35  1  0.72952450  0.88570858  0.92985328  1  0  -0.086358  -0.137176  0  3.94101  0
C  C36  1  0.32328149  0.12371625  0.18147024  1  0  -0.093263  -0.08836  0  3.998553  0
C  C37  1  0.67672174  0.87627738  0.81852943  1  0  -0.093257  -0.088409  0  3.998601  0
C  C38  1  0.47274362  0.17122327  0.14674630  1  0  -0.083326  -0.060728  0  3.979377  0
C  C39  1  0.52725753  0.82877354  0.85325418  1  0  -0.083297  -0.060678  0  3.979338  0
C  C40  1  0.57630371  0.20953027  0.99907082  1  0  -0.092371  -0.160163  0  3.991789  0
C  C41  1  0.42369650  0.79046973  0.00092803  1  0  -0.092381  -0.16018  0  3.991828  0
C  C42  1  0.52361442  0.19884427  0.88682598  1  0  0.106259  0.080931  0  4.023524  0
C  C43  1  0.47638573  0.80115467  0.11317321  1  0  0.106245  0.08093  0  4.02353  0
C  C44  1  0.74494229  0.26850409  0.63322338  1  0  0.067903  -0.000467  0  3.855634  0
C  C45  1  0.25505697  0.73149910  0.36677996  1  0  0.067902  -0.000469  0  3.855629  0
C  C46  1  0.82976772  0.48356127  0.67560816  1  0  -0.005271  -0.100078  0  3.936588  0
C  C47  1  0.17023296  0.51644723  0.32438805  1  0  -0.005234  -0.100081  0  3.936492  0
C  C48  1  0.83880953  0.62615085  0.60477696  1  0  -0.011605  -0.028736  0  4.036647  0
C  C49  1  0.16118660  0.37385659  0.39522216  1  0  -0.011618  -0.028732  0  4.036578  0
C  C50  1  0.75223138  0.52415549  0.47844477  1  0  0.219394  0.294952  0  3.927749  0
C  C51  1  0.24776557  0.47584664  0.52155561  1  0  0.219375  0.294968  0  3.92775  0
C  C52  1  0.69880958  0.49428848  0.36482959  1  0  -0.160506  -0.253389  0  3.964141  0
C  C53  1  0.30119175  0.50571152  0.63516888  1  0  -0.160502  -0.253398  0  3.96419  0
C  C54  1  0.82590628  0.47119215  0.22461102  1  0  -0.166299  -0.07906  0  3.932878  0
C  C55  1  0.17409712  0.52880466  0.77539173  1  0  -0.166275  -0.07906  0  3.932765  0
C  C56  1  0.76496279  0.46143022  0.10406518  1  0  -0.249568  -0.347901  0  3.936582  0
C  C57  1  0.23504173  0.53856659  0.89593616  1  0  -0.249574  -0.347966  0  3.936564  0
N  N58  1  0.79104975  0.65066503  0.48261440  1  0  -0.349127  -0.346803  0  3.429861  0
N  N59  1  0.20894720  0.34933710  0.51738395  1  0  -0.349133  -0.346834  0  3.429825  0
N  N60  1  0.77504979  0.41997516  0.59507500  1  0  -0.244757  -0.034234  0  3.738579  0
N  N61  1  0.22494497  0.58002804  0.40492888  1  0  -0.244764  -0.034215  0  3.738651  0
N  N62  1  0.59023263  0.22389680  0.73233270  1  0  -0.126877  0.068061  0  3.736879  0
N  N63  1  0.40976769  0.77610533  0.26766753  1  0  -0.126879  0.068008  0  3.736839  0
N  N64  1  0.49113692  0.19795741  0.67274524  1  0  -0.068956  -0.058246  0  3.195155  0
N  N65  1  0.50886553  0.80204259  0.32725385  1  0  -0.068927  -0.058112  0  3.195154  0
N  N66  1  0.36176732  0.15576548  0.78351244  1  0  -0.204092  -0.20665  0  3.438596  0
N  N67  1  0.63823614  0.84423240  0.21648489  1  0  -0.20408  -0.206747  0  3.438788  0
N  N68  1  0.96936584  0.19475378  0.86587529  1  0  -0.273684  -0.507341  0  2.85928  0
N  N69  1  0.03063425  0.80524410  0.13412525  1  0  -0.273721  -0.507391  0  2.859415  0
N  N70  1  0.93167195  0.15252588  0.00084881  1  0  0.075796  0.423689  0  4.519313  0
N  N71  1  0.06832583  0.84747093  0.99915792  1  0  0.075765  0.42367  0  4.519291  0
N  N72  1  0.89162192  0.11709612  0.13515636  1  0  -0.256479  -0.46178  0  2.829786  0
N  N73  1  0.10837828  0.88290388  0.86484453  1  0  -0.256417  -0.461727  0  2.829617  0
N  N74  1  0.37054654  0.01314513  0.51988640  1  0  -0.27415  -0.494063  0  2.894707  0
N  N75  1  0.62944574  0.98685382  0.48011247  1  0  -0.274058  -0.493939  0  2.894253  0
N  N76  1  0.49999214  0.99999891  0.49999970  1  0  0.076858  0.422896  0  4.579681  0
N  N77  1  0.01048789  0.06925482  0.57619941  1  0  -0.259329  -0.465707  0  2.911154  0
N  N78  1  0.98951273  0.93075262  0.42380019  1  0  -0.259156  -0.465301  0  2.911629  0
N  N79  1  0.99999894  0.99999662  0.49999126  1  0  0.084656  0.430904  0  4.518842  0
