# generated using pymatgen
data_CuMo4H16C20N4O15
_symmetry_space_group_name_H-M   'P 1'
_cell_length_a   9.95774947
_cell_length_b   10.14850464
_cell_length_c   13.72900373
_cell_angle_alpha   100.46926256
_cell_angle_beta   107.06395431
_cell_angle_gamma   102.92073000
_symmetry_Int_Tables_number   1
_chemical_formula_structural   CuMo4H16C20N4O15
_chemical_formula_sum   'Cu2 Mo8 H32 C40 N8 O30'
_cell_volume   1246.37227456
_cell_formula_units_Z   2
loop_
 _symmetry_equiv_pos_site_id
 _symmetry_equiv_pos_as_xyz
  1  'x, y, z'
loop_
 _atom_site_type_symbol
 _atom_site_label
 _atom_site_symmetry_multiplicity
 _atom_site_fract_x
 _atom_site_fract_y
 _atom_site_fract_z
 _atom_site_occupancy
 _atom_site_hle17_ddec_charge
 _atom_site_hle17_ddec_spin_density
 _atom_site_hle17_ddec_sum_bond_order
 _atom_site_hle17_magmom
 _atom_site_hse06_10hf_ddec_charge
 _atom_site_hse06_10hf_ddec_spin_density
 _atom_site_hse06_10hf_ddec_sum_bond_order
 _atom_site_hse06_10hf_magmom
 _atom_site_hse06_ddec_charge
 _atom_site_hse06_ddec_spin_density
 _atom_site_hse06_ddec_sum_bond_order
 _atom_site_hse06_magmom
 _atom_site_pbe_cm5_charge
 _atom_site_pbe_ddec_charge
 _atom_site_pbe_ddec_spin_density
 _atom_site_pbe_ddec_sum_bond_order
 _atom_site_pbe_magmom
Cu  Cu0  1  0.42549128  0.13924450  0.03198660  1  0.863102  0.728044  1.82726  0.487  0.851315  0.800453  2.212929  0.603  0.936989  0.88445  2.148036  0.691  0.748476  0.801968  0.738772  2.256623  0.543
Cu  Cu1  1  0.57451080  0.86075785  0.96801130  1  0.863063  -0.728058  1.827371  -0.487  0.851251  -0.800474  2.212994  -0.603  0.936887  -0.884477  2.148149  -0.691  0.748415  0.801908  -0.738781  2.256625  -0.543
Mo  Mo2  1  0.43060076  0.40296376  0.27459693  1  2.166095  -0.002393  4.077632  -0.003  2.160754  -0.001497  4.623747  -0.002  2.26266  -0.001174  4.585214  -0.002  1.492601  2.08834  -0.001825  4.653887  -0.002
Mo  Mo3  1  0.56939816  0.59703858  0.72540394  1  2.166044  0.002352  4.077691  0.003  2.160689  0.001522  4.623826  0.002  2.262606  0.001174  4.585279  0.002  1.492595  2.088276  0.001826  4.653969  0.002
Mo  Mo4  1  0.31111935  0.46687770  0.50053233  1  2.246134  0.000113  4.057234  0.0  2.247359  4.8e-05  4.576052  0.0  2.349245  1.8e-05  4.540551  0.0  1.498527  2.170482  5.1e-05  4.610891  0.0
Mo  Mo5  1  0.68887997  0.53312254  0.49946834  1  2.246154  -2.4e-05  4.057078  0.0  2.247381  -1.4e-05  4.575884  0.0  2.349263  -2.2e-05  4.540387  0.0  1.498534  2.170509  -5.1e-05  4.610731  0.0
Mo  Mo6  1  0.41831983  0.19356878  0.45391754  1  2.185156  -5.6e-05  4.055707  0.0  2.17803  -3.6e-05  4.600153  0.0  2.279071  -1.5e-05  4.562033  0.0  1.494914  2.105105  -8.5e-05  4.632103  0.0
Mo  Mo7  1  0.58168055  0.80643147  0.54608117  1  2.185123  7.6e-05  4.055657  0.0  2.17799  1.6e-05  4.600119  0.0  2.27904  1.4e-05  4.561987  0.0  1.494902  2.10507  8.5e-05  4.632065  0.0
Mo  Mo8  1  0.30446841  0.67308447  0.31784553  1  2.18211  -6.2e-05  4.072338  0.0  2.18229  -3e-05  4.615081  0.0  2.280108  -1.5e-05  4.57979  0.0  1.50531  2.110058  -9.7e-05  4.647075  0.0
Mo  Mo9  1  0.69553051  0.32691787  0.68215316  1  2.182072  1.4e-05  4.07229  0.0  2.182264  3.9e-05  4.615014  0.0  2.280081  1.9e-05  4.579732  0.0  1.505335  2.110035  9.7e-05  4.647021  0.0
H  H10  1  0.14393330  0.25856262  0.62496085  1  0.314753  0.000148  0.88894  0.0  0.297691  0.000104  0.945128  0.0  0.306026  6.3e-05  0.937862  0.0  0.317486  0.291566  0.000172  0.950621  0.0
H  H11  1  0.85607401  0.74143971  0.37504472  1  0.314732  -0.000149  0.888897  0.0  0.297628  -0.000104  0.945151  0.0  0.305959  -6.3e-05  0.937894  0.0  0.317423  0.2915  -0.000172  0.950647  0.0
H  H12  1  0.73437912  0.03840720  0.44218051  1  0.31287  0.000153  0.894989  0.0  0.295756  0.000104  0.952484  0.0  0.304711  6.3e-05  0.944729  0.0  0.316194  0.289467  0.00018  0.957966  0.0
H  H13  1  0.26561858  0.96158781  0.55781619  1  0.31286  -0.000154  0.894915  0.0  0.295792  -0.000103  0.952348  0.0  0.304746  -6.3e-05  0.944596  0.0  0.316183  0.289502  -0.00018  0.957828  0.0
H  H14  1  0.31967168  0.94654190  0.13415322  1  0.104356  0.001122  0.946474  0.002  0.113396  0.000878  1.005199  0.002  0.115756  0.000602  1.002662  0.001  0.123243  0.111475  0.001083  1.007227  0.002
H  H15  1  0.68032611  0.05346359  0.86584711  1  0.104341  -0.001137  0.946468  -0.002  0.113383  -0.000878  1.005195  -0.002  0.115745  -0.000602  1.002658  -0.001  0.123225  0.111463  -0.001083  1.007225  -0.002
H  H16  1  0.09123443  0.77225656  0.11736069  1  0.112381  0.000227  0.983466  0.0  0.122041  0.000338  1.044984  0.0  0.124834  0.000237  1.044535  0.0  0.106064  0.119847  0.000404  1.045776  0.0
H  H17  1  0.90876797  0.22774683  0.88263816  1  0.112436  -0.000232  0.983404  0.0  0.122149  -0.000337  1.044871  0.0  0.124944  -0.000237  1.044417  0.0  0.106123  0.119956  -0.000404  1.045659  0.0
H  H18  1  0.86667392  0.71841238  0.95053210  1  0.104269  0.00054  0.952308  0.001  0.114245  0.000157  1.013526  0.0  0.116834  7.5e-05  1.011427  0.0  0.109725  0.112281  0.00028  1.015035  0.0
H  H19  1  0.13332993  0.28158891  0.04946822  1  0.104304  -0.000547  0.952244  -0.001  0.114261  -0.000157  1.013481  0.0  0.116855  -7.5e-05  1.011385  0.0  0.109738  0.112311  -0.00028  1.014967  0.0
H  H20  1  0.88598596  0.84593690  0.81728384  1  0.124345  0.000345  0.957502  0.0  0.13509  0.000455  1.014756  0.001  0.138024  0.00033  1.013373  0.0  0.11099  0.132869  0.000523  1.015983  0.001
H  H21  1  0.11401652  0.15406335  0.18271532  1  0.124419  -0.000349  0.957561  0.0  0.135119  -0.000455  1.014851  -0.001  0.138073  -0.00033  1.01344  0.0  0.111023  0.13287  -0.000524  1.016109  -0.001
H  H22  1  0.30657909  0.35766819  0.79405237  1  0.139853  -0.000551  0.968689  -0.001  0.149819  -7.6e-05  1.025248  0.0  0.154032  -6.3e-05  1.021543  0.0  0.131466  0.146749  -8.3e-05  1.027908  0.0
H  H23  1  0.69342190  0.64233413  0.20595477  1  0.139891  0.000554  0.968666  0.001  0.149848  7.6e-05  1.025238  0.0  0.154057  6.3e-05  1.02153  0.0  0.131451  0.146748  8.3e-05  1.02794  0.0
H  H24  1  0.93998231  0.89649750  0.69431615  1  0.123197  0.000338  0.950415  0.001  0.131021  3.4e-05  1.011573  0.0  0.134012  1.1e-05  1.010308  0.0  0.114145  0.128506  6.2e-05  1.013349  0.0
H  H25  1  0.06002832  0.10351217  0.30569041  1  0.123242  -0.00032  0.950218  -0.001  0.131077  -3.4e-05  1.011358  0.0  0.134063  -1.1e-05  1.010108  0.0  0.114176  0.128511  -6.2e-05  1.01319  0.0
H  H26  1  0.95318885  0.03934052  0.56733001  1  0.088614  -0.00041  0.965011  -0.001  0.097594  2.4e-05  1.03257  0.0  0.100114  1.2e-05  1.030897  0.0  0.120096  0.095749  6.4e-05  1.033762  0.0
H  H27  1  0.04681951  0.96066181  0.43267507  1  0.088687  0.000401  0.964928  0.001  0.097646  -2.3e-05  1.032543  0.0  0.100179  -1.2e-05  1.03084  0.0  0.120139  0.095802  -6.4e-05  1.033736  0.0
H  H28  1  0.52308920  0.32700528  0.92228666  1  0.093797  0.00104  0.959648  0.002  0.102081  0.000827  1.020834  0.002  0.104688  0.000561  1.017953  0.001  0.121125  0.100095  0.00105  1.023161  0.002
H  H29  1  0.47691196  0.67299076  0.07771603  1  0.093797  -0.001038  0.959642  -0.002  0.102078  -0.000828  1.020809  -0.002  0.104687  -0.00056  1.017931  -0.001  0.121114  0.10009  -0.00105  1.023134  -0.002
H  H30  1  0.74633854  0.50325301  0.93324368  1  0.110936  0.000204  0.973186  0.0  0.117209  0.00031  1.040163  0.0  0.120543  0.000223  1.038489  0.0  0.108602  0.115168  0.00039  1.040255  0.0
H  H31  1  0.25365535  0.49673989  0.06675557  1  0.110973  -0.000214  0.973161  0.0  0.117256  -0.000309  1.040112  0.0  0.120587  -0.000223  1.038444  0.0  0.10862  0.115213  -0.00039  1.040207  0.0
H  H32  1  0.97670853  0.56034763  0.09572299  1  0.09612  0.000474  0.962793  0.001  0.108327  0.00012  1.021022  0.0  0.11046  4.5e-05  1.019666  0.0  0.107394  0.106891  0.000224  1.022027  0.0
H  H33  1  0.02328813  0.43964738  0.90427422  1  0.096088  -0.000483  0.962795  -0.001  0.108302  -0.00012  1.021016  0.0  0.110434  -4.4e-05  1.019662  0.0  0.107366  0.106871  -0.000224  1.022021  0.0
H  H34  1  0.96818268  0.43391656  0.23132637  1  0.119548  0.000362  0.953745  0.0  0.129012  0.000467  1.01369  0.001  0.131918  0.000343  1.012651  0.0  0.110513  0.126837  0.000541  1.014684  0.001
H  H35  1  0.03181179  0.56608159  0.76867153  1  0.119567  -0.000354  0.953754  0.0  0.129029  -0.000467  1.013686  -0.001  0.131957  -0.000343  1.012618  0.0  0.110522  0.126859  -0.000541  1.014682  -0.001
H  H36  1  0.56735236  0.92987897  0.27635036  1  0.138101  -0.000495  0.957744  -0.001  0.148027  -5e-05  1.015147  0.0  0.152279  -4.3e-05  1.010966  0.0  0.131569  0.145102  -5.1e-05  1.017808  0.0
H  H37  1  0.43264908  0.07012129  0.72364494  1  0.138093  0.00049  0.95774  0.001  0.148029  5e-05  1.015124  0.0  0.152284  4.3e-05  1.010943  0.0  0.131557  0.145106  5.1e-05  1.017784  0.0
H  H38  1  0.91513269  0.39777310  0.35908942  1  0.122461  0.000288  0.941495  0.001  0.133264  2.8e-05  0.997851  0.0  0.135982  8e-06  0.996758  0.0  0.116447  0.131265  5.2e-05  0.998894  0.0
H  H39  1  0.08486016  0.60221981  0.64090669  1  0.122515  -0.000287  0.941281  -0.001  0.133271  -2.8e-05  0.997729  0.0  0.135986  -8e-06  0.99664  0.0  0.116491  0.131274  -5.2e-05  0.99877  0.0
H  H40  1  0.90853777  0.26743221  0.49503533  1  0.105327  -0.000386  0.933697  -0.001  0.116465  5e-06  0.992154  0.0  0.119148  -1e-06  0.990166  0.0  0.126468  0.114424  3.5e-05  0.99379  0.0
H  H41  1  0.09145712  0.73256385  0.50495946  1  0.105429  0.000389  0.933553  0.001  0.116469  -4e-06  0.992119  0.0  0.119221  2e-06  0.990035  0.0  0.126461  0.114426  -3.5e-05  0.993751  0.0
C  C42  1  0.22162651  0.92071574  0.06455391  1  0.150875  -0.010554  3.648495  -0.011  0.120857  -0.001825  3.902039  -0.003  0.129885  -0.003031  3.91977  -0.004  0.050719  0.115039  -0.000886  3.890657  -0.002
C  C43  1  0.77837314  0.07928556  0.93544406  1  0.150879  0.010603  3.648281  0.011  0.12082  0.001827  3.90184  0.003  0.129849  0.003031  3.919559  0.004  0.050735  0.114997  0.000886  3.890465  0.002
C  C44  1  0.09311081  0.82140058  0.05331444  1  -0.119765  0.014165  3.710312  0.014  -0.133493  0.004948  3.959914  0.005  -0.141737  0.00457  3.982164  0.005  -0.081701  -0.128294  0.005273  3.945848  0.006
C  C45  1  0.90689199  0.17860073  0.94668275  1  -0.119752  -0.014177  3.71019  -0.014  -0.13354  -0.00495  3.959811  -0.005  -0.141784  -0.00457  3.982069  -0.005  -0.081713  -0.128337  -0.005273  3.945749  -0.006
C  C46  1  0.97129266  0.79238013  0.96217295  1  0.013965  -0.011026  3.694418  -0.01  -0.005286  -0.002929  3.94428  -0.003  -6.7e-05  -0.00332  3.960922  -0.003  -0.06516  -0.008836  -0.002662  3.93361  -0.003
C  C47  1  0.02870771  0.20762011  0.03782649  1  0.013909  0.01105  3.694374  0.01  -0.005319  0.002927  3.94424  0.003  -0.000111  0.00332  3.960898  0.003  -0.065177  -0.008871  0.002661  3.933575  0.003
C  C48  1  0.98230841  0.86416504  0.88656700  1  -0.130575  0.014775  3.656264  0.015  -0.148943  0.005772  3.899066  0.007  -0.156642  0.005187  3.919748  0.006  -0.076573  -0.144471  0.006353  3.885402  0.007
C  C49  1  0.01769569  0.13584045  0.11343322  1  -0.130575  -0.014774  3.656264  -0.015  -0.148953  -0.005768  3.899017  -0.007  -0.156663  -0.005186  3.919685  -0.006  -0.076547  -0.14446  -0.006353  3.885357  -0.007
C  C50  1  0.11382313  0.96549778  0.90292821  1  0.205164  -0.006838  3.753524  -0.008  0.205707  0.000279  3.995304  -0.001  0.21483  -0.001076  4.016344  -0.002  0.116505  0.200178  0.001253  3.980914  0.0
C  C51  1  0.88617911  0.03451191  0.09707218  1  0.205164  0.006831  3.753464  0.008  0.205796  -0.000283  3.994994  0.001  0.214935  0.001075  4.016042  0.002  0.116479  0.200271  -0.001254  3.980594  0.0
C  C52  1  0.12134645  0.04816456  0.82606716  1  -0.055553  0.017072  3.717173  0.017  -0.05516  0.007021  3.958642  0.008  -0.058076  0.005561  3.981463  0.007  -0.000498  -0.053767  0.008617  3.944197  0.009
C  C53  1  0.87864680  0.95182625  0.17393021  1  -0.05553  -0.017062  3.717102  -0.017  -0.055085  -0.007023  3.958418  -0.008  -0.058065  -0.00556  3.981329  -0.007  -0.000472  -0.053698  -0.008617  3.943954  -0.009
C  C54  1  0.22568177  0.18450131  0.85704456  1  0.275798  -0.010365  3.87971  -0.014  0.270974  -0.000565  4.14764  -0.003  0.28509  -0.001538  4.16599  -0.004  0.096688  0.260665  0.000595  4.136799  -0.003
C  C55  1  0.77431004  0.81549159  0.14295133  1  0.275939  0.01036  3.880261  0.014  0.271055  0.000567  4.148199  0.003  0.285191  0.001539  4.166558  0.004  0.096695  0.260745  -0.000595  4.137346  0.003
C  C56  1  0.22631591  0.25660493  0.77799621  1  0.034028  0.019359  3.512891  0.018  -0.014296  0.006397  3.764909  0.007  -0.010995  0.004536  3.777447  0.005  0.055344  -0.016884  0.007627  3.757056  0.008
C  C57  1  0.77367389  0.74339848  0.22199703  1  0.033872  -0.019358  3.512982  -0.018  -0.014436  -0.006396  3.765005  -0.007  -0.011145  -0.004536  3.777559  -0.005  0.055233  -0.017006  -0.007628  3.757163  -0.008
C  C58  1  0.02237518  0.99857278  0.72140334  1  -0.117915  -0.011218  3.728711  -0.011  -0.138306  -0.002191  3.991782  -0.003  -0.142334  -0.002415  4.014523  -0.003  -0.074017  -0.136077  -0.001982  3.977946  -0.002
C  C59  1  0.97762802  0.00142641  0.27859802  1  -0.118092  0.011183  3.728502  0.011  -0.138488  0.002191  3.991538  0.003  -0.142503  0.002414  4.014302  0.003  -0.074056  -0.136221  0.001982  3.97771  0.002
C  C60  1  0.02818833  0.07552985  0.64859330  1  0.093065  0.015389  3.663034  0.014  0.04022  0.005521  3.939562  0.005  0.044558  0.004632  3.957024  0.005  0.033236  0.036937  0.006507  3.92845  0.006
C  C61  1  0.97181833  0.92447037  0.35141404  1  0.092979  -0.01538  3.663079  -0.014  0.040095  -0.005519  3.939678  -0.005  0.044438  -0.00463  3.957139  -0.005  0.033085  0.036811  -0.006504  3.92855  -0.006
C  C62  1  0.62352774  0.35327291  0.98977933  1  0.154637  -0.009903  3.651064  -0.01  0.12521  -0.001655  3.904717  -0.002  0.13541  -0.002868  3.919483  -0.004  0.054335  0.118258  -0.000945  3.894588  -0.002
C  C63  1  0.37647084  0.64672838  0.01022351  1  0.154624  0.009879  3.6511  0.01  0.125232  0.001662  3.904722  0.002  0.135429  0.002867  3.919484  0.004  0.054351  0.118287  0.000944  3.894586  0.002
C  C64  1  0.74925650  0.45342207  0.99727030  1  -0.100246  0.013159  3.701524  0.013  -0.116222  0.004436  3.955143  0.005  -0.121943  0.004199  3.973406  0.005  -0.078204  -0.110224  0.00458  3.940558  0.005
C  C65  1  0.25074111  0.54657607  0.00273191  1  -0.100287  -0.013112  3.701477  -0.013  -0.116284  -0.004442  3.955101  -0.005  -0.122004  -0.004197  3.973363  -0.005  -0.078198  -0.110283  -0.00458  3.940519  -0.005
C  C66  1  0.87460839  0.48388349  0.08584741  1  -0.001383  -0.010997  3.729551  -0.01  -0.018099  -0.003178  3.976742  -0.003  -0.013567  -0.003466  3.994298  -0.003  -0.06759  -0.021247  -0.002863  3.964708  -0.003
C  C67  1  0.12539409  0.51611676  0.91415175  1  -0.001427  0.010991  3.729639  0.01  -0.018147  0.003177  3.976847  0.003  -0.013617  0.003464  3.994409  0.003  -0.067586  -0.021294  0.002863  3.964818  0.003
C  C68  1  0.86963996  0.41341434  0.16306834  1  -0.138091  0.014162  3.674764  0.014  -0.156337  0.005386  3.918162  0.006  -0.164237  0.004921  3.939415  0.006  -0.076962  -0.151798  0.005818  3.903724  0.007
C  C69  1  0.13035143  0.58658066  0.83692920  1  -0.13786  -0.014162  3.674901  -0.014  -0.156124  -0.005383  3.918273  -0.006  -0.164039  -0.004918  3.939521  -0.006  -0.076916  -0.151594  -0.005818  3.903845  -0.007
C  C70  1  0.73967721  0.31286633  0.15131097  1  0.224681  -0.007119  3.728503  -0.008  0.224194  -9.8e-05  3.971348  -0.001  0.233642  -0.001323  3.991855  -0.002  0.121169  0.218528  0.000809  3.956863  0.0
C  C71  1  0.26031846  0.68712551  0.84868997  1  0.224353  0.007103  3.728554  0.008  0.223896  9.8e-05  3.971329  0.001  0.233336  0.001321  3.991847  0.002  0.121159  0.218239  -0.000809  3.956843  0.0
C  C72  1  0.73603098  0.23648146  0.23212117  1  -0.052724  0.01501  3.693633  0.015  -0.055482  0.005821  3.940713  0.007  -0.057795  0.004552  3.961791  0.006  -0.002827  -0.053861  0.007353  3.926394  0.008
C  C73  1  0.26397238  0.76352507  0.76788340  1  -0.052716  -0.015015  3.693194  -0.015  -0.055421  -0.005822  3.940174  -0.007  -0.057724  -0.004549  3.961241  -0.005  -0.002825  -0.053804  -0.007355  3.925859  -0.008
C  C74  1  0.63308179  0.10124927  0.20760478  1  0.286569  -0.008823  3.861201  -0.012  0.280671  -0.000212  4.130884  -0.003  0.29393  -0.001156  4.148904  -0.003  0.095566  0.270909  0.000799  4.119468  -0.002
C  C75  1  0.36692892  0.89875726  0.79240063  1  0.286671  0.008816  3.861533  0.012  0.280746  0.000211  4.131189  0.003  0.294005  0.001153  4.149206  0.003  0.095503  0.270985  -0.000799  4.119777  0.002
C  C76  1  0.64173610  0.03346984  0.28959439  1  0.047046  0.017205  3.524449  0.017  0.003145  0.005832  3.771755  0.007  0.008441  0.004112  3.782981  0.005  0.057543  0.000134  0.006898  3.763986  0.008
C  C77  1  0.35827338  0.96652933  0.71041487  1  0.046933  -0.01719  3.524629  -0.017  0.00298  -0.005837  3.772054  -0.007  0.008273  -0.00411  3.783269  -0.005  0.057488  -3.1e-05  -0.006898  3.764282  -0.008
C  C78  1  0.83718995  0.29380735  0.33603991  1  -0.10636  -0.009922  3.702155  -0.009  -0.130589  -0.001827  3.970516  -0.002  -0.133768  -0.001973  3.990215  -0.002  -0.074162  -0.128276  -0.001676  3.957285  -0.002
C  C79  1  0.16281034  0.70619604  0.66395994  1  -0.106425  0.009935  3.701753  0.009  -0.130637  0.001825  3.970059  0.002  -0.133827  0.001969  3.989786  0.002  -0.074178  -0.128329  0.001676  3.956836  0.002
C  C80  1  0.83726382  0.22342085  0.41306265  1  0.10196  0.013173  3.63502  0.012  0.049259  0.004146  3.913753  0.004  0.054455  0.003487  3.929544  0.003  0.034574  0.045972  0.005136  3.902887  0.005
C  C81  1  0.16273511  0.77658151  0.58693312  1  0.101823  -0.013202  3.635022  -0.012  0.049212  -0.004145  3.913731  -0.004  0.054364  -0.003483  3.929509  -0.003  0.034536  0.045927  -0.005136  3.902862  -0.005
N  N82  1  0.23248325  0.99143621  0.99194553  1  -0.327374  0.081641  3.270058  0.095  -0.281602  0.055914  3.553301  0.071  -0.310178  0.047501  3.573321  0.064  -0.339298  -0.264716  0.05971  3.541457  0.073
N  N83  1  0.76752068  0.00857557  0.00805842  1  -0.327554  -0.081658  3.270025  -0.095  -0.281722  -0.055915  3.553132  -0.071  -0.310289  -0.047499  3.573145  -0.064  -0.3394  -0.264832  -0.059715  3.541272  -0.073
N  N84  1  0.13176061  0.20095178  0.67896560  1  -0.176179  -0.006485  3.516344  -0.008  -0.103291  -0.000982  3.743413  -0.002  -0.115169  -0.001398  3.760606  -0.002  -0.342273  -0.095342  -0.000574  3.732122  -0.001
N  N85  1  0.86824106  0.79905267  0.32103105  1  -0.17605  0.006492  3.516182  0.009  -0.103125  0.000981  3.743259  0.002  -0.114998  0.001398  3.760457  0.002  -0.342091  -0.095178  0.000575  3.73196  0.001
N  N86  1  0.61769617  0.28420885  0.06393581  1  -0.327983  0.080403  3.265994  0.094  -0.284515  0.055116  3.554002  0.071  -0.312731  0.046916  3.572121  0.063  -0.336379  -0.267381  0.058738  3.543253  0.073
N  N87  1  0.38229877  0.71578405  0.93606366  1  -0.3278  -0.08039  3.266069  -0.094  -0.284348  -0.055119  3.554039  -0.071  -0.312552  -0.046911  3.572154  -0.063  -0.336342  -0.267219  -0.058738  3.543277  -0.073
N  N88  1  0.73945433  0.09514729  0.38667542  1  -0.190445  -0.005438  3.5428  -0.007  -0.11768  -0.000661  3.767823  -0.001  -0.130048  -0.000994  3.784766  -0.001  -0.348053  -0.109399  -0.000364  3.756257  -0.001
N  N89  1  0.26055023  0.90485293  0.61333147  1  -0.190387  0.005443  3.54276  0.007  -0.117643  0.000663  3.767748  0.001  -0.130017  0.000991  3.784722  0.001  -0.347994  -0.109359  0.000364  3.756173  0.001
O  O90  1  0.53374229  0.03391127  0.11500323  1  -0.580208  0.091797  2.180631  0.112  -0.570526  0.059284  2.494695  0.08  -0.613306  0.045726  2.492696  0.065  -0.33556  -0.542855  0.068347  2.497007  0.09
O  O91  1  0.46626544  0.96608898  0.88499560  1  -0.580215  -0.091786  2.180926  -0.112  -0.570524  -0.059275  2.495037  -0.08  -0.613298  -0.045717  2.493034  -0.065  -0.335522  -0.54286  -0.068335  2.497347  -0.089
O  O92  1  0.31890688  0.24694516  0.95209205  1  -0.549912  0.095802  2.137155  0.119  -0.528719  0.061363  2.423054  0.085  -0.571791  0.047218  2.425135  0.069  -0.330129  -0.500992  0.070937  2.421946  0.094
O  O93  1  0.68108612  0.75305507  0.04791164  1  -0.549875  -0.095804  2.137297  -0.119  -0.528687  -0.061359  2.423243  -0.085  -0.571742  -0.047213  2.425307  -0.069  -0.330043  -0.500962  -0.070934  2.422122  -0.094
O  O94  1  0.54698939  0.49270469  0.22274690  1  -0.667944  -0.000425  1.493218  0.0  -0.665592  -0.000377  1.749256  0.0  -0.691566  -0.000316  1.741628  0.0  -0.504848  -0.647497  -0.000428  1.755004  0.0
O  O95  1  0.45300864  0.50729137  0.77724929  1  -0.667897  0.000435  1.493234  0.0  -0.665538  0.000365  1.749253  0.0  -0.691517  0.000318  1.741626  0.0  -0.504838  -0.647453  0.000428  1.755002  0.0
O  O96  1  0.30272882  0.31084829  0.38983550  1  -0.954615  -4e-05  1.787911  0.0  -0.945583  -2.7e-05  2.078588  0.0  -0.987835  -1.8e-05  2.073223  0.0  -0.59507  -0.913773  -3.1e-05  2.082188  0.0
O  O97  1  0.69727155  0.68915196  0.61016395  1  -0.954598  3e-05  1.787936  0.0  -0.945547  2.7e-05  2.078576  0.0  -0.987811  1.9e-05  2.073235  0.0  -0.595057  -0.913743  3.1e-05  2.082188  0.0
O  O98  1  0.35619985  0.23833686  0.18814503  1  -0.691333  -0.000293  1.538297  0.001  -0.697273  -0.000581  1.825268  0.001  -0.725252  -0.000661  1.812737  0.0  -0.507385  -0.67838  -0.000465  1.834927  0.001
O  O99  1  0.64379810  0.76166233  0.81185593  1  -0.691345  0.000312  1.53835  -0.001  -0.697281  0.000579  1.825324  -0.001  -0.725259  0.00066  1.812797  0.0  -0.507413  -0.678389  0.000465  1.834986  -0.001
O  O100  1  0.27112001  0.48094646  0.24181220  1  -0.876559  7e-05  1.717975  0.0  -0.869743  9e-06  2.00952  0.0  -0.910966  1.5e-05  2.003439  0.0  -0.588464  -0.839568  -4.7e-05  2.013488  0.0
O  O101  1  0.72887761  0.51905169  0.75818636  1  -0.876543  -8.2e-05  1.718039  0.0  -0.869738  -2.1e-05  2.009605  0.0  -0.910965  -1.6e-05  2.003528  0.0  -0.588471  -0.83956  4.7e-05  2.013574  0.0
O  O102  1  0.57405243  0.36120724  0.39028793  1  -0.946538  6.6e-05  1.83837  0.0  -0.938326  3.5e-05  2.132958  0.0  -0.982272  2.7e-05  2.132444  0.0  -0.591821  -0.905452  5.5e-05  2.13291  0.0
O  O103  1  0.42594697  0.63878987  0.60970943  1  -0.946511  -6.4e-05  1.838444  0.0  -0.938294  -4e-05  2.133026  0.0  -0.982245  -2.8e-05  2.132514  0.0  -0.591813  -0.905422  -5.5e-05  2.132977  0.0
O  O104  1  0.39288874  0.07056685  0.34234604  1  -0.63112  0.000172  1.431726  0.0  -0.622117  4.6e-05  1.674596  0.0  -0.646997  3.3e-05  1.666051  0.0  -0.492346  -0.604604  1.6e-05  1.681354  0.0
O  O105  1  0.60711131  0.92943234  0.65765392  1  -0.631075  -0.000169  1.431699  0.0  -0.622081  -2.6e-05  1.674577  0.0  -0.646965  -3.3e-05  1.66603  0.0  -0.492312  -0.604574  -1.6e-05  1.681333  0.0
O  O106  1  0.19272066  0.38277587  0.55514726  1  -0.721173  3.8e-05  1.467651  0.0  -0.709038  2.1e-05  1.709991  0.0  -0.732844  1.8e-05  1.698521  0.0  -0.516825  -0.691164  7.5e-05  1.71956  0.0
O  O107  1  0.80727906  0.61722228  0.44485176  1  -0.721203  -3.3e-05  1.46759  0.0  -0.709041  -2.1e-05  1.709912  0.0  -0.73285  -1.6e-05  1.698448  0.0  -0.516829  -0.691163  -7.5e-05  1.719481  0.0
O  O108  1  0.20620152  0.54534696  0.41454068  1  -0.779746  -9.8e-05  1.610843  0.0  -0.775532  -4.4e-05  1.883549  0.0  -0.806125  -2.9e-05  1.873673  0.0  -0.543761  -0.752574  -2.1e-05  1.891489  0.0
O  O109  1  0.79379610  0.45465118  0.58545789  1  -0.779758  3e-05  1.610904  0.0  -0.775547  2.4e-05  1.883611  0.0  -0.806126  3e-05  1.873714  0.0  -0.543761  -0.752596  2.1e-05  1.89157  0.0
O  O110  1  0.30086623  0.11234094  0.51136930  1  -0.741921  -1e-06  1.485558  0.0  -0.736321  -1e-06  1.744547  0.0  -0.764826  1e-06  1.734236  0.0  -0.528393  -0.716069  -4.9e-05  1.752616  0.0
O  O111  1  0.69913341  0.88766036  0.48863086  1  -0.741914  -2.9e-05  1.485504  0.0  -0.7363  -2e-06  1.744503  0.0  -0.764803  0.0  1.734192  0.0  -0.5284  -0.716042  4.8e-05  1.752557  0.0
O  O112  1  0.60534883  0.19710373  0.54320195  1  -0.866508  7.3e-05  1.733573  0.0  -0.868421  2.4e-05  2.035252  0.0  -0.910342  1.2e-05  2.029602  0.0  -0.58569  -0.837675  4.7e-05  2.03936  0.0
O  O113  1  0.39464985  0.80289443  0.45679611  1  -0.866561  -7.1e-05  1.733666  0.0  -0.86846  -2.7e-05  2.035311  0.0  -0.91038  -1.1e-05  2.02966  0.0  -0.585706  -0.837715  -4.7e-05  2.039415  0.0
O  O114  1  0.41728997  0.75038456  0.25751292  1  -0.68295  -6.2e-05  1.465142  0.0  -0.685939  -5.3e-05  1.723381  0.0  -0.712492  -4.5e-05  1.715007  0.0  -0.508347  -0.66676  -3.8e-05  1.729466  0.0
O  O115  1  0.58270855  0.24961988  0.74248670  1  -0.682965  9.1e-05  1.465124  0.0  -0.685931  5.2e-05  1.723335  0.0  -0.712486  4.2e-05  1.714962  0.0  -0.508379  -0.666745  3.8e-05  1.729416  0.0
O  O116  1  0.49482581  0.58202882  0.42761154  1  -1.220225  -3e-06  1.867198  0.0  -1.199626  -1e-05  2.143733  0.0  -1.24708  -6e-06  2.142214  0.0  -0.618069  -1.16296  -2e-06  2.144264  0.0
O  O117  1  0.50517318  0.41797038  0.57238820  1  -1.220249  1e-06  1.867217  0.0  -1.199651  6e-06  2.143758  0.0  -1.247103  7e-06  2.142236  0.0  -0.618073  -1.162988  2e-06  2.144293  0.0
O  O118  1  0.14078361  0.70725823  0.26660856  1  -0.685908  -8e-05  1.435968  0.0  -0.678906  -1.4e-05  1.676975  0.0  -0.704635  -1.9e-05  1.668133  0.0  -0.516595  -0.659897  1.5e-05  1.683729  0.0
O  O119  1  0.85921579  0.29273887  0.73339024  1  -0.685874  0.000115  1.435876  0.0  -0.678913  2.3e-05  1.676919  0.0  -0.704643  1.7e-05  1.668076  0.0  -0.516577  -0.659907  -1.5e-05  1.683692  0.0
