# generated using pymatgen
data_Sm2H16C12S3O14
_symmetry_space_group_name_H-M   'P 1'
_cell_length_a   8.00214454
_cell_length_b   10.57823665
_cell_length_c   14.33944395
_cell_angle_alpha   71.40873364
_cell_angle_beta   75.74367851
_cell_angle_gamma   77.11757949
_symmetry_Int_Tables_number   1
_chemical_formula_structural   Sm2H16C12S3O14
_chemical_formula_sum   'Sm4 H32 C24 S6 O28'
_cell_volume   1101.17325773
_cell_formula_units_Z   2
loop_
 _symmetry_equiv_pos_site_id
 _symmetry_equiv_pos_as_xyz
  1  'x, y, z'
loop_
 _atom_site_type_symbol
 _atom_site_label
 _atom_site_symmetry_multiplicity
 _atom_site_fract_x
 _atom_site_fract_y
 _atom_site_fract_z
 _atom_site_occupancy
 _atom_site_hle17_bader_spin_density
 _atom_site_hle17_ddec_charge
 _atom_site_hle17_ddec_spin_density
 _atom_site_hle17_ddec_sum_bond_order
 _atom_site_hle17_magmom
 _atom_site_hse06_10hf_bader_spin_density
 _atom_site_hse06_10hf_ddec_charge
 _atom_site_hse06_10hf_ddec_spin_density
 _atom_site_hse06_10hf_ddec_sum_bond_order
 _atom_site_hse06_10hf_magmom
 _atom_site_hse06_bader_spin_density
 _atom_site_hse06_ddec_charge
 _atom_site_hse06_ddec_spin_density
 _atom_site_hse06_ddec_sum_bond_order
 _atom_site_hse06_magmom
 _atom_site_pbe_bader_spin_density
 _atom_site_pbe_cm5_charge
 _atom_site_pbe_ddec_charge
 _atom_site_pbe_ddec_spin_density
 _atom_site_pbe_ddec_sum_bond_order
 _atom_site_pbe_magmom
Sm  Sm0  1  0.59041093  0.59232636  0.35838544  1  0  2.261205  0  1.717531  0  0  2.100107  0  2.188658  0  0  2.210525  0  2.025855  0  0  1.468139  2.063312  0  2.223417  0
Sm  Sm1  1  0.40958605  0.40767235  0.64161537  1  0  2.261174  0  1.717512  0  0  2.100106  0  2.188584  0  0  2.210492  0  2.025844  0  0  1.468128  2.063279  0  2.223404  0
Sm  Sm2  1  0.00666112  0.80238349  0.09715536  1  0  2.292044  0  1.589298  0  0  2.135749  0  2.052085  0  0  2.247237  0  1.885967  0  0  1.496208  2.101856  0  2.084032  0
Sm  Sm3  1  0.99333930  0.19761725  0.90284518  1  0  2.292027  0  1.589339  0  0  2.135755  0  2.052104  0  0  2.247222  0  1.886017  0  0  1.496203  2.101862  0  2.084059  0
H  H4  1  0.93197417  0.32649674  0.24495729  1  0  0.141664  0  0.936892  0  0  0.146322  0  1.007713  0  0  0.150065  0  1.004749  0  0  0.110191  0.143709  0  1.009713  0
H  H5  1  0.06802344  0.67349896  0.75504556  1  0  0.141677  0  0.936816  0  0  0.146315  0  1.007637  0  0  0.150061  0  1.004668  0  0  0.110201  0.143704  0  1.00964  0
H  H6  1  0.91247264  0.36069006  0.11743820  1  0  0.158885  0  0.927414  0  0  0.168977  0  0.983376  0  0  0.17263  0  0.981176  0  0  0.116623  0.166401  0  0.984995  0
H  H7  1  0.08752713  0.63930767  0.88256525  1  0  0.158928  0  0.927353  0  0  0.168979  0  0.983339  0  0  0.172631  0  0.981141  0  0  0.116632  0.166404  0  0.984959  0
H  H8  1  0.65416142  0.56524528  0.06539093  1  0  0.164566  0  0.902434  0  0  0.181264  0  0.95298  0  0  0.184403  0  0.950915  0  0  0.126762  0.179076  0  0.954449  0
H  H9  1  0.34584012  0.43476257  0.93461054  1  0  0.164599  0  0.902387  0  0  0.181289  0  0.952968  0  0  0.184434  0  0.950891  0  0  0.126795  0.1791  0  0.954439  0
H  H10  1  0.48443256  0.46920537  0.08992546  1  0  0.132984  0  0.929118  0  0  0.144304  0  0.991368  0  0  0.14699  0  0.989648  0  0  0.108333  0.142593  0  0.992229  0
H  H11  1  0.51557497  0.53079841  0.91007129  1  0  0.133035  0  0.929013  0  0  0.144381  0  0.991255  0  0  0.147069  0  0.989532  0  0  0.108366  0.14267  0  0.992114  0
H  H12  1  0.94570321  0.54818838  0.60684220  1  0  0.148544  0  0.937602  0  0  0.15774  0  0.997336  0  0  0.161634  0  0.995356  0  0  0.115126  0.154965  0  0.998741  0
H  H13  1  0.05429377  0.45181033  0.39315861  1  0  0.148525  0  0.937597  0  0  0.157743  0  0.997335  0  0  0.161638  0  0.995357  0  0  0.115118  0.154967  0  0.998742  0
H  H14  1  0.73126796  0.58536005  0.67526895  1  0  0.128966  0  0.933021  0  0  0.142269  0  0.99025  0  0  0.144554  0  0.989271  0  0  0.108537  0.140646  0  0.990964  0
H  H15  1  0.26873052  0.41463766  0.32473189  1  0  0.128944  0  0.932968  0  0  0.14226  0  0.99021  0  0  0.144547  0  0.989232  0  0  0.10854  0.140638  0  0.990921  0
H  H16  1  0.00905006  0.84128392  0.42781471  1  0  0.127856  0  0.941739  0  0  0.13907  0  1.002282  0  0  0.142679  0  0.999086  0  0  0.103865  0.136636  0  1.004284  0
H  H17  1  0.99094734  0.15871276  0.57218513  1  0  0.1278  0  0.941767  0  0  0.139029  0  1.002311  0  0  0.142636  0  0.999114  0  0  0.103858  0.136597  0  1.004314  0
H  H18  1  0.08736946  0.90146198  0.50816955  1  0  0.126026  0  0.922412  0  0  0.145096  0  0.973622  0  0  0.146606  0  0.973022  0  0  0.110062  0.144012  0  0.974076  0
H  H19  1  0.91262839  0.09853874  0.49182927  1  0  0.126092  0  0.922354  0  0  0.145156  0  0.973582  0  0  0.146674  0  0.972973  0  0  0.11009  0.144072  0  0.974037  0
H  H20  1  0.58472713  0.12913154  0.27549987  1  0  0.126237  0  0.942945  0  0  0.136417  0  1.005709  0  0  0.139083  0  1.004204  0  0  0.100681  0.13457  0  1.006647  0
H  H21  1  0.41527588  0.87086922  0.72450031  1  0  0.126217  0  0.942865  0  0  0.136395  0  1.005639  0  0  0.13906  0  1.004134  0  0  0.10067  0.134549  0  1.006574  0
H  H22  1  0.41336886  0.02860750  0.32676842  1  0  0.119877  0  0.952993  0  0  0.126825  0  1.019302  0  0  0.130003  0  1.017039  0  0  0.096568  0.124665  0  1.020727  0
H  H23  1  0.58663285  0.97139324  0.67323055  1  0  0.119852  0  0.952977  0  0  0.126806  0  1.019283  0  0  0.129984  0  1.017019  0  0  0.096572  0.124647  0  1.020707  0
H  H24  1  0.43277246  0.95403247  0.11472322  1  0  0.140192  0  0.905852  0  0  0.155245  0  0.95856  0  0  0.15797  0  0.957616  0  0  0.119612  0.153419  0  0.958976  0
H  H25  1  0.56723030  0.04596325  0.88527960  1  0  0.140168  0  0.905861  0  0  0.155184  0  0.958623  0  0  0.157905  0  0.957683  0  0  0.119593  0.153355  0  0.959045  0
H  H26  1  0.24401657  0.98309633  0.20459806  1  0  0.142242  0  0.905086  0  0  0.158772  0  0.955311  0  0  0.161624  0  0.953734  0  0  0.120076  0.156782  0  0.95641  0
H  H27  1  0.75598365  0.01690541  0.79540088  1  0  0.142207  0  0.905131  0  0  0.158785  0  0.95531  0  0  0.161638  0  0.953729  0  0  0.120063  0.156792  0  0.956411  0
H  H28  1  0.18746569  0.73091322  0.27139917  1  0  0.447695  0  0.847533  0  0  0.416373  0  0.912118  0  0  0.427622  0  0.895839  0  0  0.304906  0.408502  0  0.923625  0
H  H29  1  0.81252874  0.26909155  0.72859984  1  0  0.447744  0  0.847448  0  0  0.416408  0  0.912061  0  0  0.427659  0  0.895779  0  0  0.304899  0.408537  0  0.923568  0
H  H30  1  0.98620887  0.72747968  0.32582492  1  0  0.456146  0  0.830263  0  0  0.427929  0  0.888712  0  0  0.438265  0  0.873712  0  0  0.31127  0.420728  0  0.899304  0
H  H31  1  0.01378727  0.27252306  0.67417434  1  0  0.456162  0  0.830236  0  0  0.42795  0  0.888674  0  0  0.438287  0  0.873671  0  0  0.311267  0.420751  0  0.899262  0
H  H32  1  0.19299765  0.89375649  0.88802677  1  0  0.427023  0  0.885617  0  0  0.395709  0  0.950442  0  0  0.406996  0  0.934497  0  0  0.294913  0.38755  0  0.962205  0
H  H33  1  0.80699933  0.10624221  0.11197265  1  0  0.427015  0  0.885622  0  0  0.395715  0  0.950443  0  0  0.407002  0  0.934498  0  0  0.294903  0.387557  0  0.962205  0
H  H34  1  0.29088899  0.75871145  0.94791337  1  0  0.411827  0  0.882305  0  0  0.380436  0  0.960372  0  0  0.390502  0  0.945644  0  0  0.294824  0.373046  0  0.971342  0
H  H35  1  0.70911036  0.24128827  0.05208687  1  0  0.41183  0  0.882298  0  0  0.38044  0  0.960366  0  0  0.390506  0  0.945637  0  0  0.294821  0.37305  0  0.971335  0
C  C36  1  0.92247345  0.53368872  0.16331268  1  0  0.737532  0  3.844681  0  0  0.695298  0  4.137199  0  0  0.727759  0  4.137342  0  0  0.209779  0.672599  0  4.142142  0
C  C37  1  0.07753879  0.46631102  0.83668369  1  0  0.737573  0  3.844489  0  0  0.695276  0  4.137075  0  0  0.727738  0  4.137211  0  0  0.209777  0.672577  0  4.142018  0
C  C38  1  0.86890775  0.39797521  0.18385260  1  0  -0.310723  0  3.617675  0  0  -0.337345  0  3.864716  0  0  -0.342484  0  3.868852  0  0  -0.143663  -0.333517  0  3.86179  0
C  C39  1  0.13109417  0.60202455  0.81614937  1  0  -0.310804  0  3.617709  0  0  -0.337267  0  3.864564  0  0  -0.342426  0  3.868747  0  0  -0.143653  -0.333437  0  3.861625  0
C  C40  1  0.41486901  0.63557336  0.15348164  1  0  0.777435  0  3.803541  0  0  0.730123  0  4.102002  0  0  0.764892  0  4.095075  0  0  0.240238  0.706646  0  4.108345  0
C  C41  1  0.58512863  0.36442836  0.84651626  1  0  0.777386  0  3.803613  0  0  0.730053  0  4.102131  0  0  0.764821  0  4.095208  0  0  0.240238  0.706577  0  4.10847  0
C  C42  1  0.54841089  0.52086774  0.12341996  1  0  -0.320219  0  3.58093  0  0  -0.354315  0  3.836109  0  0  -0.359031  0  3.840389  0  0  -0.142877  -0.351194  0  3.833434  0
C  C43  1  0.45159149  0.47913604  0.87657889  1  0  -0.32029  0  3.580836  0  0  -0.354458  0  3.836154  0  0  -0.359172  0  3.840432  0  0  -0.142962  -0.351338  0  3.833478  0
C  C44  1  0.74495963  0.61666070  0.51857138  1  0  0.757898  0  3.803527  0  0  0.711857  0  4.099531  0  0  0.746055  0  4.095405  0  0  0.218583  0.688292  0  4.105979  0
C  C45  1  0.25503971  0.38333902  0.48142747  1  0  0.757971  0  3.803616  0  0  0.711995  0  4.099555  0  0  0.7462  0  4.095422  0  0  0.218655  0.688432  0  4.106002  0
C  C46  1  0.82159621  0.61825973  0.60444942  1  0  -0.304027  0  3.602495  0  0  -0.331561  0  3.852933  0  0  -0.336489  0  3.855286  0  0  -0.145688  -0.327893  0  3.850512  0
C  C47  1  0.17840206  0.38173898  0.39555052  1  0  -0.303914  0  3.602292  0  0  -0.331543  0  3.852799  0  0  -0.336488  0  3.855177  0  0  -0.14567  -0.327876  0  3.850378  0
C  C48  1  0.20319155  0.70104570  0.50521822  1  0  0.770623  0  3.805659  0  0  0.729438  0  4.097096  0  0  0.763912  0  4.090695  0  0  0.229102  0.706296  0  4.102725  0
C  C49  1  0.79680456  0.29895103  0.49478737  1  0  0.770667  0  3.805429  0  0  0.729499  0  4.096859  0  0  0.763967  0  4.090471  0  0  0.22914  0.706371  0  4.102466  0
C  C50  1  0.04486494  0.81301377  0.50161590  1  0  -0.31458  0  3.655814  0  0  -0.349595  0  3.918377  0  0  -0.353334  0  3.921079  0  0  -0.154892  -0.346821  0  3.915523  0
C  C51  1  0.95513333  0.18698494  0.49838404  1  0  -0.314542  0  3.655773  0  0  -0.349605  0  3.918404  0  0  -0.353345  0  3.921103  0  0  -0.154904  -0.346835  0  3.915551  0
C  C52  1  0.63975184  0.93675547  0.24173899  1  0  0.783455  0  3.789847  0  0  0.743354  0  4.076072  0  0  0.777565  0  4.069327  0  0  0.242268  0.720218  0  4.082281  0
C  C53  1  0.36024796  0.06324828  0.75825744  1  0  0.783419  0  3.78962  0  0  0.74327  0  4.075922  0  0  0.777477  0  4.069178  0  0  0.242246  0.720136  0  4.08213  0
C  C54  1  0.51461497  0.06087520  0.26115927  1  0  -0.327071  0  3.656326  0  0  -0.35724  0  3.905348  0  0  -0.362688  0  3.909868  0  0  -0.154475  -0.353371  0  3.901341  0
C  C55  1  0.48538675  0.93912555  0.73884040  1  0  -0.327017  0  3.656174  0  0  -0.357168  0  3.90521  0  0  -0.362612  0  3.909726  0  0  -0.154453  -0.353301  0  3.901201  0
C  C56  1  0.22205317  0.08709154  0.05269542  1  0  0.757991  0  3.820584  0  0  0.716303  0  4.110164  0  0  0.749964  0  4.10744  0  0  0.221246  0.693171  0  4.115831  0
C  C57  1  0.77795113  0.91290922  0.94730528  1  0  0.758081  0  3.820512  0  0  0.716383  0  4.110137  0  0  0.750047  0  4.107405  0  0  0.221238  0.693248  0  4.115807  0
C  C58  1  0.32728038  0.03312737  0.13512991  1  0  -0.303507  0  3.609852  0  0  -0.334343  0  3.864342  0  0  -0.339402  0  3.868081  0  0  -0.140639  -0.330608  0  3.860778  0
C  C59  1  0.67272175  0.96687137  0.86487158  1  0  -0.303455  0  3.609884  0  0  -0.334296  0  3.864379  0  0  -0.339352  0  3.868115  0  0  -0.140585  -0.330552  0  3.860804  0
S  S60  1  0.63732637  0.40006091  0.22864769  1  0  0.004559  0  2.461382  0  0  0.008879  0  2.811827  0  0  0.002061  0  2.806834  0  0  0.004727  0.010281  0  2.814366  0
S  S61  1  0.36267235  0.59994186  0.77135261  1  0  0.00456  0  2.46147  0  0  0.008875  0  2.811887  0  0  0.002068  0  2.806899  0  0  0.00472  0.010284  0  2.814426  0
S  S62  1  0.85910124  0.78247339  0.60208701  1  0  0.018875  0  2.335008  0  0  0.013294  0  2.675707  0  0  0.01239  0  2.670826  0  0  -0.020027  0.01432  0  2.678722  0
S  S63  1  0.14089853  0.21752429  0.39791157  1  0  0.018807  0  2.334863  0  0  0.013268  0  2.675594  0  0  0.012365  0  2.670721  0  0  -0.020031  0.014295  0  2.678608  0
S  S64  1  0.41549778  0.16419852  0.15483729  1  0  0.029086  0  2.336375  0  0  0.026744  0  2.680571  0  0  0.026373  0  2.676452  0  0  -0.010069  0.027575  0  2.682904  0
S  S65  1  0.58450543  0.83580122  0.84516242  1  0  0.029072  0  2.336362  0  0  0.026729  0  2.680557  0  0  0.02636  0  2.676434  0  0  -0.010072  0.027561  0  2.682885  0
O  O66  1  0.83267311  0.61772059  0.21280928  1  0  -0.841099  0  2.10113  0  0  -0.786435  0  2.365334  0  0  -0.826739  0  2.353933  0  0  -0.432473  -0.768176  0  2.37215  0
O  O67  1  0.16733310  0.38227717  0.78719397  1  0  -0.841116  0  2.101236  0  0  -0.786472  0  2.365526  0  0  -0.826763  0  2.354125  0  0  -0.432474  -0.768209  0  2.372344  0
O  O68  1  0.05493942  0.56444058  0.09718870  1  0  -0.647712  0  1.906941  0  0  -0.600917  0  2.133491  0  0  -0.630993  0  2.124312  0  0  -0.366248  -0.584484  0  2.138649  0
O  O69  1  0.94506268  0.43555211  0.90281633  1  0  -0.647723  0  1.906559  0  0  -0.600923  0  2.133156  0  0  -0.630999  0  2.123979  0  0  -0.366254  -0.584488  0  2.138312  0
O  O70  1  0.40257638  0.65339025  0.23918019  1  0  -0.757853  0  2.099979  0  0  -0.697696  0  2.349712  0  0  -0.732298  0  2.337758  0  0  -0.388172  -0.678931  0  2.356182  0
O  O71  1  0.59741652  0.34660946  0.76082164  1  0  -0.757859  0  2.100309  0  0  -0.697649  0  2.349984  0  0  -0.732251  0  2.338042  0  0  -0.388138  -0.678878  0  2.356456  0
O  O72  1  0.31916147  0.70698895  0.09194877  1  0  -0.718433  0  2.047489  0  0  -0.664916  0  2.303097  0  0  -0.698125  0  2.289826  0  0  -0.371027  -0.64684  0  2.309806  0
O  O73  1  0.68083958  0.29300876  0.90805172  1  0  -0.71841  0  2.047301  0  0  -0.664883  0  2.30292  0  0  -0.698092  0  2.289655  0  0  -0.371037  -0.646804  0  2.309626  0
O  O74  1  0.82680751  0.64952617  0.42875046  1  0  -0.680688  0  1.972605  0  0  -0.62425  0  2.201719  0  0  -0.654588  0  2.192343  0  0  -0.336359  -0.606703  0  2.207363  0
O  O75  1  0.17318926  0.35047354  0.57124875  1  0  -0.680816  0  1.972603  0  0  -0.624373  0  2.201665  0  0  -0.654708  0  2.192283  0  0  -0.336414  -0.606823  0  2.20731  0
O  O76  1  0.59567128  0.57740998  0.53817367  1  0  -0.838478  0  2.148845  0  0  -0.780808  0  2.409779  0  0  -0.821338  0  2.398322  0  0  -0.429545  -0.76204  0  2.416178  0
O  O77  1  0.40432678  0.42258974  0.46182605  1  0  -0.838447  0  2.14895  0  0  -0.7808  0  2.409868  0  0  -0.821329  0  2.398403  0  0  -0.429557  -0.762032  0  2.416266  0
O  O78  1  0.30955185  0.70816081  0.42300634  1  0  -0.706835  0  2.016542  0  0  -0.657  0  2.264428  0  0  -0.68867  0  2.251932  0  0  -0.384086  -0.639688  0  2.271089  0
O  O79  1  0.69045157  0.29183789  0.57699148  1  0  -0.706819  0  2.016597  0  0  -0.656995  0  2.264473  0  0  -0.688658  0  2.251983  0  0  -0.384117  -0.639687  0  2.271133  0
O  O80  1  0.21707480  0.61148416  0.58781734  1  0  -0.75568  0  2.102506  0  0  -0.700416  0  2.355436  0  0  -0.735231  0  2.3462  0  0  -0.399933  -0.681314  0  2.36  0
O  O81  1  0.78292176  0.38851655  0.41218096  1  0  -0.755772  0  2.102298  0  0  -0.700454  0  2.35514  0  0  -0.735256  0  2.345861  0  0  -0.399944  -0.681358  0  2.359696  0
O  O82  1  0.77397252  0.95271727  0.17103111  1  0  -0.744388  0  2.070721  0  0  -0.681643  0  2.309669  0  0  -0.716432  0  2.296512  0  0  -0.376929  -0.663264  0  2.316968  0
O  O83  1  0.22601930  0.04728137  0.82896415  1  0  -0.744371  0  2.070387  0  0  -0.681612  0  2.309358  0  0  -0.716398  0  2.296205  0  0  -0.376939  -0.66323  0  2.316654  0
O  O84  1  0.60288916  0.82376367  0.29624576  1  0  -0.707035  0  2.052077  0  0  -0.660038  0  2.310802  0  0  -0.692772  0  2.296845  0  0  -0.397771  -0.643519  0  2.318565  0
O  O85  1  0.39710824  0.17623303  0.70375617  1  0  -0.706966  0  2.052158  0  0  -0.659969  0  2.310927  0  0  -0.692694  0  2.296972  0  0  -0.397721  -0.643444  0  2.318691  0
O  O86  1  0.12600458  0.00871889  0.04607457  1  0  -0.821761  0  2.106422  0  0  -0.762065  0  2.369466  0  0  -0.802915  0  2.35663  0  0  -0.437752  -0.743446  0  2.37641  0
O  O87  1  0.87400080  0.99128287  0.95392435  1  0  -0.821778  0  2.106478  0  0  -0.762094  0  2.36956  0  0  -0.80294  0  2.356722  0  0  -0.437783  -0.743473  0  2.376504  0
O  O88  1  0.22724230  0.20327127  0.99189180  1  0  -0.662961  0  1.908361  0  0  -0.616218  0  2.139246  0  0  -0.646555  0  2.129419  0  0  -0.34866  -0.59958  0  2.144617  0
O  O89  1  0.77277164  0.79672649  0.00810830  1  0  -0.663032  0  1.908337  0  0  -0.616284  0  2.139226  0  0  -0.646639  0  2.129432  0  0  -0.348671  -0.599645  0  2.144598  0
O  O90  1  0.06434292  0.76794275  0.26339007  1  0  -0.929893  0  1.827295  0  0  -0.885363  0  2.022598  0  0  -0.911653  0  1.983529  0  0  -0.64452  -0.872721  0  2.046049  0
O  O91  1  0.93565284  0.23206811  0.73661148  1  0  -0.929924  0  1.827198  0  0  -0.885403  0  2.022543  0  0  -0.911697  0  1.983467  0  0  -0.644494  -0.87276  0  2.045993  0
O  O92  1  0.17503927  0.80018877  0.93164549  1  0  -0.898477  0  1.927786  0  0  -0.851743  0  2.125665  0  0  -0.87863  0  2.091893  0  0  -0.646843  -0.837777  0  2.146803  0
O  O93  1  0.82496029  0.19980994  0.06835427  1  0  -0.898487  0  1.927737  0  0  -0.85178  0  2.125576  0  0  -0.878669  0  2.091806  0  0  -0.646852  -0.837814  0  2.146713  0
