# generated using pymatgen
data_ZnH12C17Br2NO4
_symmetry_space_group_name_H-M   'P 1'
_cell_length_a   14.04524071
_cell_length_b   18.28136796
_cell_length_c   19.26049165
_cell_angle_alpha   70.28056832
_cell_angle_beta   88.59568526
_cell_angle_gamma   91.17104787
_symmetry_Int_Tables_number   1
_chemical_formula_structural   ZnH12C17Br2NO4
_chemical_formula_sum   'Zn4 H48 C68 Br8 N4 O16'
_cell_volume   4651.85971474
_cell_formula_units_Z   4
loop_
 _symmetry_equiv_pos_site_id
 _symmetry_equiv_pos_as_xyz
  1  'x, y, z'
loop_
 _atom_site_type_symbol
 _atom_site_label
 _atom_site_symmetry_multiplicity
 _atom_site_fract_x
 _atom_site_fract_y
 _atom_site_fract_z
 _atom_site_occupancy
 _atom_site_pbe_bader_charge
 _atom_site_pbe_bader_spin_density
 _atom_site_pbe_cm5_charge
 _atom_site_pbe_ddec_charge
 _atom_site_pbe_ddec_spin_density
 _atom_site_pbe_ddec_sum_bond_order
 _atom_site_pbe_magmom
Zn  Zn0  1  0.39367180  0.00188084  0.50807384  1  1.288411  0  0.664281  0.837831  0  2.402888  0
Zn  Zn1  1  0.59178465  0.99903956  0.49253836  1  1.287279  0  0.661186  0.831686  0  2.400862  0
Zn  Zn2  1  0.60724661  0.50876775  0.99970383  1  1.289122  0  0.663202  0.83845  0  2.385369  0
Zn  Zn3  1  0.40907551  0.49298711  0.99880363  1  1.289609  0  0.663344  0.833222  0  2.416866  0
H  H4  1  0.04594215  0.95471462  0.62285010  1  0.11218  0  0.112082  0.127044  0  1.007155  0
H  H5  1  0.94041864  0.00528281  0.38280691  1  0.085944  0  0.113278  0.128757  0  1.006116  0
H  H6  1  0.73178422  0.99004345  0.59548510  1  0.158223  0  0.131914  0.110416  0  0.982875  0
H  H7  1  0.90706645  0.99441615  0.61050437  1  0.086631  0  0.116912  0.125816  0  0.990904  0
H  H8  1  0.25414817  0.04703935  0.40042349  1  0.157187  0  0.133238  0.113264  0  0.978756  0
H  H9  1  0.07883845  0.05094153  0.38443188  1  0.076886  0  0.116713  0.125085  0  0.989893  0
H  H10  1  0.45970453  0.86915262  0.75394527  1  0.020148  0  0.085399  0.082369  0  0.985098  0
H  H11  1  0.58383011  0.86275485  0.74091921  1  0.051982  0  0.086609  0.082728  0  0.992152  0
H  H12  1  0.58594421  0.75389356  0.84827680  1  0.014037  0  0.080211  0.078269  0  1.007375  0
H  H13  1  0.46220256  0.76143788  0.86211771  1  0.007315  0  0.088171  0.084443  0  0.982641  0
H  H14  1  0.64582489  0.66942299  0.77630233  1  0.020779  0  0.082758  0.081085  0  1.01214  0
H  H15  1  0.56401964  0.62249820  0.73641642  1  0.023111  0  0.089761  0.088439  0  0.975033  0
H  H16  1  0.64741956  0.78059720  0.66980025  1  0.037805  0  0.085047  0.082631  0  0.997878  0
H  H17  1  0.56895884  0.73150877  0.62912757  1  0.0188  0  0.08995  0.087745  0  0.975646  0
H  H18  1  0.34510152  0.79808195  0.69540304  1  0.02842  0  0.075347  0.069623  0  1.037932  0
H  H19  1  0.39045003  0.74007447  0.64669940  1  0.016424  0  0.088583  0.08896  0  0.977192  0
H  H20  1  0.38597986  0.63344447  0.75653642  1  0.032834  0  0.088426  0.085926  0  0.978451  0
H  H21  1  0.34538955  0.69264582  0.80598127  1  0.010662  0  0.082646  0.079726  0  1.001877  0
H  H22  1  0.46746348  0.12902458  0.24529356  1  0.026521  0  0.087843  0.08431  0  0.978639  0
H  H23  1  0.58848061  0.14428067  0.26090031  1  0.025874  0  0.082172  0.079255  0  1.017292  0
H  H24  1  0.59592532  0.25015053  0.15055451  1  0.009048  0  0.087132  0.082479  0  0.983027  0
H  H25  1  0.47277761  0.23880101  0.13859372  1  0.020753  0  0.087165  0.084697  0  0.986568  0
H  H26  1  0.65119685  0.32968500  0.22731158  1  0.002299  0  0.083923  0.080743  0  0.995526  0
H  H27  1  0.56945040  0.38143260  0.26202692  1  0.035622  0  0.084993  0.081654  0  0.997051  0
H  H28  1  0.63406624  0.22575460  0.33936471  1  0.030754  0  0.087707  0.088928  0  0.993493  0
H  H29  1  0.54518141  0.27514015  0.37070924  1  0.007639  0  0.089532  0.087689  0  0.976076  0
H  H30  1  0.34041494  0.19734794  0.29420145  1  0.012784  0  0.082083  0.075618  0  0.99385  0
H  H31  1  0.37159578  0.25268555  0.34979987  1  0.028306  0  0.085805  0.083758  0  0.995246  0
H  H32  1  0.39147716  0.36459592  0.24512793  1  0.039742  0  0.088709  0.088791  0  0.97306  0
H  H33  1  0.35293121  0.31034061  0.19044894  1  0.029013  0  0.081516  0.079616  0  1.020434  0
H  H34  1  0.32165305  0.75798468  0.29637629  1  0.08411  0  0.100524  0.1123  0  1.012349  0
H  H35  1  0.61292525  0.68031689  0.26286939  1  0.068848  0  0.102083  0.112805  0  1.012219  0
H  H36  1  0.35174975  0.68140641  0.09455626  1  0.069357  0  0.103961  0.10558  0  0.997185  0
H  H37  1  0.34183239  0.76445499  0.17343021  1  0.065996  0  0.101911  0.104297  0  1.001423  0
H  H38  1  0.61591944  0.88108996  0.34780169  1  0.112979  0  0.092133  0.094923  0  1.054225  0
H  H39  1  0.62435279  0.80580655  0.26194426  1  0.060043  0  0.102193  0.105499  0  0.999125  0
H  H40  1  0.39750749  0.27668826  0.67751909  1  0.085973  0  0.102832  0.114907  0  1.008962  0
H  H41  1  0.68425178  0.29576609  0.76354124  1  0.09858  0  0.100733  0.112789  0  1.012598  0
H  H42  1  0.38625810  0.34003045  0.88383147  1  0.136149  0  0.094815  0.097377  0  1.04324  0
H  H43  1  0.38045425  0.25983210  0.80223408  1  0.055696  0  0.102562  0.105883  0  0.99838  0
H  H44  1  0.65194514  0.09515863  0.67147161  1  0.085839  0  0.103528  0.104484  0  0.997954  0
H  H45  1  0.66175722  0.16900533  0.75867117  1  0.055095  0  0.102066  0.10452  0  1.001497  0
H  H46  1  0.95533813  0.62714025  0.94340797  1  0.100907  0  0.112942  0.127971  0  1.004708  0
H  H47  1  0.06175483  0.37437787  0.00975937  1  0.104605  0  0.113837  0.12983  0  1.003528  0
H  H48  1  0.26772872  0.60159912  0.98815424  1  0.166417  0  0.133328  0.112016  0  0.978022  0
H  H49  1  0.09184595  0.61694422  0.99059419  1  0.097487  0  0.117634  0.126428  0  0.988083  0
H  H50  1  0.74683792  0.39583685  0.05270965  1  0.147094  0  0.133263  0.113404  0  0.974958  0
H  H51  1  0.92254243  0.37889545  0.05840129  1  0.114682  0  0.116612  0.126335  0  0.986581  0
C  C52  1  0.48643851  0.12560211  0.38568728  1  1.545645  0  0.223399  0.597804  0  4.084476  0
C  C53  1  0.47089710  0.91513818  0.41668792  1  1.608944  0  0.21058  0.604633  0  4.160654  0
C  C54  1  0.50039398  0.87591549  0.61403871  1  1.555064  0  0.221693  0.596383  0  4.079853  0
C  C55  1  0.51411534  0.08816802  0.58258990  1  1.595671  0  0.211359  0.605408  0  4.171665  0
C  C56  1  0.51305108  0.38722811  0.12355538  1  1.561259  0  0.224537  0.59799  0  4.0828  0
C  C57  1  0.52950645  0.40901667  0.92228109  1  1.60821  0  0.210077  0.60442  0  4.160081  0
C  C58  1  0.49871566  0.61427087  0.87641773  1  1.552772  0  0.221709  0.59584  0  4.08251  0
C  C59  1  0.49021897  0.59186881  0.07855794  1  1.59072  0  0.209672  0.604477  0  4.172623  0
C  C60  1  0.18699384  0.98030531  0.57454590  1  0.459892  0  0.128047  0.255982  0  3.97449  0
C  C61  1  0.08794901  0.97709973  0.57152820  1  0.07027  0  -0.082765  -0.222502  0  3.932787  0
C  C62  1  0.79919739  0.00323489  0.42830753  1  0.460892  0  0.129454  0.255698  0  3.974771  0
C  C63  1  0.89829014  0.00333134  0.43152663  1  0.10502  0  -0.082623  -0.223487  0  3.930543  0
C  C64  1  0.78179933  0.99414964  0.55010235  1  0.476322  0  0.067334  0.132197  0  3.889945  0
C  C65  1  0.87950999  0.99569412  0.55782854  1  -0.031743  0  -0.077035  -0.177397  0  3.93221  0
C  C66  1  0.20424975  0.02787750  0.44772172  1  0.50241  0  0.066282  0.130422  0  3.889609  0
C  C67  1  0.10648013  0.02879946  0.43969992  1  -0.0198  0  -0.078414  -0.176892  0  3.930129  0
C  C68  1  0.04555623  0.00199494  0.50274540  1  -0.013287  0  0.018098  0.125564  0  3.966026  0
C  C69  1  0.94062496  0.00025712  0.49748831  1  -0.011151  0  0.019297  0.127949  0  3.964168  0
C  C70  1  0.51590233  0.82940292  0.75020910  1  -0.064487  0  -0.158123  -0.1658  0  3.852139  0
C  C71  1  0.51688462  0.75763956  0.82171062  1  -0.00299  0  -0.157283  -0.162417  0  3.845325  0
C  C72  1  0.49830032  0.68226832  0.80375934  1  0.050467  0  -0.017413  0.025375  0  3.80049  0
C  C73  1  0.57710282  0.67602259  0.74923986  1  -0.005392  0  -0.16416  -0.173409  0  3.869204  0
C  C74  1  0.57873856  0.74849139  0.67818441  1  -0.041276  0  -0.161533  -0.171568  0  3.86519  0
C  C75  1  0.49872166  0.80331346  0.68289940  1  0.040941  0  -0.017791  0.025337  0  3.799439  0
C  C76  1  0.40254279  0.75852257  0.69459080  1  -0.008339  0  -0.168357  -0.175474  0  3.883946  0
C  C77  1  0.40138401  0.68795500  0.76703352  1  -0.038467  0  -0.165779  -0.174394  0  3.881764  0
C  C78  1  0.51969002  0.17277992  0.24984243  1  -0.025606  0  -0.160815  -0.169015  0  3.85848  0
C  C79  1  0.52522434  0.24431842  0.17814092  1  -0.013326  0  -0.157224  -0.164176  0  3.850956  0
C  C80  1  0.50591584  0.31915998  0.19618430  1  0.03691  0  -0.017862  0.025094  0  3.798269  0
C  C81  1  0.57906221  0.32634505  0.25179636  1  -0.01506  0  -0.163969  -0.173716  0  3.878961  0
C  C82  1  0.56694830  0.25605194  0.32442208  1  -0.011275  0  -0.16067  -0.169654  0  3.848472  0
C  C83  1  0.49052905  0.19761421  0.31638904  1  0.052558  0  -0.017176  0.02371  0  3.804966  0
C  C84  1  0.39484659  0.23818453  0.30125464  1  -0.03067  0  -0.16677  -0.174159  0  3.895549  0
C  C85  1  0.40491207  0.31177352  0.23159874  1  -0.036642  0  -0.165821  -0.174476  0  3.869209  0
C  C86  1  0.46552789  0.86595932  0.36789213  1  -0.038883  0  -0.020548  -0.075276  0  3.915754  0
C  C87  1  0.48875050  0.63764414  0.13041571  1  0.054533  0  -0.019432  -0.070292  0  3.928936  0
C  C88  1  0.38286501  0.83080521  0.35194489  1  -0.083376  0  -0.008498  0.112972  0  3.92403  0
C  C89  1  0.38666275  0.78666460  0.30530799  1  0.013819  0  -0.098962  -0.195639  0  3.966706  0
C  C90  1  0.56214065  0.63860214  0.17841092  1  -0.093096  0  -0.008537  0.108054  0  3.932654  0
C  C91  1  0.55629215  0.68310996  0.22447286  1  0.000905  0  -0.098308  -0.193553  0  3.971176  0
C  C92  1  0.40922999  0.68275172  0.13114405  1  -0.023444  0  -0.08503  -0.080871  0  4.001887  0
C  C93  1  0.40332708  0.72832535  0.17592998  1  -0.075753  0  -0.094172  -0.141132  0  3.99838  0
C  C94  1  0.55177135  0.85451087  0.33483230  1  0.006187  0  -0.085219  -0.072024  0  3.991087  0
C  C95  1  0.55627097  0.81164370  0.28772833  1  -0.0515  0  -0.095702  -0.141993  0  3.992749  0
C  C96  1  0.47326790  0.77658651  0.27223646  1  -0.02515  0  -0.002297  0.093035  0  3.999915  0
C  C97  1  0.47729095  0.72925586  0.22349049  1  -0.002724  0  -0.004024  0.087737  0  3.999859  0
C  C98  1  0.51806256  0.14015947  0.62860766  1  0.066456  0  -0.019398  -0.068997  0  3.929617  0
C  C99  1  0.53693025  0.36073948  0.87273545  1  0.025795  0  -0.020768  -0.077618  0  3.91721  0
C  C100  1  0.44689303  0.19215937  0.63115637  1  -0.142688  0  -0.008833  0.108271  0  3.936585  0
C  C101  1  0.45253603  0.23526221  0.67840297  1  0.01613  0  -0.098559  -0.19477  0  3.972475  0
C  C102  1  0.62072029  0.34646106  0.83858921  1  -0.1447  0  -0.007013  0.115783  0  3.921293  0
C  C103  1  0.61836962  0.30308772  0.79122647  1  0.014533  0  -0.099319  -0.19721  0  3.969338  0
C  C104  1  0.45123513  0.32861677  0.85768599  1  -0.036042  0  -0.085212  -0.07155  0  3.99152  0
C  C105  1  0.44816255  0.28483106  0.81140109  1  -0.063143  0  -0.095164  -0.141473  0  3.995622  0
C  C106  1  0.59603461  0.13470184  0.67414388  1  -0.049559  0  -0.084304  -0.080136  0  4.000469  0
C  C107  1  0.60186825  0.17664632  0.72218641  1  -0.045523  0  -0.094379  -0.141676  0  3.997798  0
C  C108  1  0.52932197  0.22726127  0.72551088  1  -0.005096  0  -0.004452  0.088525  0  4.001018  0
C  C109  1  0.53215511  0.27177001  0.77674705  1  -0.004409  0  -0.003142  0.091059  0  4.003105  0
C  C110  1  0.81406343  0.57764639  0.97192954  1  0.480606  0  0.127378  0.25461  0  3.978868  0
C  C111  1  0.91311010  0.57400815  0.96969219  1  0.099659  0  -0.083449  -0.222121  0  3.932258  0
C  C112  1  0.20261194  0.42343745  0.00658787  1  0.518341  0  0.129868  0.258365  0  3.971415  0
C  C113  1  0.10345984  0.42637830  0.00618941  1  -0.007877  0  -0.083263  -0.225847  0  3.933358  0
C  C114  1  0.21831083  0.55314990  0.99341998  1  0.45631  0  0.067494  0.131286  0  3.891025  0
C  C115  1  0.12046364  0.56102405  0.99394934  1  -0.032824  0  -0.077858  -0.178144  0  3.932268  0
C  C116  1  0.79679938  0.44507602  0.02983281  1  0.51848  0  0.067273  0.132075  0  3.889145  0
C  C117  1  0.89461445  0.43642458  0.03181892  1  -0.095622  0  -0.078641  -0.179679  0  3.930639  0
C  C118  1  0.95541773  0.50205827  0.00055839  1  -0.017845  0  0.01833  0.126075  0  3.967383  0
C  C119  1  0.06033432  0.49650822  0.00020748  1  0.000976  0  0.019204  0.128567  0  3.966186  0
Br  Br120  1  0.24141045  0.95134833  0.66833101  1  0.012877  0  0.084875  -0.012194  0  1.427233  0
Br  Br121  1  0.74473628  0.01134763  0.33728179  1  0.007201  0  0.090269  -0.01126  0  1.43087  0
Br  Br122  1  0.26018842  0.83515666  0.39547351  1  -0.0754  0  -0.012819  -0.099654  0  1.373903  0
Br  Br123  1  0.67092144  0.57526186  0.18885098  1  -0.064043  0  0.004803  -0.077646  0  1.398323  0
Br  Br124  1  0.34161743  0.21180622  0.56717242  1  -0.067545  0  -0.000658  -0.083051  0  1.378609  0
Br  Br125  1  0.74330966  0.38844073  0.84887444  1  -0.076191  0  -0.012483  -0.098683  0  1.378199  0
Br  Br126  1  0.75973452  0.67633597  0.93430684  1  0.016265  0  0.082558  -0.015341  0  1.434376  0
Br  Br127  1  0.25847045  0.32705505  0.01766948  1  0.010204  0  0.087495  -0.012448  0  1.413408  0
N  N128  1  0.24459665  0.00377062  0.51437129  1  -1.229104  0  -0.309157  -0.230753  0  3.460064  0
N  N129  1  0.74146251  0.99836246  0.48592004  1  -1.215074  0  -0.30902  -0.230498  0  3.45837  0
N  N130  1  0.75647525  0.51487741  0.00024588  1  -1.226533  0  -0.309448  -0.233689  0  3.464153  0
N  N131  1  0.25948439  0.48505640  0.99995261  1  -1.202038  0  -0.309389  -0.231075  0  3.45899  0
O  O132  1  0.40803895  0.10612950  0.42254700  1  -1.172556  0  -0.315475  -0.547229  0  2.345448  0
O  O133  1  0.56392712  0.08920383  0.40136787  1  -1.179153  0  -0.324601  -0.567353  0  2.401905  0
O  O134  1  0.55223204  0.91903564  0.44345409  1  -1.166169  0  -0.323404  -0.557949  0  2.344814  0
O  O135  1  0.39699752  0.94986111  0.42629292  1  -1.163674  0  -0.318956  -0.551209  0  2.364097  0
O  O136  1  0.58040817  0.91200809  0.59307873  1  -1.180402  0  -0.323506  -0.560419  0  2.334356  0
O  O137  1  0.42174097  0.89659691  0.58290155  1  -1.173692  0  -0.317682  -0.551151  0  2.38532  0
O  O138  1  0.43325533  0.05702461  0.57990503  1  -1.166822  0  -0.322205  -0.563221  0  2.421592  0
O  O139  1  0.59186254  0.07782916  0.55243901  1  -1.161684  0  -0.319688  -0.552259  0  2.277425  0
O  O140  1  0.59228197  0.42443283  0.10366620  1  -1.173088  0  -0.317035  -0.552529  0  2.334369  0
O  O141  1  0.43768956  0.40049800  0.08623902  1  -1.180469  0  -0.325378  -0.565317  0  2.422854  0
O  O142  1  0.44773308  0.43677090  0.92586158  1  -1.164955  0  -0.322895  -0.55859  0  2.350321  0
O  O143  1  0.60238944  0.41820972  0.95657123  1  -1.165749  0  -0.321266  -0.551642  0  2.360691  0
O  O144  1  0.41994566  0.59520215  0.91332713  1  -1.169034  0  -0.323002  -0.557452  0  2.347518  0
O  O145  1  0.57784104  0.58240227  0.89649874  1  -1.175109  0  -0.31895  -0.555771  0  2.380834  0
O  O146  1  0.56958015  0.59002815  0.04612257  1  -1.163314  0  -0.322717  -0.562771  0  2.413195  0
O  O147  1  0.41178018  0.56008773  0.07058714  1  -1.164682  0  -0.319881  -0.553404  0  2.27302  0
