# generated using pymatgen
data_SmP2H12C6NO11
_symmetry_space_group_name_H-M   'P 1'
_cell_length_a   8.97307720
_cell_length_b   10.93029148
_cell_length_c   15.23520000
_cell_angle_alpha   93.02020795
_cell_angle_beta   90.00000000
_cell_angle_gamma   90.00000000
_symmetry_Int_Tables_number   1
_chemical_formula_structural   SmP2H12C6NO11
_chemical_formula_sum   'Sm4 P8 H48 C24 N4 O44'
_cell_volume   1492.16778308
_cell_formula_units_Z   4
loop_
 _symmetry_equiv_pos_site_id
 _symmetry_equiv_pos_as_xyz
  1  'x, y, z'
loop_
 _atom_site_type_symbol
 _atom_site_label
 _atom_site_symmetry_multiplicity
 _atom_site_fract_x
 _atom_site_fract_y
 _atom_site_fract_z
 _atom_site_occupancy
 _atom_site_hle17_bader_spin_density
 _atom_site_hle17_ddec_charge
 _atom_site_hle17_ddec_spin_density
 _atom_site_hle17_ddec_sum_bond_order
 _atom_site_hle17_magmom
 _atom_site_hse06_10hf_bader_spin_density
 _atom_site_hse06_10hf_ddec_charge
 _atom_site_hse06_10hf_ddec_spin_density
 _atom_site_hse06_10hf_ddec_sum_bond_order
 _atom_site_hse06_10hf_magmom
 _atom_site_hse06_bader_spin_density
 _atom_site_hse06_ddec_charge
 _atom_site_hse06_ddec_spin_density
 _atom_site_hse06_ddec_sum_bond_order
 _atom_site_hse06_magmom
 _atom_site_pbe_bader_charge
 _atom_site_pbe_bader_spin_density
 _atom_site_pbe_cm5_charge
 _atom_site_pbe_ddec_charge
 _atom_site_pbe_ddec_spin_density
 _atom_site_pbe_ddec_sum_bond_order
 _atom_site_pbe_magmom
Sm  Sm0  1  0.24875079  0.40372018  0.61752135  1  0  2.344578  0  1.592914  0  0  2.258091  0  1.936171  0  0  2.296416  0  1.89746  0  2.260105  0  1.508849  2.229898  0  1.964454  0
Sm  Sm1  1  0.74874983  0.59628261  0.88247987  1  0  2.344581  0  1.592968  0  0  2.25811  0  1.936234  0  0  2.296434  0  1.897524  0  2.260042  0  1.508795  2.229916  0  1.964518  0
Sm  Sm2  1  0.75124841  0.59628261  0.38248053  1  0  2.344562  0  1.592987  0  0  2.258086  0  1.936257  0  0  2.296412  0  1.897546  0  2.260066  0  1.50879  2.229893  0  1.96454  0
Sm  Sm3  1  0.25124826  0.40372018  0.11752200  1  0  2.344597  0  1.592881  0  0  2.258115  0  1.936136  0  0  2.296439  0  1.897426  0  2.260103  0  1.50885  2.229921  0  1.96442  0
P  P4  1  0.15257196  0.63694826  0.45529213  1  0  1.508375  0  4.741784  0  0  1.361958  0  5.240536  0  0  1.412842  0  5.199251  0  3.34715  0  0.397455  1.32665  0  5.26824  0
P  P5  1  0.65256097  0.36304996  0.04471024  1  0  1.508307  0  4.741936  0  0  1.361887  0  5.240686  0  0  1.412782  0  5.199419  0  3.34709  0  0.397406  1.326582  0  5.268383  0
P  P6  1  0.84743949  0.36304996  0.54470892  1  0  1.508089  0  4.742126  0  0  1.361673  0  5.240881  0  0  1.412566  0  5.19961  0  3.347097  0  0.397314  1.326368  0  5.268576  0
P  P7  1  0.34742819  0.63694826  0.95529081  1  0  1.508249  0  4.741936  0  0  1.361845  0  5.240724  0  0  1.412732  0  5.199435  0  3.347156  0  0.397389  1.326537  0  5.268426  0
P  P8  1  0.19331272  0.06059857  0.60427750  1  0  1.51148  0  4.800369  0  0  1.361132  0  5.315761  0  0  1.411545  0  5.273624  0  3.403305  0  0.378411  1.326278  0  5.344221  0
P  P9  1  0.69330731  0.93940331  0.89572435  1  0  1.51167  0  4.800138  0  0  1.361345  0  5.315532  0  0  1.411758  0  5.273388  0  3.403277  0  0.378477  1.32649  0  5.343993  0
P  P10  1  0.80669316  0.93940331  0.39572369  1  0  1.511602  0  4.800242  0  0  1.361279  0  5.315644  0  0  1.41169  0  5.273504  0  3.403278  0  0.378459  1.326421  0  5.344104  0
P  P11  1  0.30668632  0.06060040  0.10427625  1  0  1.511558  0  4.800243  0  0  1.361212  0  5.315628  0  0  1.411624  0  5.273493  0  3.403567  0  0.378439  1.326357  0  5.344094  0
H  H12  1  0.18567432  0.92422710  0.69958777  1  0  0.414206  0  0.824574  0  0  0.397921  0  0.880082  0  0  0.405922  0  0.871045  0  0.610107  0  0.339588  0.392178  0  0.886586  0
H  H13  1  0.68567225  0.07577020  0.80041127  1  0  0.414256  0  0.824516  0  0  0.397973  0  0.880017  0  0  0.405974  0  0.870978  0  0.610114  0  0.339614  0.392229  0  0.886523  0
H  H14  1  0.81432711  0.07577020  0.30041127  1  0  0.414259  0  0.824531  0  0  0.397978  0  0.880027  0  0  0.405979  0  0.870988  0  0.610087  0  0.339612  0.392234  0  0.886533  0
H  H15  1  0.31432361  0.92422894  0.19958784  1  0  0.414225  0  0.824599  0  0  0.397946  0  0.880091  0  0  0.405946  0  0.871056  0  0.61014  0  0.33962  0.392202  0  0.886597  0
H  H16  1  0.47452395  0.37269164  0.45279366  1  0  0.447363  0  0.838797  0  0  0.422104  0  0.891844  0  0  0.432923  0  0.87586  0  0.652371  0  0.306957  0.414345  0  0.90339  0
H  H17  1  0.97452410  0.62731025  0.04720687  1  0  0.447347  0  0.838815  0  0  0.42209  0  0.891858  0  0  0.432907  0  0.875877  0  0.652375  0  0.306952  0.41433  0  0.903405  0
H  H18  1  0.52547637  0.62731025  0.54720818  1  0  0.447334  0  0.838835  0  0  0.422076  0  0.891877  0  0  0.432894  0  0.875895  0  0.652382  0  0.306943  0.414317  0  0.903423  0
H  H19  1  0.02547510  0.37269072  0.95279428  1  0  0.44736  0  0.838799  0  0  0.422102  0  0.891842  0  0  0.43292  0  0.875859  0  0.652379  0  0.306969  0.414342  0  0.903389  0
H  H20  1  0.55193886  0.39618018  0.54199741  1  0  0.418864  0  0.86779  0  0  0.388748  0  0.946918  0  0  0.397864  0  0.933381  0  0.604782  0  0.312511  0.382418  0  0.956275  0
H  H21  1  0.05193536  0.60381804  0.95800167  1  0  0.418852  0  0.867746  0  0  0.38874  0  0.946912  0  0  0.397854  0  0.933378  0  0.60479  0  0.312518  0.38241  0  0.956269  0
H  H22  1  0.44806480  0.60381712  0.45800163  1  0  0.418864  0  0.867733  0  0  0.38875  0  0.946899  0  0  0.397865  0  0.933364  0  0.604791  0  0.312518  0.38242  0  0.956256  0
H  H23  1  0.94806161  0.39618018  0.04199873  1  0  0.418851  0  0.867716  0  0  0.388721  0  0.946946  0  0  0.397836  0  0.933409  0  0.604782  0  0.312486  0.38239  0  0.956304  0
H  H24  1  0.10627012  0.91337701  0.44135299  1  0  0.307171  0  0.913814  0  0  0.286085  0  0.976829  0  0  0.294788  0  0.971252  0  0.560865  0  0.310532  0.280284  0  0.980405  0
H  H25  1  0.60626805  0.08662396  0.05864685  1  0  0.307143  0  0.913784  0  0  0.286109  0  0.976731  0  0  0.294815  0  0.971145  0  0.56085  0  0.310542  0.280309  0  0.980307  0
H  H26  1  0.89373353  0.08662304  0.55864616  1  0  0.307162  0  0.913763  0  0  0.286161  0  0.97666  0  0  0.294868  0  0.97107  0  0.560824  0  0.310525  0.280359  0  0.980238  0
H  H27  1  0.39373004  0.91337701  0.94135299  1  0  0.307041  0  0.913885  0  0  0.286014  0  0.976824  0  0  0.294717  0  0.971246  0  0.560868  0  0.310509  0.280215  0  0.980398  0
H  H28  1  0.12967346  0.79831815  0.56802202  1  0  0.145498  0  0.920548  0  0  0.157396  0  0.975911  0  0  0.160908  0  0.973135  0  0.092396  0  0.131257  0.154722  0  0.978233  0
H  H29  1  0.62966916  0.20168281  0.93197782  1  0  0.14551  0  0.920538  0  0  0.157388  0  0.975939  0  0  0.160905  0  0.973159  0  0.092368  0  0.131257  0.154715  0  0.978261  0
H  H30  1  0.87033131  0.20168281  0.43197717  1  0  0.145485  0  0.920535  0  0  0.157367  0  0.975937  0  0  0.160882  0  0.973158  0  0.092357  0  0.131248  0.154694  0  0.978258  0
H  H31  1  0.37032892  0.79831723  0.06802133  1  0  0.145481  0  0.920571  0  0  0.157394  0  0.97595  0  0  0.160909  0  0.973171  0  0.09238  0  0.131252  0.154719  0  0.978273  0
H  H32  1  0.32202554  0.76490025  0.54472234  1  0  0.144409  0  0.935096  0  0  0.1549  0  0.993652  0  0  0.158081  0  0.991736  0  0.142749  0  0.125963  0.152273  0  0.995523  0
H  H33  1  0.82202235  0.23509980  0.95527681  1  0  0.14443  0  0.935094  0  0  0.154915  0  0.993663  0  0  0.158091  0  0.991764  0  0.142789  0  0.125976  0.152293  0  0.995522  0
H  H34  1  0.67797812  0.23509888  0.45527678  1  0  0.144419  0  0.93509  0  0  0.154908  0  0.993657  0  0  0.158083  0  0.991761  0  0.142795  0  0.125985  0.152287  0  0.995515  0
H  H35  1  0.17797573  0.76490025  0.04472234  1  0  0.144409  0  0.935108  0  0  0.154904  0  0.993687  0  0  0.158082  0  0.991781  0  0.142764  0  0.12597  0.15228  0  0.995549  0
H  H36  1  0.29150423  0.06915002  0.45912186  1  0  0.147751  0  0.899132  0  0  0.164638  0  0.944619  0  0  0.167332  0  0.943377  0  0.114022  0  0.138657  0.162459  0  0.945974  0
H  H37  1  0.79149993  0.93085187  0.04087868  1  0  0.147761  0  0.899172  0  0  0.164694  0  0.944618  0  0  0.16739  0  0.943373  0  0.11404  0  0.138664  0.162514  0  0.945977  0
H  H38  1  0.70849942  0.93085187  0.54087802  1  0  0.147721  0  0.899169  0  0  0.164654  0  0.944636  0  0  0.167351  0  0.94339  0  0.114051  0  0.138639  0.162472  0  0.945992  0
H  H39  1  0.20849704  0.06915002  0.95912120  1  0  0.147745  0  0.899124  0  0  0.164633  0  0.944608  0  0  0.167328  0  0.943367  0  0.114011  0  0.138649  0.162454  0  0.945967  0
H  H40  1  0.40256535  0.97187390  0.52353952  1  0  0.12154  0  0.945963  0  0  0.135881  0  1.00419  0  0  0.137798  0  1.003887  0  0.103596  0  0.121485  0.135619  0  1.002394  0
H  H41  1  0.90255994  0.02812523  0.97646025  1  0  0.121575  0  0.945926  0  0  0.135945  0  1.004141  0  0  0.13786  0  1.003838  0  0.103838  0  0.121499  0.135681  0  1.002347  0
H  H42  1  0.59744053  0.02812615  0.47646029  1  0  0.121553  0  0.945923  0  0  0.135924  0  1.004146  0  0  0.137841  0  1.003841  0  0.103838  0  0.121502  0.135658  0  1.002351  0
H  H43  1  0.09743592  0.97187482  0.02353955  1  0  0.121559  0  0.94596  0  0  0.135902  0  1.004178  0  0  0.13782  0  1.003875  0  0.103598  0  0.121499  0.13564  0  1.002382  0
H  H44  1  0.29694495  0.94583751  0.33974972  1  0  0.098393  0  0.919477  0  0  0.115877  0  0.975048  0  0  0.117194  0  0.974089  0  0.087312  0  0.124135  0.114811  0  0.975873  0
H  H45  1  0.79694400  0.05416162  0.16025005  1  0  0.098336  0  0.919539  0  0  0.115852  0  0.975079  0  0  0.117169  0  0.974119  0  0.087312  0  0.124121  0.114786  0  0.975903  0
H  H46  1  0.70306093  0.05416162  0.66025005  1  0  0.098354  0  0.919558  0  0  0.115849  0  0.975122  0  0  0.117164  0  0.974166  0  0.087304  0  0.124119  0.114782  0  0.975943  0
H  H47  1  0.20305409  0.94583843  0.83974976  1  0  0.098333  0  0.919534  0  0  0.115853  0  0.975067  0  0  0.117167  0  0.974111  0  0.087303  0  0.124109  0.114786  0  0.975893  0
H  H48  1  0.41515412  0.83475480  0.38833050  1  0  0.111145  0  0.906385  0  0  0.125268  0  0.96639  0  0  0.126742  0  0.96619  0  0.110494  0  0.125033  0.124226  0  0.966282  0
H  H49  1  0.91515428  0.16524708  0.11166741  1  0  0.111119  0  0.906395  0  0  0.125256  0  0.966393  0  0  0.126731  0  0.966192  0  0.110494  0  0.125043  0.124215  0  0.966281  0
H  H50  1  0.58484953  0.16524708  0.61166872  1  0  0.111159  0  0.90642  0  0  0.125279  0  0.966417  0  0  0.126754  0  0.966215  0  0.110543  0  0.12507  0.124238  0  0.966306  0
H  H51  1  0.08484492  0.83475480  0.88833181  1  0  0.111118  0  0.906397  0  0  0.125253  0  0.966391  0  0  0.126726  0  0.966192  0  0.110479  0  0.125035  0.124211  0  0.96628  0
H  H52  1  0.10433879  0.77996286  0.30786522  1  0  0.086258  0  0.925733  0  0  0.095421  0  0.991978  0  0  0.097058  0  0.990464  0  0.101382  0  0.117706  0.094329  0  0.992841  0
H  H53  1  0.60433560  0.22003719  0.19213458  1  0  0.086166  0  0.925782  0  0  0.095388  0  0.991985  0  0  0.097003  0  0.990487  0  0.101357  0  0.117692  0.094297  0  0.992848  0
H  H54  1  0.89566933  0.22003810  0.69213330  1  0  0.086168  0  0.925738  0  0  0.095374  0  0.992001  0  0  0.097006  0  0.990491  0  0.101278  0  0.1177  0.094284  0  0.992861  0
H  H55  1  0.39566025  0.77996286  0.80786588  1  0  0.08622  0  0.925828  0  0  0.09542  0  0.992013  0  0  0.097058  0  0.990491  0  0.101397  0  0.117704  0.094329  0  0.992873  0
H  H56  1  0.27864354  0.74432877  0.25553434  1  0  0.091342  0  0.929088  0  0  0.10471  0  0.989576  0  0  0.10593  0  0.988587  0  0.11323  0  0.118231  0.103473  0  0.990848  0
H  H57  1  0.77864258  0.25567036  0.24446478  1  0  0.091355  0  0.929093  0  0  0.104736  0  0.989579  0  0  0.105952  0  0.988585  0  0.113258  0  0.118248  0.1035  0  0.990851  0
H  H58  1  0.72136346  0.25567036  0.74446609  1  0  0.091302  0  0.929094  0  0  0.104723  0  0.989562  0  0  0.105943  0  0.988577  0  0.113246  0  0.118234  0.103487  0  0.990835  0
H  H59  1  0.22135662  0.74432969  0.75553568  1  0  0.091361  0  0.92911  0  0  0.104722  0  0.989599  0  0  0.105939  0  0.988609  0  0.113238  0  0.118237  0.103486  0  0.99087  0
C  C60  1  0.21175122  0.77852815  0.51584567  1  0  -0.346216  0  3.496135  0  0  -0.383217  0  3.735547  0  0  -0.388384  0  3.740638  0  -0.27339  0  -0.06602  -0.379548  0  3.732547  0
C  C61  1  0.71174803  0.22147006  0.98415406  1  0  -0.346251  0  3.496088  0  0  -0.383279  0  3.735602  0  0  -0.388453  0  3.740695  0  -0.273369  0  -0.06602  -0.379611  0  3.732605  0
C  C62  1  0.78825244  0.22147006  0.48415406  1  0  -0.346128  0  3.496063  0  0  -0.383198  0  3.735651  0  0  -0.38837  0  3.740743  0  -0.273393  0  -0.066006  -0.379532  0  3.732655  0
C  C63  1  0.28825006  0.77852907  0.01584571  1  0  -0.346205  0  3.496075  0  0  -0.38328  0  3.735603  0  0  -0.388454  0  3.740698  0  -0.273374  0  -0.066014  -0.379607  0  3.732606  0
C  C64  1  0.28817204  0.99591947  0.50573521  1  0  -0.340357  0  3.546559  0  0  -0.384893  0  3.804684  0  0  -0.389297  0  3.809986  0  -0.309977  0  -0.065518  -0.381992  0  3.800148  0
C  C65  1  0.78816774  0.00408058  0.99426525  1  0  -0.340499  0  3.546612  0  0  -0.385117  0  3.804767  0  0  -0.389543  0  3.810122  0  -0.309997  0  -0.065553  -0.382221  0  3.800252  0
C  C66  1  0.71183273  0.00408058  0.49426460  1  0  -0.340382  0  3.546616  0  0  -0.385024  0  3.804807  0  0  -0.389451  0  3.810163  0  -0.309986  0  -0.065529  -0.382116  0  3.800274  0
C  C67  1  0.21182811  0.99591947  0.00573455  1  0  -0.340447  0  3.546501  0  0  -0.384977  0  3.804631  0  0  -0.389376  0  3.809919  0  -0.309911  0  -0.065526  -0.382071  0  3.80009  0
C  C68  1  0.29931538  0.85997855  0.37403047  1  0  -0.055391  0  3.536664  0  0  -0.119791  0  3.799798  0  0  -0.117565  0  3.809643  0  0.197267  0  -0.060593  -0.120922  0  3.792592  0
C  C69  1  0.79931442  0.14002058  0.12596798  1  0  -0.05537  0  3.536668  0  0  -0.119794  0  3.79984  0  0  -0.117571  0  3.809668  0  0.197255  0  -0.060591  -0.120921  0  3.792632  0
C  C70  1  0.70068939  0.14002058  0.62596930  1  0  -0.055418  0  3.53669  0  0  -0.119801  0  3.799882  0  0  -0.11757  0  3.809718  0  0.197272  0  -0.060629  -0.120926  0  3.792676  0
C  C71  1  0.20068366  0.85997947  0.87403116  1  0  -0.055377  0  3.536626  0  0  -0.119808  0  3.79977  0  0  -0.117589  0  3.809614  0  0.197279  0  -0.060565  -0.120935  0  3.79256  0
C  C72  1  0.22252233  0.75915134  0.31924379  1  0  0.08952  0  3.590008  0  0  0.029547  0  3.858279  0  0  0.036562  0  3.863788  0  0.372164  0  -0.057553  0.024812  0  3.854666  0
C  C73  1  0.72252137  0.24084779  0.18075532  1  0  0.089604  0  3.589932  0  0  0.02954  0  3.858251  0  0  0.036602  0  3.863727  0  0.372181  0  -0.057557  0.024802  0  3.85464  0
C  C74  1  0.77748356  0.24084871  0.68075536  1  0  0.089733  0  3.589683  0  0  0.029589  0  3.858146  0  0  0.036613  0  3.863656  0  0.372231  0  -0.057547  0.024848  0  3.854541  0
C  C75  1  0.27747672  0.75915134  0.81924379  1  0  0.089483  0  3.590165  0  0  0.02951  0  3.858387  0  0  0.03654  0  3.863871  0  0.372157  0  -0.057575  0.024776  0  3.854773  0
C  C76  1  0.52808194  0.55792294  0.71347578  1  0  0.56422  0  3.932271  0  0  0.51643  0  4.24714  0  0  0.546444  0  4.236614  0  1.584057  0  0.213523  0.495707  0  4.253861  0
C  C77  1  0.02807955  0.44207619  0.78652268  1  0  0.563958  0  3.932363  0  0  0.516146  0  4.247283  0  0  0.546158  0  4.236758  0  1.583776  0  0.213416  0.495423  0  4.254003  0
C  C78  1  0.47191837  0.44207711  0.28652337  1  0  0.56405  0  3.932386  0  0  0.516244  0  4.247289  0  0  0.546254  0  4.236768  0  1.58379  0  0.213492  0.495522  0  4.254009  0
C  C79  1  0.97191853  0.55792478  0.21347847  1  0  0.564236  0  3.932252  0  0  0.516469  0  4.24708  0  0  0.546483  0  4.236551  0  1.584126  0  0.213523  0.495747  0  4.253802  0
C  C80  1  0.52353835  0.43312896  0.75789735  1  0  0.563892  0  3.952399  0  0  0.5174  0  4.268973  0  0  0.547561  0  4.258012  0  1.607302  0  0.210187  0.496552  0  4.276119  0
C  C81  1  0.02353819  0.56686559  0.74209437  1  0  0.564024  0  3.952107  0  0  0.517516  0  4.268723  0  0  0.547675  0  4.257762  0  1.607078  0  0.210223  0.496666  0  4.275875  0
C  C82  1  0.47646419  0.56686743  0.24209576  1  0  0.564083  0  3.952107  0  0  0.517564  0  4.268736  0  0  0.547724  0  4.257775  0  1.607417  0  0.210229  0.496715  0  4.275885  0
C  C83  1  0.97645544  0.43312804  0.25790125  1  0  0.563834  0  3.952456  0  0  0.51735  0  4.269005  0  0  0.547509  0  4.258048  0  1.607347  0  0.210184  0.496502  0  4.276151  0
N  N84  1  0.21878671  0.88680558  0.45948518  1  0  -0.032919  0  3.389356  0  0  0.048993  0  3.601358  0  0  0.037256  0  3.622116  0  -1.020232  0  -0.338155  0.056387  0  3.587385  0
N  N85  1  0.71878463  0.11319263  0.04051390  1  0  -0.032799  0  3.389219  0  0  0.049086  0  3.601256  0  0  0.037356  0  3.622006  0  -1.020265  0  -0.338204  0.056477  0  3.587284  0
N  N86  1  0.78121695  0.11319263  0.54051390  1  0  -0.032913  0  3.38928  0  0  0.049012  0  3.601235  0  0  0.037279  0  3.621988  0  -1.020256  0  -0.338172  0.056402  0  3.587263  0
N  N87  1  0.28121234  0.88680558  0.95948584  1  0  -0.032646  0  3.389062  0  0  0.049206  0  3.60116  0  0  0.037475  0  3.621918  0  -1.020252  0  -0.338149  0.056594  0  3.58719  0
O  O88  1  0.22694110  0.53039047  0.49585042  1  0  -0.911508  0  1.990614  0  0  -0.847675  0  2.254166  0  0  -0.871917  0  2.232335  0  -1.458624  0  -0.437597  -0.830451  0  2.268874  0
O  O89  1  0.72694014  0.46961142  0.00414814  1  0  -0.911529  0  1.990447  0  0  -0.847691  0  2.254014  0  0  -0.871921  0  2.23216  0  -1.458497  0  -0.437619  -0.830466  0  2.268718  0
O  O90  1  0.77306033  0.46961050  0.50414877  1  0  -0.911475  0  1.990509  0  0  -0.847626  0  2.254057  0  0  -0.871867  0  2.232225  0  -1.458495  0  -0.437614  -0.830402  0  2.268762  0
O  O91  1  0.27306017  0.53039047  0.99585173  1  0  -0.911462  0  1.990565  0  0  -0.847616  0  2.254104  0  0  -0.87186  0  2.232275  0  -1.458596  0  -0.437592  -0.830393  0  2.268809  0
O  O92  1  0.23684517  0.64439665  0.36158870  1  0  -0.498625  0  2.200692  0  0  -0.414218  0  2.445608  0  0  -0.43577  0  2.439259  0  -1.283638  0  -0.205528  -0.398996  0  2.449793  0
O  O93  1  0.73684533  0.35560340  0.13841045  1  0  -0.498665  0  2.200642  0  0  -0.414208  0  2.44555  0  0  -0.435798  0  2.43921  0  -1.283626  0  -0.205532  -0.398986  0  2.449737  0
O  O94  1  0.76315737  0.35560340  0.63841045  1  0  -0.498676  0  2.200577  0  0  -0.414194  0  2.445512  0  0  -0.435768  0  2.439178  0  -1.283604  0  -0.205516  -0.398972  0  2.4497  0
O  O95  1  0.26315276  0.64439757  0.86158873  1  0  -0.49857  0  2.200779  0  0  -0.414174  0  2.445689  0  0  -0.435726  0  2.439332  0  -1.283648  0  -0.205508  -0.398954  0  2.449873  0
O  O96  1  0.98689890  0.64463577  0.44366558  1  0  -0.926922  0  1.994709  0  0  -0.868255  0  2.26502  0  0  -0.892603  0  2.244336  0  -1.447023  0  -0.443727  -0.85096  0  2.279355  0
O  O97  1  0.48689763  0.35536428  0.05633751  1  0  -0.926819  0  1.99495  0  0  -0.86815  0  2.265263  0  0  -0.892497  0  2.244578  0  -1.447072  0  -0.443644  -0.850856  0  2.279594  0
O  O98  1  0.01310253  0.35536336  0.55633682  1  0  -0.926726  0  1.995026  0  0  -0.868048  0  2.265317  0  0  -0.892394  0  2.244635  0  -1.447086  0  -0.443595  -0.850753  0  2.279646  0
O  O99  1  0.51309934  0.64463485  0.94366160  1  0  -0.926872  0  1.994748  0  0  -0.868204  0  2.265062  0  0  -0.892554  0  2.244378  0  -1.44703  0  -0.443685  -0.850909  0  2.279394  0
O  O100  1  0.02898560  0.03300471  0.59923974  1  0  -0.818677  0  1.930947  0  0  -0.752736  0  2.170687  0  0  -0.776879  0  2.151802  0  -1.457026  0  -0.372279  -0.735994  0  2.182952  0
O  O101  1  0.52898575  0.96699259  0.90076127  1  0  -0.818733  0  1.931081  0  0  -0.752756  0  2.170803  0  0  -0.776903  0  2.151931  0  -1.457109  0  -0.3723  -0.736014  0  2.183065  0
O  O102  1  0.97101472  0.96699351  0.40076065  1  0  -0.818749  0  1.931096  0  0  -0.752751  0  2.170839  0  0  -0.776896  0  2.151963  0  -1.457106  0  -0.372299  -0.736008  0  2.183102  0
O  O103  1  0.47101344  0.03300746  0.09923919  1  0  -0.818712  0  1.930943  0  0  -0.752738  0  2.170676  0  0  -0.776884  0  2.151799  0  -1.457314  0  -0.372287  -0.735994  0  2.182938  0
O  O104  1  0.25455593  0.18817677  0.61267725  1  0  -0.90666  0  1.98582  0  0  -0.845462  0  2.258856  0  0  -0.869753  0  2.236302  0  -1.46602  0  -0.445403  -0.828843  0  2.274347  0
O  O105  1  0.75455497  0.81181962  0.88732701  1  0  -0.906718  0  1.985513  0  0  -0.845549  0  2.258572  0  0  -0.869837  0  2.236018  0  -1.465985  0  -0.445437  -0.82893  0  2.274063  0
O  O106  1  0.74544550  0.81181962  0.38732701  1  0  -0.906695  0  1.985526  0  0  -0.845519  0  2.258579  0  0  -0.869806  0  2.236025  0  -1.465983  0  -0.445433  -0.828898  0  2.274071  0
O  O107  1  0.24544311  0.18817951  0.11267604  1  0  -0.906695  0  1.985823  0  0  -0.845514  0  2.258879  0  0  -0.869806  0  2.236327  0  -1.466058  0  -0.445415  -0.828896  0  2.274371  0
O  O108  1  0.26014710  0.98438042  0.68395044  1  0  -0.709423  0  1.936254  0  0  -0.651486  0  2.144519  0  0  -0.669361  0  2.123356  0  -1.354135  0  -0.389849  -0.638755  0  2.158523  0
O  O109  1  0.76014280  0.01561322  0.81604912  1  0  -0.709461  0  1.936184  0  0  -0.651527  0  2.144443  0  0  -0.669396  0  2.123276  0  -1.354102  0  -0.389861  -0.638794  0  2.158447  0
O  O110  1  0.73985656  0.01561322  0.31604912  1  0  -0.709467  0  1.936218  0  0  -0.651534  0  2.144482  0  0  -0.669403  0  2.123314  0  -1.354083  0  -0.389868  -0.638801  0  2.158488  0
O  O111  1  0.23985083  0.98438317  0.18394989  1  0  -0.709445  0  1.936189  0  0  -0.651516  0  2.144459  0  0  -0.66939  0  2.123295  0  -1.354151  0  -0.389896  -0.638785  0  2.158464  0
O  O112  1  0.44780959  0.56551517  0.64456118  1  0  -0.703814  0  2.053296  0  0  -0.652576  0  2.289319  0  0  -0.676619  0  2.278586  0  -1.202269  0  -0.360944  -0.635363  0  2.296604  0
O  O113  1  0.94781197  0.43448763  0.85544201  1  0  -0.703664  0  2.053064  0  0  -0.652443  0  2.289154  0  0  -0.676486  0  2.278424  0  -1.202106  0  -0.360902  -0.635231  0  2.296441  0
O  O114  1  0.55218515  0.43448579  0.35544194  1  0  -0.703735  0  2.053156  0  0  -0.65252  0  2.289249  0  0  -0.676562  0  2.278522  0  -1.202108  0  -0.360944  -0.635308  0  2.296537  0
O  O115  1  0.05218834  0.56551609  0.14456253  1  0  -0.70382  0  2.053261  0  0  -0.652593  0  2.28928  0  0  -0.676637  0  2.278547  0  -1.202246  0  -0.360949  -0.635381  0  2.296567  0
O  O116  1  0.61040041  0.64040860  0.74768886  1  0  -0.640257  0  2.011053  0  0  -0.605505  0  2.248504  0  0  -0.62597  0  2.237373  0  -1.169022  0  -0.359451  -0.591353  0  2.256313  0
O  O117  1  0.11039914  0.35959969  0.75231322  1  0  -0.640155  0  2.011289  0  0  -0.605387  0  2.248747  0  0  -0.625847  0  2.237613  0  -1.16904  0  -0.359419  -0.591234  0  2.256554  0
O  O118  1  0.38959656  0.35959878  0.25231516  1  0  -0.640172  0  2.011219  0  0  -0.605402  0  2.248675  0  0  -0.625861  0  2.237541  0  -1.16902  0  -0.359431  -0.591249  0  2.256483  0
O  O119  1  0.88960340  0.64040769  0.24769080  1  0  -0.640286  0  2.011161  0  0  -0.605542  0  2.248598  0  0  -0.626006  0  2.237466  0  -1.169054  0  -0.359464  -0.591391  0  2.256408  0
O  O120  1  0.43557410  0.35256999  0.72579710  1  0  -0.654684  0  2.011663  0  0  -0.617517  0  2.251615  0  0  -0.638597  0  2.240559  0  -1.182396  0  -0.375191  -0.6026  0  2.259438  0
O  O121  1  0.93556088  0.64743373  0.77420153  1  0  -0.654802  0  2.011141  0  0  -0.61762  0  2.25109  0  0  -0.638706  0  2.240035  0  -1.182042  0  -0.375259  -0.6027  0  2.258915  0
O  O122  1  0.56443736  0.64743281  0.27420149  1  0  -0.654834  0  2.011314  0  0  -0.617643  0  2.251263  0  0  -0.638726  0  2.240207  0  -1.182403  0  -0.375255  -0.602723  0  2.259088  0
O  O123  1  0.06441937  0.35256907  0.22579575  1  0  -0.654595  0  2.011712  0  0  -0.61744  0  2.251669  0  0  -0.63852  0  2.240616  0  -1.182313  0  -0.375143  -0.602524  0  2.259491  0
O  O124  1  0.61227045  0.42100082  0.82178528  1  0  -0.681472  0  2.034409  0  0  -0.644815  0  2.28311  0  0  -0.667709  0  2.273039  0  -1.189198  0  -0.383139  -0.628753  0  2.290189  0
O  O125  1  0.11225358  0.57899832  0.67821383  1  0  -0.681441  0  2.034707  0  0  -0.644766  0  2.283398  0  0  -0.667654  0  2.273326  0  -1.189206  0  -0.383087  -0.628707  0  2.29048  0
O  O126  1  0.38774435  0.57899923  0.17821321  1  0  -0.681463  0  2.034573  0  0  -0.644788  0  2.28328  0  0  -0.667678  0  2.27321  0  -1.189229  0  -0.383094  -0.628729  0  2.290362  0
O  O127  1  0.88772445  0.42099990  0.32178722  1  0  -0.681508  0  2.034459  0  0  -0.644844  0  2.283132  0  0  -0.667735  0  2.273062  0  -1.189396  0  -0.383181  -0.628782  0  2.290212  0
O  O128  1  0.46677744  0.35177293  0.51548749  1  0  -0.889081  0  1.826915  0  0  -0.854403  0  2.013421  0  0  -0.870785  0  1.982249  0  -1.251788  0  -0.619483  -0.842945  0  2.035643  0
O  O129  1  0.96677537  0.64822712  0.98451297  1  0  -0.889061  0  1.82692  0  0  -0.854382  0  2.013455  0  0  -0.870763  0  1.982284  0  -1.251813  0  -0.619486  -0.842915  0  2.035658  0
O  O130  1  0.53322510  0.64822712  0.48451363  1  0  -0.889038  0  1.826882  0  0  -0.854377  0  2.013456  0  0  -0.870758  0  1.982285  0  -1.251803  0  -0.619472  -0.842912  0  2.035669  0
O  O131  1  0.03322272  0.35177201  0.01548745  1  0  -0.889074  0  1.826825  0  0  -0.85439  0  2.013402  0  0  -0.870772  0  1.982233  0  -1.251796  0  -0.61947  -0.842932  0  2.035625  0
