# generated using pymatgen
data_Co3H40C68(NO3)4
_symmetry_space_group_name_H-M   'P 1'
_cell_length_a   15.80801827
_cell_length_b   15.80797149
_cell_length_c   16.53705648
_cell_angle_alpha   67.58223866
_cell_angle_beta   67.58163645
_cell_angle_gamma   69.64039693
_symmetry_Int_Tables_number   1
_chemical_formula_structural   Co3H40C68(NO3)4
_chemical_formula_sum   'Co6 H80 C136 N8 O24'
_cell_volume   3430.91821644
_cell_formula_units_Z   2
loop_
 _symmetry_equiv_pos_site_id
 _symmetry_equiv_pos_as_xyz
  1  'x, y, z'
loop_
 _atom_site_type_symbol
 _atom_site_label
 _atom_site_symmetry_multiplicity
 _atom_site_fract_x
 _atom_site_fract_y
 _atom_site_fract_z
 _atom_site_occupancy
 _atom_site_pbe_bader_charge
 _atom_site_pbe_bader_spin_density
 _atom_site_pbe_cm5_charge
 _atom_site_pbe_ddec_charge
 _atom_site_pbe_ddec_spin_density
 _atom_site_pbe_ddec_sum_bond_order
 _atom_site_pbe_magmom
Co  Co0  1  0.09331878  0.64697010  0.48461016  1  1.28022  2.585821  0.692848  0.861798  2.806132  2.612433  2.562
Co  Co1  1  0.06609063  0.52827298  0.70363403  1  1.399441  2.683097  0.682019  1.103313  2.911763  2.327318  2.669
Co  Co2  1  0.02603913  0.39945382  0.93364256  1  1.28514  2.597306  0.682015  0.865252  2.816653  2.577697  2.574
Co  Co3  1  0.64696882  0.09330116  0.98462493  1  1.280278  2.585749  0.692734  0.861669  2.806038  2.612098  2.562
Co  Co4  1  0.52827736  0.06608353  0.20363139  1  1.399766  2.683282  0.682152  1.103586  2.912054  2.327833  2.669
Co  Co5  1  0.39945679  0.02604838  0.43363442  1  1.284708  2.597241  0.681745  0.865007  2.816493  2.577266  2.573
H  H6  1  0.86991829  0.87626616  0.50255907  1  0.10066  0.000302  0.105075  0.108752  0.000103  1.006459  0.0
H  H7  1  0.71419205  0.98915838  0.53711076  1  0.079398  0.000121  0.100072  0.105725  2.3e-05  1.03142  0.0
H  H8  1  0.67576499  0.84931791  0.82501725  1  0.082267  0.000139  0.103055  0.107176  4.8e-05  1.015067  0.0
H  H9  1  0.83054249  0.73466287  0.78835066  1  0.067634  0.000408  0.106281  0.111348  0.000178  1.002837  0.0
H  H10  1  0.46373222  0.20947057  0.59073879  1  0.092481  0.000157  0.101671  0.107445  8.3e-05  1.023552  0.0
H  H11  1  0.31414888  0.33044193  0.62228418  1  0.088358  0.000265  0.105546  0.105606  9.1e-05  1.024652  0.0
H  H12  1  0.23338170  0.15974944  0.89938663  1  0.086118  0.000203  0.102949  0.1022  8.4e-05  1.027351  0.0
H  H13  1  0.38496337  0.04037461  0.87120565  1  0.076202  0.000136  0.097889  0.101994  6.8e-05  1.042508  0.0
H  H14  1  0.32540357  0.76292498  0.50832952  1  0.154778  0.00063  0.106767  0.119536  0.000386  1.033555  0.0
H  H15  1  0.46867599  0.72756367  0.55423002  1  0.078906  -5.1e-05  0.095664  0.098869  -0.000162  1.038705  0.0
H  H16  1  0.44045946  0.44338966  0.70010083  1  0.060815  -7.4e-05  0.094537  0.092095  -0.000153  1.068101  0.0
H  H17  1  0.29326896  0.47955405  0.65630608  1  0.133256  0.000216  0.104385  0.111167  -7.3e-05  1.038438  0.0
H  H18  1  0.73035312  0.63690499  0.65599987  1  0.061848  0.000149  0.098432  0.098913  9.8e-05  1.02577  0.0
H  H19  1  0.85510201  0.59113853  0.73125902  1  0.118166  7.3e-05  0.102883  0.109105  -0.000224  1.07083  0.0
H  H20  1  0.80164650  0.31372781  0.86422484  1  0.117806  0.000675  0.108132  0.121968  0.000417  1.01808  0.0
H  H21  1  0.67570666  0.35943252  0.79144270  1  0.08095  -4.9e-05  0.100568  0.106266  -0.000145  1.005584  0.0
H  H22  1  0.10529495  0.56502260  0.00953267  1  0.092385  0.000184  0.102588  0.10436  2.5e-05  1.026561  0.0
H  H23  1  0.16627699  0.66377138  0.04978184  1  0.058174  0.000142  0.095946  0.091947  4.2e-05  1.058107  0.0
H  H24  1  0.30889619  0.77146158  0.76420521  1  0.057807  7e-05  0.097982  0.100044  -3.1e-05  1.025949  0.0
H  H25  1  0.24070273  0.67719837  0.72535980  1  0.088935  0.000201  0.102322  0.105096  5.2e-05  1.042679  0.0
H  H26  1  0.23373834  0.91001574  0.09135004  1  0.096218  1.3e-05  0.097401  0.098843  -6.4e-05  1.025772  0.0
H  H27  1  0.31872991  0.97867784  0.14219278  1  0.105372  0.000309  0.104865  0.107597  0.000122  1.003742  0.0
H  H28  1  0.57657184  0.89047217  0.94861652  1  0.102601  0.000412  0.103068  0.10699  0.000173  1.02243  0.0
H  H29  1  0.49481416  0.81688264  0.89915705  1  0.056759  0.000152  0.102369  0.105577  8.1e-05  1.000451  0.0
H  H30  1  0.87825437  0.59045214  0.92171444  1  0.112961  0.002043  0.123455  0.099793  0.000423  0.987985  0.001
H  H31  1  0.75879263  0.67818310  0.03294169  1  0.081204  0.00104  0.112161  0.114733  0.000477  0.991922  0.0
H  H32  1  0.74265450  0.60106550  0.20092406  1  0.093071  -0.000225  0.110686  0.104757  -0.000348  0.997316  0.0
H  H33  1  0.84696131  0.44384667  0.24979108  1  0.076219  0.000986  0.108426  0.11117  0.000464  1.020323  0.0
H  H34  1  0.94714669  0.31568349  0.27873746  1  0.083758  0.000971  0.105288  0.108467  0.000458  1.032535  0.001
H  H35  1  0.07401762  0.16937262  0.29810001  1  0.105664  -0.000253  0.114443  0.113079  -0.00037  0.971062  0.0
H  H36  1  0.18339690  0.11799497  0.15887008  1  0.085528  0.000988  0.111874  0.117243  0.00045  0.994664  0.0
H  H37  1  0.15531892  0.21521802  0.00633870  1  0.104294  0.00187  0.116888  0.084818  0.000405  1.034441  0.002
H  H38  1  0.19573230  0.43511159  0.55245565  1  0.111967  0.001859  0.12023  0.098365  0.000293  1.034115  0.002
H  H39  1  0.30629154  0.30835031  0.47915069  1  0.09553  0.000906  0.110574  0.116209  0.000369  0.997934  0.0
H  H40  1  0.35546479  0.34729727  0.30873811  1  0.096453  -0.000177  0.111531  0.110824  -0.000331  0.991872  0.0
H  H41  1  0.29096211  0.50871820  0.21785546  1  0.059365  0.001028  0.108422  0.110748  0.000487  1.015197  0.001
H  H42  1  0.22462335  0.64812845  0.15288197  1  0.055387  0.001103  0.110416  0.114144  0.000517  1.013421  0.001
H  H43  1  0.13053455  0.80766305  0.09166743  1  0.092022  -0.000202  0.108006  0.103045  -0.000342  1.006698  0.0
H  H44  1  0.01889193  0.90143008  0.20099669  1  0.10549  0.001217  0.115142  0.119714  0.000564  0.977536  0.001
H  H45  1  0.01255751  0.83076694  0.36752280  1  0.117907  0.002443  0.126507  0.097586  0.000702  0.989494  0.002
H  H46  1  0.87624524  0.86993444  0.00258008  1  0.100944  0.000302  0.104924  0.108607  0.000103  1.00661  0.0
H  H47  1  0.98916827  0.71420903  0.03709066  1  0.078884  0.000121  0.100086  0.105801  2.3e-05  1.031275  0.0
H  H48  1  0.84934923  0.67574981  0.32501360  1  0.081088  0.000139  0.103048  0.107193  4.8e-05  1.015094  0.0
H  H49  1  0.73467536  0.83052400  0.28836962  1  0.067442  0.000408  0.10633  0.111271  0.000178  1.002882  0.0
H  H50  1  0.20946002  0.46375325  0.09072850  1  0.092306  0.000157  0.10171  0.107512  8.3e-05  1.023361  0.0
H  H51  1  0.33044162  0.31417749  0.12224737  1  0.08847  0.000266  0.105534  0.105554  9.1e-05  1.024666  0.0
H  H52  1  0.15978481  0.23337083  0.39935104  1  0.085939  0.000203  0.10293  0.102079  8.3e-05  1.027678  0.0
H  H53  1  0.04038595  0.38494540  0.37120617  1  0.073507  0.000136  0.097888  0.102102  6.8e-05  1.042401  0.0
H  H54  1  0.76290728  0.32538066  0.00835262  1  0.154767  0.00063  0.10671  0.119475  0.000387  1.033666  0.0
H  H55  1  0.72754928  0.46867166  0.05423293  1  0.079067  -5.1e-05  0.09566  0.098888  -0.000163  1.038909  0.0
H  H56  1  0.44336643  0.44046912  0.20009839  1  0.060485  -7.4e-05  0.09453  0.092198  -0.000153  1.067874  0.0
H  H57  1  0.47953726  0.29325772  0.15632419  1  0.133234  0.000216  0.104389  0.111224  -7.3e-05  1.038654  0.0
H  H58  1  0.63690987  0.73033893  0.15597828  1  0.061966  0.000149  0.098414  0.098942  9.8e-05  1.025764  0.0
H  H59  1  0.59115545  0.85510008  0.23122177  1  0.118125  7.3e-05  0.102889  0.109204  -0.000225  1.07076  0.0
H  H60  1  0.31373710  0.80166631  0.36419943  1  0.118106  0.000675  0.108113  0.121884  0.000417  1.018119  0.0
H  H61  1  0.35942954  0.67570876  0.29144162  1  0.081161  -4.9e-05  0.100503  0.106167  -0.000145  1.00563  0.0
H  H62  1  0.56502116  0.10530051  0.50951854  1  0.092515  0.000184  0.102568  0.104378  2.5e-05  1.026708  0.0
H  H63  1  0.66376813  0.16628248  0.54977362  1  0.058412  0.000142  0.095946  0.091971  4.2e-05  1.058229  0.0
H  H64  1  0.77146392  0.30889713  0.26420344  1  0.05794  7e-05  0.097988  0.100108  -3.1e-05  1.025904  0.0
H  H65  1  0.67720992  0.24070057  0.22535296  1  0.088827  0.000201  0.102312  0.105069  5.2e-05  1.042714  0.0
H  H66  1  0.91001195  0.23374326  0.59136669  1  0.095719  1.3e-05  0.097457  0.098966  -6.4e-05  1.025777  0.0
H  H67  1  0.97867746  0.31874091  0.64219343  1  0.10519  0.000308  0.104849  0.107627  0.000121  1.003922  0.0
H  H68  1  0.89045895  0.57657089  0.44861208  1  0.102794  0.000413  0.103088  0.107054  0.000173  1.022273  0.0
H  H69  1  0.81687691  0.49479785  0.39917110  1  0.0569  0.000152  0.102388  0.105558  8.1e-05  1.000665  0.0
H  H70  1  0.59045221  0.87826854  0.42171144  1  0.112894  0.002043  0.123505  0.099877  0.000423  0.987924  0.001
H  H71  1  0.67818363  0.75881697  0.53293445  1  0.081116  0.00104  0.112179  0.114745  0.000476  0.991891  0.0
H  H72  1  0.60107105  0.74266931  0.70091874  1  0.093469  -0.000224  0.110717  0.104681  -0.000348  0.997485  0.0
H  H73  1  0.44384455  0.84696418  0.74979534  1  0.076357  0.000985  0.108425  0.111183  0.000464  1.02039  0.0
H  H74  1  0.31567651  0.94715063  0.77874003  1  0.084212  0.000971  0.105277  0.108471  0.000458  1.03259  0.001
H  H75  1  0.16937187  0.07402362  0.79809946  1  0.105626  -0.000252  0.114423  0.113061  -0.000369  0.971058  0.0
H  H76  1  0.11799978  0.18339982  0.65887250  1  0.085364  0.000988  0.111874  0.117239  0.00045  0.994795  0.0
H  H77  1  0.21521697  0.15531557  0.50634058  1  0.104226  0.00187  0.116926  0.084825  0.000405  1.034377  0.002
H  H78  1  0.43510218  0.19573181  0.05246399  1  0.11237  0.001859  0.120166  0.098233  0.000293  1.034137  0.002
H  H79  1  0.30834156  0.30628714  0.97916446  1  0.095191  0.000906  0.110627  0.116256  0.000368  0.998042  0.0
H  H80  1  0.34728947  0.35546347  0.80875048  1  0.096532  -0.000176  0.111581  0.110932  -0.000331  0.991735  0.0
H  H81  1  0.50870758  0.29095563  0.71786347  1  0.059547  0.001027  0.108313  0.110604  0.000487  1.015139  0.001
H  H82  1  0.64812838  0.22460824  0.65288519  1  0.055379  0.001103  0.110416  0.114178  0.000517  1.013322  0.001
H  H83  1  0.80766616  0.13052977  0.59166632  1  0.092113  -0.000201  0.108007  0.103015  -0.000342  1.006716  0.0
H  H84  1  0.90143585  0.01889309  0.70099387  1  0.105401  0.001216  0.115128  0.119697  0.000564  0.977565  0.001
H  H85  1  0.83076529  0.01255668  0.86751884  1  0.117988  0.002443  0.12651  0.097566  0.000702  0.989382  0.002
C  C86  1  0.95121366  0.72979777  0.61954900  1  1.566627  -0.003689  0.21576  0.588806  -0.004463  4.160432  -0.002
C  C87  1  0.85968524  0.79898577  0.64324357  1  -0.02588  0.008124  -0.014184  -0.025242  0.003991  3.954649  0.007
C  C88  1  0.82659140  0.87127012  0.57281646  1  -0.043569  -0.000609  -0.084856  -0.0934  -0.000997  3.993419  0.0
C  C89  1  0.74019817  0.93412879  0.59209909  1  -0.05178  3.3e-05  -0.08721  -0.131169  -0.000217  3.957944  0.0
C  C90  1  0.68452370  0.92712177  0.68348292  1  0.082269  -0.002068  -0.003005  0.129856  -0.002354  4.131669  -0.001
C  C91  1  0.71820508  0.85470178  0.75438418  1  -0.014674  -0.001015  -0.088685  -0.136117  -0.001191  3.95772  0.0
C  C92  1  0.80443214  0.79130133  0.73413530  1  -0.045927  -0.000196  -0.083485  -0.095961  -0.000865  3.995812  0.0
C  C93  1  0.59683829  0.99199626  0.70182854  1  -0.354457  -0.002582  -0.041202  -0.097539  -0.002672  4.102737  -0.001
C  C94  1  0.52163592  0.04993755  0.71368513  1  -0.023997  -0.001107  -0.042127  -0.103469  -0.001153  4.095961  0.0
C  C95  1  0.43494133  0.11687130  0.72921888  1  0.075232  -0.003667  -0.002172  0.133977  -0.004013  4.120775  -0.002
C  C96  1  0.41342920  0.19875813  0.65854444  1  -0.033301  0.000238  -0.08502  -0.12987  -0.000146  3.938825  0.0
C  C97  1  0.32962426  0.26591446  0.67579777  1  -0.056281  -0.001579  -0.085164  -0.095984  -0.002053  3.995302  -0.001
C  C98  1  0.26448124  0.25291058  0.76288905  1  -0.051137  0.009036  -0.018618  -0.042469  0.004484  3.983683  0.008
C  C99  1  0.28464424  0.17018560  0.83224038  1  -0.031583  -0.002094  -0.086058  -0.099894  -0.002488  4.013116  -0.001
C  C100  1  0.36872181  0.10333819  0.81654028  1  -0.032773  0.000646  -0.084502  -0.123001  0.000123  3.939373  0.001
C  C101  1  0.17729201  0.32805405  0.78383312  1  1.572128  -0.006847  0.216693  0.585031  -0.008149  4.173971  -0.005
C  C102  1  0.22124027  0.64095859  0.54422834  1  1.509607  0.004075  0.215586  0.58106  0.002038  4.121922  0.002
C  C103  1  0.30168385  0.62250336  0.57823184  1  -0.029678  0.002176  -0.01501  -0.029238  0.001077  3.969039  0.001
C  C104  1  0.35052106  0.69268817  0.55024957  1  -0.033357  0.002031  -0.075978  -0.083685  0.001053  3.950818  0.001
C  C105  1  0.43085370  0.67310899  0.57599750  1  -0.061353  -7.2e-05  -0.085915  -0.126059  -0.000239  3.93058  0.0
C  C106  1  0.46473401  0.58213351  0.62940589  1  0.095616  0.000577  0.000817  0.143819  0.000296  4.119751  0.0
C  C107  1  0.41410369  0.51269067  0.65811744  1  -0.030146  2.9e-05  -0.091083  -0.137034  -0.0001  3.957964  0.0
C  C108  1  0.33317057  0.53259424  0.63363287  1  -0.075838  0.001865  -0.084599  -0.08936  0.000888  3.971335  0.001
C  C109  1  0.54716403  0.55783626  0.65589890  1  -0.19116  -4.3e-05  -0.047433  -0.10846  -8.7e-05  4.116266  0.0
C  C110  1  0.61648789  0.53067738  0.68326731  1  -0.217381  0.000285  -0.046691  -0.108005  0.000118  4.118367  0.0
C  C111  1  0.69279337  0.50202459  0.71990587  1  0.118344  0.000212  0.000628  0.140694  0.000102  4.11857  0.0
C  C112  1  0.74525291  0.56659731  0.70246919  1  -0.067379  0.00034  -0.089527  -0.13648  0.000147  3.958709  0.0
C  C113  1  0.81515344  0.54117830  0.74410307  1  -0.025614  0.0015  -0.086696  -0.090639  0.000618  3.984271  0.001
C  C114  1  0.83601003  0.45021324  0.80283030  1  0.020842  0.00205  -0.014051  -0.026543  0.000965  3.966298  0.001
C  C115  1  0.78637098  0.38444563  0.81853060  1  -0.059794  0.001537  -0.080349  -0.091538  0.000818  3.963668  0.001
C  C116  1  0.71549130  0.40998346  0.77768180  1  -0.008414  -9.9e-05  -0.080449  -0.115357  -0.000217  3.919027  0.0
C  C117  1  0.90718174  0.42640862  0.85062367  1  1.465168  0.003596  0.211706  0.575547  0.001761  4.1243  0.002
C  C118  1  0.12938509  0.55493642  0.84414064  1  1.557611  -0.004979  0.216376  0.592473  -0.00585  4.172812  -0.003
C  C119  1  0.16975813  0.61441035  0.86520495  1  0.033401  0.010018  -0.013557  -0.019441  0.005235  3.942283  0.008
C  C120  1  0.14961763  0.61095078  0.95642767  1  -0.02076  0.000638  -0.090934  -0.107461  3.4e-05  4.016776  0.0
C  C121  1  0.18430977  0.66597543  0.97869730  1  -0.060058  0.000334  -0.091032  -0.138205  0.000163  3.971567  0.0
C  C122  1  0.24296060  0.72434798  0.90992409  1  0.069404  -3.7e-05  -0.006153  0.129999  -0.000149  4.125097  0.0
C  C123  1  0.26338586  0.72718601  0.81814014  1  -0.022214  0.000169  -0.083043  -0.121118  -1.2e-05  3.934045  0.0
C  C124  1  0.22591298  0.67392147  0.79623875  1  -0.053739  0.000751  -0.081869  -0.081779  -6e-05  3.959896  0.0
C  C125  1  0.28113484  0.77678704  0.93467458  1  -0.353868  -0.001244  -0.045697  -0.109508  -0.001273  4.111564  -0.001
C  C126  1  0.31349497  0.81733662  0.96181128  1  -0.055479  0.00018  -0.046552  -0.113807  -2.3e-05  4.110618  0.0
C  C127  1  0.35836929  0.85900519  0.99144223  1  0.076487  -0.0018  -0.00232  0.132536  -0.001963  4.119537  -0.001
C  C128  1  0.30901155  0.90530186  0.06017510  1  -0.061685  0.000555  -0.08851  -0.133041  0.000134  3.949357  0.0
C  C129  1  0.35603226  0.94386657  0.08842640  1  -0.044846  -0.000559  -0.080244  -0.085329  -0.00104  3.98102  0.0
C  C130  1  0.45260870  0.93880230  0.04791348  1  -0.009453  0.00802  -0.00932  -0.015964  0.004225  3.936825  0.006
C  C131  1  0.50171099  0.89291312  0.97956413  1  -0.05486  3.1e-05  -0.086669  -0.096908  -0.00045  3.994227  0.0
C  C132  1  0.45606812  0.85299246  0.95183657  1  -0.03045  0.000496  -0.084288  -0.133144  0.000186  3.966732  0.0
C  C133  1  0.50489942  0.98470152  0.07180477  1  1.558315  0.002163  0.207982  0.574389  0.000787  4.204987  0.002
C  C134  1  0.86845694  0.56117842  0.99520083  1  0.468302  -0.010117  0.05296  0.096888  -0.010678  3.938864  -0.006
C  C135  1  0.80256915  0.60896402  0.05725935  1  -0.043437  0.003086  -0.079159  -0.130837  0.000964  3.987607  0.003
C  C136  1  0.79388078  0.56610810  0.15029449  1  0.020592  -0.01663  -0.06555  -0.026216  -0.017793  3.978462  -0.01
C  C137  1  0.85193738  0.47802636  0.17770711  1  -0.087107  0.004393  -0.073705  -0.150907  0.001758  3.943133  0.004
C  C138  1  0.91734340  0.43429392  0.11147670  1  0.562509  -0.011909  0.122124  0.170292  -0.013716  3.978299  -0.007
C  C139  1  0.98524622  0.34330561  0.13202045  1  0.422628  -0.011685  0.121674  0.168461  -0.013645  3.971096  -0.007
C  C140  1  0.99415841  0.29154900  0.21964725  1  0.061526  0.004278  -0.075933  -0.151075  0.0016  3.949936  0.004
C  C141  1  0.06506223  0.20945455  0.23059396  1  -0.052947  -0.017085  -0.064203  -0.02445  -0.018222  3.977044  -0.01
C  C142  1  0.12558264  0.18057027  0.15368330  1  -0.035236  0.002434  -0.081587  -0.130618  0.000353  3.982117  0.003
C  C143  1  0.11128279  0.23408030  0.06895068  1  0.482452  -0.009565  0.051043  0.099438  -0.009966  3.946786  -0.005
C  C144  1  0.21899477  0.44809102  0.47858778  1  0.46539  -0.010418  0.051054  0.10796  -0.010994  3.91029  -0.006
C  C145  1  0.28033565  0.37848263  0.43750337  1  0.018792  0.002644  -0.082013  -0.126603  0.000662  3.958211  0.003
C  C146  1  0.30743957  0.40041658  0.34250732  1  -0.044301  -0.016828  -0.066521  -0.024711  -0.017985  3.97533  -0.01
C  C147  1  0.27171006  0.49052282  0.29195803  1  0.035102  0.003778  -0.079192  -0.157999  0.00144  3.958712  0.003
C  C148  1  0.20967356  0.55688837  0.33773491  1  0.442515  -0.011723  0.121572  0.166945  -0.013434  3.990521  -0.007
C  C149  1  0.16427679  0.65320857  0.29263732  1  0.440229  -0.012444  0.125813  0.174869  -0.014553  3.970388  -0.007
C  C150  1  0.17562849  0.68973117  0.19871073  1  0.053287  0.004938  -0.075968  -0.152981  0.002052  3.948668  0.004
C  C151  1  0.12320564  0.77917197  0.16458867  1  -0.053233  -0.017406  -0.069187  -0.035916  -0.01856  3.989872  -0.011
C  C152  1  0.06187263  0.83155658  0.22488479  1  0.007812  0.003175  -0.07927  -0.129156  0.000829  3.982254  0.004
C  C153  1  0.05695015  0.79287007  0.31701371  1  0.445932  -0.008981  0.056747  0.102382  -0.009439  3.936331  -0.005
C  C154  1  0.72979285  0.95120537  0.11957723  1  1.568677  -0.003699  0.216152  0.589555  -0.004469  4.160112  -0.002
C  C155  1  0.79898840  0.85967551  0.14325851  1  -0.026564  0.008124  -0.014255  -0.025432  0.003991  3.954869  0.007
C  C156  1  0.87127223  0.82658736  0.07282477  1  -0.043733  -0.000612  -0.084633  -0.093212  -0.000999  3.993137  0.0
C  C157  1  0.93414227  0.74019401  0.09208991  1  -0.050847  3.3e-05  -0.087322  -0.131292  -0.000217  3.957602  0.0
C  C158  1  0.92713068  0.68452910  0.18347714  1  0.084687  -0.002066  -0.003063  0.129881  -0.002357  4.131648  -0.001
C  C159  1  0.85471527  0.71819812  0.25438657  1  -0.013375  -0.001017  -0.088651  -0.136325  -0.001193  3.957593  0.0
C  C160  1  0.79130933  0.80442341  0.23414771  1  -0.045796  -0.000196  -0.083535  -0.095669  -0.000866  3.995822  0.0
C  C161  1  0.99200895  0.59684559  0.20181208  1  -0.356789  -0.002589  -0.040925  -0.097423  -0.002676  4.102586  -0.001
C  C162  1  0.04993488  0.52162920  0.21369758  1  -0.024137  -0.001108  -0.042369  -0.103622  -0.001154  4.095917  0.0
C  C163  1  0.11688025  0.43493701  0.22920557  1  0.075392  -0.003673  -0.002119  0.134099  -0.004019  4.120896  -0.002
C  C164  1  0.19876805  0.41343306  0.15852551  1  -0.032387  0.000238  -0.085263  -0.130156  -0.000147  3.93878  0.0
C  C165  1  0.26592371  0.32962660  0.17577703  1  -0.056487  -0.001584  -0.085043  -0.095864  -0.002056  3.995188  -0.001
C  C166  1  0.25292438  0.26448480  0.26286415  1  -0.051628  0.009039  -0.01855  -0.042242  0.004485  3.983516  0.008
C  C167  1  0.17019599  0.28464347  0.33221696  1  -0.031779  -0.002099  -0.086079  -0.099739  -0.002493  4.01361  -0.001
C  C168  1  0.10334321  0.36872016  0.31652775  1  -0.029983  0.000646  -0.08446  -0.123207  0.000123  3.939583  0.001
C  C169  1  0.32807332  0.17729666  0.28380564  1  1.572235  -0.006856  0.216736  0.585073  -0.008166  4.173973  -0.005
C  C170  1  0.64095288  0.22122130  0.04424041  1  1.509665  0.004083  0.215642  0.581167  0.002045  4.121602  0.002
C  C171  1  0.62249502  0.30166433  0.07824919  1  -0.028695  0.002174  -0.01493  -0.029152  0.001077  3.96922  0.001
C  C172  1  0.69268016  0.35050297  0.05026920  1  -0.033116  0.002032  -0.075895  -0.08357  0.001054  3.95087  0.001
C  C173  1  0.67309864  0.43084709  0.07600531  1  -0.06153  -7.1e-05  -0.085979  -0.126091  -0.000239  3.930647  0.0
C  C174  1  0.58211566  0.46471609  0.12940837  1  0.09838  0.000578  0.000729  0.143485  0.000296  4.119465  0.0
C  C175  1  0.51266866  0.41409376  0.15812531  1  -0.029266  2.9e-05  -0.090899  -0.136754  -0.0001  3.957717  0.0
C  C176  1  0.53258222  0.33315023  0.13364943  1  -0.077098  0.001867  -0.084731  -0.089616  0.000889  3.971963  0.001
C  C177  1  0.55781929  0.54716423  0.15589092  1  -0.194139  -4.1e-05  -0.047559  -0.108535  -8.6e-05  4.116097  0.0
C  C178  1  0.53066318  0.61648825  0.18325939  1  -0.217102  0.000286  -0.046511  -0.107881  0.000118  4.118102  0.0
C  C179  1  0.50202204  0.69280609  0.21989294  1  0.118861  0.000216  0.000459  0.140722  0.000104  4.118341  0.0
C  C180  1  0.56660158  0.74526067  0.20244828  1  -0.069073  0.000339  -0.089508  -0.136662  0.000146  3.958862  0.0
C  C181  1  0.54118008  0.81516604  0.24407758  1  -0.024438  0.0015  -0.08657  -0.090765  0.000619  3.984413  0.001
C  C182  1  0.45021726  0.83603680  0.30280618  1  0.020651  0.002048  -0.01407  -0.026132  0.000964  3.965562  0.001
C  C183  1  0.38445068  0.78638992  0.31850778  1  -0.059842  0.001539  -0.08051  -0.091704  0.000819  3.963341  0.001
C  C184  1  0.40997838  0.71550168  0.27767000  1  -0.008681  -9.9e-05  -0.080301  -0.115272  -0.000217  3.918956  0.0
C  C185  1  0.42641479  0.90720439  0.35060861  1  1.466132  0.003604  0.211696  0.575788  0.001771  4.124149  0.002
C  C186  1  0.55493519  0.12939437  0.34413131  1  1.557794  -0.004984  0.216338  0.592413  -0.005855  4.172874  -0.003
C  C187  1  0.61440868  0.16976490  0.36519960  1  0.03317  0.010019  -0.013563  -0.019497  0.005235  3.942513  0.008
C  C188  1  0.61094860  0.14962176  0.45642336  1  -0.020619  0.000638  -0.090955  -0.107583  3.4e-05  4.0168  0.0
C  C189  1  0.66597940  0.18431753  0.47868999  1  -0.060138  0.000334  -0.090973  -0.138048  0.000163  3.971731  0.0
C  C190  1  0.72434927  0.24296135  0.40991238  1  0.068784  -3.7e-05  -0.006151  0.129862  -0.000148  4.125211  0.0
C  C191  1  0.72718834  0.26338807  0.31812945  1  -0.022533  0.000169  -0.083054  -0.121257  -1.2e-05  3.933915  0.0
C  C192  1  0.67391894  0.22590985  0.29623299  1  -0.053309  0.000752  -0.081808  -0.081554  -6e-05  3.959982  0.0
C  C193  1  0.77679153  0.28112652  0.43468001  1  -0.35385  -0.001244  -0.045781  -0.109587  -0.001273  4.111297  -0.001
C  C194  1  0.81733935  0.31348299  0.46182284  1  -0.055059  0.000181  -0.046462  -0.113542  -2.3e-05  4.110398  0.0
C  C195  1  0.85900478  0.35836944  0.49145181  1  0.07669  -0.001801  -0.0023  0.132211  -0.001964  4.119912  -0.001
C  C196  1  0.90529695  0.30901041  0.56018324  1  -0.061275  0.000556  -0.088633  -0.133103  0.000135  3.949212  0.0
C  C197  1  0.94386794  0.35603491  0.58842917  1  -0.044661  -0.000561  -0.080261  -0.085348  -0.001042  3.980724  0.0
C  C198  1  0.93880744  0.45261271  0.54790587  1  -0.010029  0.008024  -0.009312  -0.016207  0.004226  3.936828  0.006
C  C199  1  0.89291342  0.50171311  0.47956485  1  -0.054608  3e-05  -0.086707  -0.096886  -0.00045  3.994102  0.0
C  C200  1  0.85298889  0.45606439  0.45184618  1  -0.031271  0.000496  -0.08433  -0.133031  0.000186  3.967117  0.0
C  C201  1  0.98471284  0.50491267  0.57178564  1  1.557277  0.002166  0.207835  0.574327  0.000788  4.204882  0.002
C  C202  1  0.56118803  0.86846760  0.49519941  1  0.467714  -0.010109  0.052893  0.09675  -0.010671  3.939077  -0.006
C  C203  1  0.60896735  0.80258773  0.55725858  1  -0.042861  0.003078  -0.079199  -0.130937  0.000961  3.987773  0.003
C  C204  1  0.56611099  0.79389585  0.65029350  1  0.020404  -0.016623  -0.065561  -0.026052  -0.017784  3.978582  -0.01
C  C205  1  0.47802665  0.85194278  0.67771369  1  -0.087582  0.00439  -0.073756  -0.150951  0.001756  3.943249  0.004
C  C206  1  0.43429113  0.91734834  0.61148571  1  0.562835  -0.011907  0.122031  0.170114  -0.013713  3.978462  -0.007
C  C207  1  0.34330345  0.98524817  0.63202871  1  0.423121  -0.011684  0.121736  0.168653  -0.013644  3.971257  -0.007
C  C208  1  0.29154405  0.99416323  0.71965520  1  0.059838  0.004278  -0.075912  -0.151154  0.0016  3.950219  0.004
C  C209  1  0.20945691  0.06506601  0.73059465  1  -0.052511  -0.017072  -0.06413  -0.024313  -0.018209  3.977195  -0.01
C  C210  1  0.18057011  0.12558707  0.65368935  1  -0.035016  0.002431  -0.081661  -0.130773  0.000351  3.982149  0.003
C  C211  1  0.23407454  0.11128994  0.56895378  1  0.483343  -0.009566  0.051226  0.099802  -0.00996  3.946586  -0.005
C  C212  1  0.44807839  0.21899020  0.97859516  1  0.464317  -0.01041  0.051077  0.108113  -0.010987  3.910196  -0.006
C  C213  1  0.37847193  0.28032686  0.93751648  1  0.019078  0.002641  -0.082082  -0.126532  0.000661  3.958084  0.003
C  C214  1  0.40040544  0.30743471  0.84251800  1  -0.044216  -0.016825  -0.066528  -0.024917  -0.01798  3.974842  -0.01
C  C215  1  0.49051200  0.27170032  0.79196666  1  0.03463  0.003779  -0.079138  -0.157834  0.001439  3.958435  0.003
C  C216  1  0.55687531  0.20966187  0.83774135  1  0.443337  -0.011718  0.121485  0.166768  -0.013427  3.990683  -0.007
C  C217  1  0.65320055  0.16426683  0.79264000  1  0.439834  -0.012442  0.12578  0.174887  -0.014549  3.970314  -0.007
C  C218  1  0.68972746  0.17561552  0.69871705  1  0.053825  0.004935  -0.075955  -0.153017  0.002051  3.948659  0.004
C  C219  1  0.77917243  0.12320117  0.66458609  1  -0.091509  -0.017397  -0.069156  -0.035853  -0.018558  3.989737  -0.01
C  C220  1  0.83156042  0.06187034  0.72488387  1  0.04596  0.003163  -0.07926  -0.129122  0.000828  3.982494  0.004
C  C221  1  0.79287004  0.05694858  0.81700743  1  0.445811  -0.008975  0.056733  0.102337  -0.009433  3.936676  -0.005
N  N222  1  0.92414742  0.47569854  0.02150602  1  -1.223287  0.050756  -0.32003  -0.272358  0.026341  3.564945  0.046
N  N223  1  0.04280604  0.31337345  0.05789679  1  -1.214279  0.055285  -0.321548  -0.264998  0.029778  3.549863  0.046
N  N224  1  0.18464448  0.53532367  0.42993418  1  -1.214273  0.055545  -0.318147  -0.274664  0.028473  3.538792  0.051
N  N225  1  0.10646700  0.70585983  0.35018384  1  -1.215293  0.061975  -0.326115  -0.263176  0.03323  3.57218  0.049
N  N226  1  0.47570615  0.92414996  0.52151623  1  -1.223244  0.050742  -0.319845  -0.272087  0.026335  3.564719  0.046
N  N227  1  0.31336490  0.04281115  0.55791053  1  -1.214828  0.055263  -0.321741  -0.265444  0.029766  3.550042  0.046
N  N228  1  0.53530867  0.18463238  0.92994205  1  -1.214192  0.055539  -0.318006  -0.274569  0.028467  3.538629  0.051
N  N229  1  0.70585853  0.10645707  0.85018353  1  -1.215296  0.061943  -0.326017  -0.2631  0.033212  3.572001  0.049
O  O230  1  0.00270122  0.75073962  0.53701821  1  -1.147511  0.076537  -0.31623  -0.542196  0.039674  2.354251  0.063
O  O231  1  0.96935649  0.65467898  0.68231914  1  -1.157825  0.077583  -0.302853  -0.562369  0.040932  2.403587  0.066
O  O232  1  0.16538979  0.40415771  0.72016054  1  -1.16209  0.077129  -0.301668  -0.557432  0.040411  2.405528  0.067
O  O233  1  0.12361821  0.31008863  0.86566240  1  -1.161978  0.069381  -0.316043  -0.551634  0.036224  2.394933  0.059
O  O234  1  0.20855575  0.70766765  0.47433708  1  -1.1366  0.081418  -0.288397  -0.50269  0.040878  2.161063  0.071
O  O235  1  0.16598072  0.58257162  0.58245524  1  -1.134432  0.127902  -0.31672  -0.598754  0.068301  2.526662  0.108
O  O236  1  0.96489072  0.48064243  0.82315043  1  -1.148687  0.111336  -0.318566  -0.606328  0.059686  2.495017  0.095
O  O237  1  0.91043012  0.35760515  0.92181414  1  -1.127084  0.087924  -0.294137  -0.507208  0.044976  2.144098  0.074
O  O238  1  0.11675767  0.58268441  0.76603300  1  -1.141681  0.070205  -0.301653  -0.551868  0.035821  2.365344  0.063
O  O239  1  0.11002746  0.48162863  0.90932593  1  -1.156277  0.079496  -0.323756  -0.567348  0.040972  2.378491  0.067
O  O240  1  0.58897023  0.98536391  0.02005982  1  -1.16215  0.072184  -0.32301  -0.565725  0.037131  2.397366  0.059
O  O241  1  0.46390667  0.02101453  0.13760785  1  -1.155208  0.057395  -0.304487  -0.57671  0.02948  2.329969  0.051
O  O242  1  0.75073837  0.00268976  0.03705090  1  -1.149331  0.076525  -0.316463  -0.542504  0.039659  2.354391  0.063
O  O243  1  0.65466459  0.96934408  0.18235453  1  -1.158003  0.077607  -0.303003  -0.562784  0.040947  2.403538  0.066
O  O244  1  0.40419004  0.16538805  0.22013204  1  -1.162411  0.077179  -0.301806  -0.55767  0.040441  2.405461  0.067
O  O245  1  0.31010577  0.12363657  0.36562999  1  -1.161598  0.069329  -0.315901  -0.551548  0.036207  2.395367  0.059
O  O246  1  0.70766878  0.20855897  0.97434988  1  -1.13693  0.081393  -0.28844  -0.50274  0.040866  2.161121  0.071
O  O247  1  0.58256406  0.16595810  0.08246506  1  -1.135047  0.127928  -0.316683  -0.598707  0.068322  2.526603  0.108
O  O248  1  0.48064725  0.96492140  0.32313058  1  -1.149081  0.11137  -0.31854  -0.606436  0.059702  2.495146  0.095
O  O249  1  0.35761619  0.91042661  0.42179375  1  -1.127183  0.087871  -0.29409  -0.507325  0.04495  2.144305  0.074
O  O250  1  0.58268862  0.11674516  0.26602446  1  -1.142029  0.070234  -0.301597  -0.551828  0.035835  2.365297  0.063
O  O251  1  0.48162590  0.11004903  0.40931061  1  -1.156112  0.079486  -0.323728  -0.567247  0.040963  2.378475  0.067
O  O252  1  0.98538586  0.58898309  0.52002175  1  -1.160815  0.072206  -0.322907  -0.565594  0.037148  2.396962  0.059
O  O253  1  0.02101709  0.46392417  0.63758244  1  -1.15498  0.057353  -0.304387  -0.576628  0.029459  2.330313  0.051
