# generated using pymatgen
data_H3PbC7NO4
_symmetry_space_group_name_H-M   'P 1'
_cell_length_a   5.52311561
_cell_length_b   9.85520686
_cell_length_c   14.56075530
_cell_angle_alpha   105.52081752
_cell_angle_beta   90.00459246
_cell_angle_gamma   90.01507106
_symmetry_Int_Tables_number   1
_chemical_formula_structural   H3PbC7NO4
_chemical_formula_sum   'H12 Pb4 C28 N4 O16'
_cell_volume   763.66078051
_cell_formula_units_Z   4
loop_
 _symmetry_equiv_pos_site_id
 _symmetry_equiv_pos_as_xyz
  1  'x, y, z'
loop_
 _atom_site_type_symbol
 _atom_site_label
 _atom_site_symmetry_multiplicity
 _atom_site_fract_x
 _atom_site_fract_y
 _atom_site_fract_z
 _atom_site_occupancy
 _atom_site_pbe_bader_spin_density
 _atom_site_pbe_cm5_charge
 _atom_site_pbe_ddec_charge
 _atom_site_pbe_ddec_spin_density
 _atom_site_pbe_ddec_sum_bond_order
 _atom_site_pbe_magmom
H  H0  1  0.76454745  0.79876041  0.78664556  1  0  0.115001  0.128215  0  1.013068  0
H  H1  1  0.26451625  0.70115602  0.71327435  1  0  0.115097  0.128559  0  1.013023  0
H  H2  1  0.23547063  0.20126748  0.21331232  1  0  0.115076  0.128308  0  1.012918  0
H  H3  1  0.73529727  0.29874865  0.28666425  1  0  0.115025  0.128399  0  1.013054  0
H  H4  1  0.14269565  0.77472265  0.87490102  1  0  0.115193  0.126468  0  0.997374  0
H  H5  1  0.64254719  0.72532757  0.62501188  1  0  0.115063  0.126139  0  0.997579  0
H  H6  1  0.85736767  0.22529438  0.12503573  1  0  0.115008  0.12638  0  0.997599  0
H  H7  1  0.35729713  0.27466177  0.37496476  1  0  0.115129  0.126143  0  0.997614  0
H  H8  1  0.37765275  0.99345460  0.95396562  1  0  0.107855  0.114123  0  1.035478  0
H  H9  1  0.87772536  0.50672237  0.54608134  1  0  0.107944  0.114273  0  1.035531  0
H  H10  1  0.62233459  0.00657371  0.04601637  1  0  0.107812  0.114167  0  1.035376  0
H  H11  1  0.12232541  0.49332256  0.45394817  1  0  0.107951  0.114238  0  1.035496  0
Pb  Pb12  1  0.74278403  0.38643011  0.88502288  1  0  0.644624  1.076703  0  1.80422  0
Pb  Pb13  1  0.24291006  0.11353727  0.61497946  1  0  0.644567  1.076646  0  1.804225  0
Pb  Pb14  1  0.25713455  0.61358175  0.11497894  1  0  0.64453  1.076722  0  1.804264  0
Pb  Pb15  1  0.75721489  0.88641613  0.38497921  1  0  0.644534  1.0766  0  1.804214  0
C  C16  1  0.79078777  0.02546109  0.82185836  1  0  0.120689  0.104287  0  3.965197  0
C  C17  1  0.29099532  0.47448443  0.67820038  1  0  0.120674  0.10425  0  3.965191  0
C  C18  1  0.20914894  0.97456902  0.17816586  1  0  0.120893  0.104378  0  3.96512  0
C  C19  1  0.70904459  0.52543687  0.32178433  1  0  0.120856  0.104545  0  3.965689  0
C  C20  1  0.86774968  0.89115026  0.82368925  1  0  -0.061461  -0.105572  0  3.877351  0
C  C21  1  0.36779906  0.60880826  0.67629293  1  0  -0.061751  -0.106509  0  3.877568  0
C  C22  1  0.13224129  0.10887499  0.17629771  1  0  -0.061666  -0.105661  0  3.876962  0
C  C23  1  0.63213400  0.39112640  0.32367695  1  0  -0.061639  -0.106157  0  3.877039  0
C  C24  1  0.07945051  0.87855157  0.87292523  1  0  -0.060361  -0.018006  0  3.917726  0
C  C25  1  0.57944343  0.62148421  0.62705062  1  0  -0.059938  -0.016644  0  3.916607  0
C  C26  1  0.92055854  0.12147346  0.12704863  1  0  -0.060158  -0.017825  0  3.917655  0
C  C27  1  0.42048781  0.37849486  0.37293727  1  0  -0.060028  -0.016968  0  3.916715  0
C  C28  1  0.20829758  0.99941851  0.91747769  1  0  -0.067007  -0.109988  0  3.921102  0
C  C29  1  0.70840751  0.50068144  0.58256690  1  0  -0.067344  -0.110881  0  3.921566  0
C  C30  1  0.79166444  0.00061535  0.08252107  1  0  -0.06706  -0.110252  0  3.921185  0
C  C31  1  0.29163420  0.49932750  0.41744606  1  0  -0.067271  -0.110384  0  3.921194  0
C  C32  1  0.11641634  0.13054350  0.91552570  1  0  0.119202  0.107209  0  3.963747  0
C  C33  1  0.61665227  0.36952905  0.58458459  1  0  0.119412  0.107787  0  3.96343  0
C  C34  1  0.88349322  0.86949198  0.08450563  1  0  0.119252  0.107232  0  3.963836  0
C  C35  1  0.38348179  0.63046097  0.41542577  1  0  0.119458  0.107692  0  3.963342  0
C  C36  1  0.57818896  0.04603261  0.76164378  1  0  0.209137  0.522952  0  4.251784  0
C  C37  1  0.07842279  0.45385383  0.73840646  1  0  0.209611  0.523427  0  4.251405  0
C  C38  1  0.42174956  0.95399224  0.23838021  1  0  0.209126  0.522966  0  4.252003  0
C  C39  1  0.92161713  0.54605485  0.26157675  1  0  0.209638  0.523457  0  4.250655  0
C  C40  1  0.24951292  0.26587529  0.96179006  1  0  0.211412  0.531684  0  4.255788  0
C  C41  1  0.74980043  0.23425571  0.53835467  1  0  0.211265  0.531382  0  4.256468  0
C  C42  1  0.75035863  0.73417402  0.03825192  1  0  0.211435  0.531866  0  4.256178  0
C  C43  1  0.25041690  0.76576902  0.46165825  1  0  0.211126  0.531264  0  4.257189  0
N  N44  1  0.91057854  0.14174294  0.86937893  1  0  -0.282388  -0.258008  0  3.467256  0
N  N45  1  0.41086832  0.35825129  0.63073924  1  0  -0.28229  -0.258036  0  3.467042  0
N  N46  1  0.08930570  0.85828967  0.13066839  1  0  -0.282377  -0.258102  0  3.467228  0
N  N47  1  0.58926213  0.64169550  0.36926086  1  0  -0.282481  -0.258458  0  3.467827  0
O  O48  1  0.51058072  0.17315263  0.76790473  1  0  -0.286441  -0.560315  0  2.283392  0
O  O49  1  0.01084829  0.32672166  0.73217424  1  0  -0.286857  -0.560569  0  2.283238  0
O  O50  1  0.48930895  0.82686723  0.23213420  1  0  -0.28656  -0.56048  0  2.283545  0
O  O51  1  0.98921155  0.67319352  0.26781970  1  0  -0.286796  -0.560678  0  2.283243  0
O  O52  1  0.48287555  0.93943829  0.70585345  1  0  -0.293204  -0.530222  0  2.171444  0
O  O53  1  0.98307773  0.56042959  0.79416381  1  0  -0.29341  -0.530475  0  2.171204  0
O  O54  1  0.51712269  0.06058406  0.29414674  1  0  -0.293121  -0.530061  0  2.17147  0
O  O55  1  0.01695674  0.43948739  0.20581398  1  0  -0.293374  -0.530325  0  2.17068  0
O  O56  1  0.14919505  0.38171848  0.95653310  1  0  -0.285987  -0.574375  0  2.296749  0
O  O57  1  0.64948688  0.11836180  0.54356728  1  0  -0.286352  -0.574583  0  2.296921  0
O  O58  1  0.85062944  0.61831932  0.04351239  1  0  -0.286315  -0.574652  0  2.297008  0
O  O59  1  0.35077569  0.88164155  0.45642338  1  0  -0.286195  -0.574519  0  2.297418  0
O  O60  1  0.45208958  0.25857596  0.99960004  1  0  -0.306123  -0.55496  0  2.15338  0
O  O61  1  0.95240825  0.24167272  0.50060382  1  0  -0.30583  -0.554928  0  2.153657  0
O  O62  1  0.54778378  0.74149651  0.00044596  1  0  -0.305919  -0.554997  0  2.153309  0
O  O63  1  0.04783625  0.75840185  0.49943629  1  0  -0.305891  -0.55487  0  2.15405  0
