# generated using pymatgen
data_ZnH13C15NO5
_symmetry_space_group_name_H-M   'P 1'
_cell_length_a   7.11807487
_cell_length_b   13.57156466
_cell_length_c   14.09790000
_cell_angle_alpha   90.00000000
_cell_angle_beta   90.00000000
_cell_angle_gamma   95.32159077
_symmetry_Int_Tables_number   1
_chemical_formula_structural   ZnH13C15NO5
_chemical_formula_sum   'Zn4 H52 C60 N4 O20'
_cell_volume   1356.03520343
_cell_formula_units_Z   4
loop_
 _symmetry_equiv_pos_site_id
 _symmetry_equiv_pos_as_xyz
  1  'x, y, z'
loop_
 _atom_site_type_symbol
 _atom_site_label
 _atom_site_symmetry_multiplicity
 _atom_site_fract_x
 _atom_site_fract_y
 _atom_site_fract_z
 _atom_site_occupancy
 _atom_site_hle17_bader_spin_density
 _atom_site_hle17_ddec_charge
 _atom_site_hle17_ddec_spin_density
 _atom_site_hle17_ddec_sum_bond_order
 _atom_site_hle17_magmom
 _atom_site_hse06_10hf_bader_spin_density
 _atom_site_hse06_10hf_ddec_charge
 _atom_site_hse06_10hf_ddec_spin_density
 _atom_site_hse06_10hf_ddec_sum_bond_order
 _atom_site_hse06_10hf_magmom
 _atom_site_hse06_bader_spin_density
 _atom_site_hse06_ddec_charge
 _atom_site_hse06_ddec_spin_density
 _atom_site_hse06_ddec_sum_bond_order
 _atom_site_hse06_magmom
 _atom_site_pbe_bader_charge
 _atom_site_pbe_bader_spin_density
 _atom_site_pbe_cm5_charge
 _atom_site_pbe_ddec_charge
 _atom_site_pbe_ddec_spin_density
 _atom_site_pbe_ddec_sum_bond_order
 _atom_site_pbe_magmom
Zn  Zn0  1  0.92285526  0.45098934  0.24591393  1  0  1.141411  0  1.758111  0  0  0.980201  0  2.217541  0  0  1.03094  0  2.154262  0  1.342396  0  0.690957  0.944393  0  2.26114  0
Zn  Zn1  1  0.42285488  0.95099494  0.75408607  1  0  1.141478  0  1.757973  0  0  0.98027  0  2.217397  0  0  1.031001  0  2.154127  0  1.342444  0  0.691003  0.944464  0  2.260993  0
Zn  Zn2  1  0.41122466  0.33318191  0.26493520  1  0  1.211445  0  1.66848  0  0  1.054264  0  2.114147  0  0  1.103249  0  2.053406  0  1.413139  0  0.695462  1.019483  0  2.15607  0
Zn  Zn3  1  0.91121820  0.83318084  0.73506125  1  0  1.211498  0  1.668508  0  0  1.054309  0  2.114174  0  0  1.103291  0  2.053433  0  1.413097  0  0.69546  1.019528  0  2.156099  0
H  H4  1  0.67481520  0.69991356  0.16098000  1  0  0.09448  0  0.96718  0  0  0.104167  0  1.032125  0  0  0.107373  0  1.030182  0  0.096332  0  0.102997  0.101855  0  1.033555  0
H  H5  1  0.17482381  0.19991092  0.83901858  1  0  0.094459  0  0.967161  0  0  0.104123  0  1.032135  0  0  0.107341  0  1.03018  0  0.096226  0  0.102998  0.101811  0  1.033566  0
H  H6  1  0.63769080  0.83307872  0.04204385  1  0  0.093406  0  0.966102  0  0  0.103974  0  1.030383  0  0  0.106563  0  1.030158  0  0.060135  0  0.102281  0.102111  0  1.030667  0
H  H7  1  0.13770464  0.33307386  0.95795544  1  0  0.093429  0  0.966298  0  0  0.104001  0  1.030558  0  0  0.106591  0  1.030331  0  0.060141  0  0.102295  0.102139  0  1.030841  0
H  H8  1  0.48172428  0.66101195  0.75255038  1  0  0.114787  0  0.956683  0  0  0.123921  0  1.016884  0  0  0.127141  0  1.015458  0  0.109367  0  0.107423  0.12161  0  1.017968  0
H  H9  1  0.98173593  0.16101450  0.24744891  1  0  0.114662  0  0.956739  0  0  0.123809  0  1.016942  0  0  0.127021  0  1.015523  0  0.109361  0  0.10738  0.121498  0  1.018026  0
H  H10  1  0.41464226  0.48609832  0.70670596  1  0  0.080668  0  0.961588  0  0  0.094827  0  1.018289  0  0  0.097294  0  1.017788  0  0.046414  0  0.097959  0.093029  0  1.018751  0
H  H11  1  0.91463927  0.98610095  0.29329546  1  0  0.080697  0  0.961503  0  0  0.094852  0  1.018226  0  0  0.097318  0  1.017728  0  0.046411  0  0.097986  0.093062  0  1.018666  0
H  H12  1  0.42692273  0.35247952  0.82877734  1  0  0.08549  0  0.955395  0  0  0.102187  0  1.008155  0  0  0.104158  0  1.008351  0  0.081624  0  0.099926  0.100723  0  1.008151  0
H  H13  1  0.92691091  0.85247994  0.17122337  1  0  0.085382  0  0.955437  0  0  0.102142  0  1.008144  0  0  0.104114  0  1.00834  0  0.08165  0  0.099902  0.100662  0  1.00816  0
H  H14  1  0.49657726  0.39641847  0.99593556  1  0  0.095732  0  1.003748  0  0  0.10382  0  1.070579  0  0  0.107093  0  1.068466  0  0.109751  0  0.097688  0.101316  0  1.072378  0
H  H15  1  0.99656940  0.89641740  0.00406514  1  0  0.095747  0  1.003729  0  0  0.103848  0  1.070538  0  0  0.10712  0  1.068429  0  0.109742  0  0.0977  0.101355  0  1.072325  0
H  H16  1  0.70763229  0.14811217  0.36410458  1  0  0.109075  0  0.936783  0  0  0.120103  0  0.995185  0  0  0.123533  0  0.993126  0  0.089513  0  0.110148  0.117613  0  0.996742  0
H  H17  1  0.20762612  0.64810889  0.63589967  1  0  0.109051  0  0.936896  0  0  0.120093  0  0.995279  0  0  0.123524  0  0.993219  0  0.089462  0  0.110162  0.117602  0  0.996837  0
H  H18  1  0.71179925  0.01380811  0.48604686  1  0  0.097869  0  0.947871  0  0  0.107802  0  1.011378  0  0  0.110947  0  1.009711  0  0.094427  0  0.104235  0.105453  0  1.012789  0
H  H19  1  0.21179462  0.51380557  0.51395882  1  0  0.097899  0  0.947906  0  0  0.107796  0  1.011443  0  0  0.110959  0  1.009754  0  0.094506  0  0.104252  0.105447  0  1.012852  0
H  H20  1  0.83218323  0.18493801  0.78001121  1  0  0.101591  0  0.983737  0  0  0.112815  0  1.043948  0  0  0.115221  0  1.043847  0  0.103193  0  0.101334  0.111026  0  1.044165  0
H  H21  1  0.33217490  0.68493842  0.21999092  1  0  0.101616  0  0.983746  0  0  0.112822  0  1.043978  0  0  0.115227  0  1.043881  0  0.103231  0  0.101351  0.111055  0  1.044167  0
H  H22  1  0.89153922  0.35958597  0.82757077  1  0  0.083696  0  0.968221  0  0  0.098033  0  1.026991  0  0  0.100208  0  1.02695  0  0.081358  0  0.098358  0.096463  0  1.027109  0
H  H23  1  0.39153370  0.85958639  0.17243419  1  0  0.083723  0  0.968141  0  0  0.098023  0  1.026942  0  0  0.100199  0  1.026902  0  0.081479  0  0.098344  0.096449  0  1.027058  0
H  H24  1  0.90173830  0.49387301  0.70457444  1  0  0.099654  0  0.943741  0  0  0.112452  0  0.998781  0  0  0.115849  0  0.997  0  0.072201  0  0.104949  0.109988  0  1.00015  0
H  H25  1  0.40173942  0.99387121  0.29543478  1  0  0.099575  0  0.943728  0  0  0.11247  0  0.998667  0  0  0.115867  0  0.996885  0  0.072661  0  0.104914  0.110003  0  1.000041  0
H  H26  1  0.86086521  0.44973426  0.53571738  1  0  0.097666  0  1.002264  0  0  0.1071  0  1.06591  0  0  0.11022  0  1.064757  0  0.111518  0  0.100693  0.104867  0  1.066741  0
H  H27  1  0.36088636  0.94972654  0.46429114  1  0  0.097724  0  1.002192  0  0  0.107167  0  1.065819  0  0  0.110286  0  1.064666  0  0.111543  0  0.10073  0.10493  0  1.066653  0
H  H28  1  0.58071407  0.28470217  0.07467353  1  0  0.04373  0  0.965088  0  0  0.051217  0  1.038998  0  0  0.053193  0  1.033881  0  0.100884  0  0.120067  0.049633  0  1.042755  0
H  H29  1  0.08072502  0.78470037  0.92531725  1  0  0.043769  0  0.965055  0  0  0.051195  0  1.039019  0  0  0.053169  0  1.033908  0  0.100969  0  0.120091  0.049612  0  1.042773  0
H  H30  1  0.37693397  0.03677921  0.13380362  1  0  0.106518  0  0.962095  0  0  0.122256  0  1.031766  0  0  0.122701  0  1.032488  0  0.063793  0  0.106316  0.12181  0  1.031405  0
H  H31  1  0.87692790  0.53678037  0.86620206  1  0  0.106493  0  0.96223  0  0  0.122277  0  1.031842  0  0  0.122724  0  1.032568  0  0.063969  0  0.10633  0.121831  0  1.031481  0
H  H32  1  0.61006852  0.00341891  0.11145632  1  0  0.086134  0  0.965484  0  0  0.105627  0  1.034751  0  0  0.104561  0  1.037234  0  0.047901  0  0.095523  0.106247  0  1.033139  0
H  H33  1  0.11005994  0.50341785  0.88854794  1  0  0.086151  0  0.965508  0  0  0.105682  0  1.034737  0  0  0.104615  0  1.037222  0  0.047985  0  0.09557  0.106302  0  1.033127  0
H  H34  1  0.43590893  0.98939924  0.01970293  1  0  0.111911  0  0.95061  0  0  0.130853  0  1.014571  0  0  0.131703  0  1.014207  0  0.075314  0  0.10449  0.130077  0  1.015015  0
H  H35  1  0.93590412  0.48940401  0.98030416  1  0  0.112032  0  0.95048  0  0  0.130945  0  1.014503  0  0  0.131802  0  1.014128  0  0.07521  0  0.104511  0.13017  0  1.014946  0
H  H36  1  0.66934849  0.22651257  0.94181970  1  0  0.096311  0  0.942727  0  0  0.117797  0  1.006435  0  0  0.117805  0  1.00742  0  0.079349  0  0.105818  0.117664  0  1.005844  0
H  H37  1  0.16933902  0.72651447  0.05818101  1  0  0.096285  0  0.942744  0  0  0.11777  0  1.006437  0  0  0.117777  0  1.007423  0  0.078855  0  0.105809  0.117657  0  1.005828  0
H  H38  1  0.50252106  0.12930150  0.89969357  1  0  0.104164  0  0.951353  0  0  0.121241  0  1.019569  0  0  0.121971  0  1.019345  0  0.069717  0  0.100932  0.120557  0  1.019916  0
H  H39  1  0.00250496  0.62930561  0.10030501  1  0  0.104204  0  0.951179  0  0  0.121229  0  1.019434  0  0  0.121964  0  1.019202  0  0.069668  0  0.10094  0.120548  0  1.019779  0
H  H40  1  0.72877107  0.10161792  0.93960874  1  0  0.105095  0  0.958356  0  0  0.122148  0  1.023628  0  0  0.122316  0  1.025217  0  0.082871  0  0.101492  0.121888  0  1.022704  0
H  H41  1  0.22876429  0.60161908  0.06039623  1  0  0.105129  0  0.958108  0  0  0.122125  0  1.023474  0  0  0.122294  0  1.025059  0  0.082948  0  0.101483  0.121865  0  1.022557  0
H  H42  1  0.39062161  0.35796606  0.47942530  1  0  0.042626  0  0.936314  0  0  0.051511  0  1.00705  0  0  0.05364  0  1.001602  0  0.098827  0  0.120945  0.049775  0  1.011068  0
H  H43  1  0.89061986  0.85795982  0.52057186  1  0  0.042686  0  0.936342  0  0  0.051571  0  1.007069  0  0  0.053701  0  1.001623  0  0.0989  0  0.120995  0.049836  0  1.011088  0
H  H44  1  0.19771528  0.10286931  0.46595521  1  0  0.112599  0  0.934496  0  0  0.132489  0  0.994027  0  0  0.133777  0  0.993304  0  0.108106  0  0.10969  0.131484  0  0.99458  0
H  H45  1  0.69771199  0.60286232  0.53403911  1  0  0.112524  0  0.934601  0  0  0.13247  0  0.994068  0  0  0.133759  0  0.993342  0  0.108228  0  0.109706  0.131465  0  0.99462  0
H  H46  1  0.12717239  0.10270280  0.58799538  1  0  0.105213  0  0.966716  0  0  0.124113  0  1.030813  0  0  0.124123  0  1.032052  0  0.094112  0  0.101819  0.123946  0  1.030092  0
H  H47  1  0.62716247  0.60269804  0.41199895  1  0  0.105172  0  0.966688  0  0  0.124078  0  1.030813  0  0  0.124088  0  1.032053  0  0.093977  0  0.101788  0.123911  0  1.030089  0
H  H48  1  0.35920039  0.07601086  0.55828386  1  0  0.099493  0  0.965286  0  0  0.118122  0  1.032604  0  0  0.117921  0  1.033589  0  0.073665  0  0.100488  0.118082  0  1.032137  0
H  H49  1  0.85919443  0.57600462  0.44170834  1  0  0.099526  0  0.965357  0  0  0.118175  0  1.032659  0  0  0.117974  0  1.033642  0  0.073752  0  0.100487  0.118131  0  1.032199  0
H  H50  1  0.42200013  0.34017366  0.63109328  1  0  0.091898  0  0.959048  0  0  0.110168  0  1.028165  0  0  0.110261  0  1.028834  0  0.057735  0  0.10392  0.109958  0  1.027827  0
H  H51  1  0.92199775  0.84017185  0.36890672  1  0  0.091892  0  0.959047  0  0  0.110142  0  1.02819  0  0  0.110232  0  1.028863  0  0.057784  0  0.103933  0.109932  0  1.027852  0
H  H52  1  0.42399953  0.21919373  0.67997574  1  0  0.109419  0  0.933247  0  0  0.129957  0  0.994229  0  0  0.130826  0  0.994021  0  0.077582  0  0.106928  0.129198  0  0.994529  0
H  H53  1  0.92399575  0.71919193  0.32001858  1  0  0.109349  0  0.933266  0  0  0.129953  0  0.994177  0  0  0.13082  0  0.993971  0  0.077798  0  0.106914  0.129192  0  0.994479  0
H  H54  1  0.20712053  0.27594176  0.67417559  1  0  0.091497  0  0.967149  0  0  0.108369  0  1.03701  0  0  0.107864  0  1.039338  0  0.058867  0  0.095851  0.10861  0  1.035492  0
H  H55  1  0.70711293  0.77594218  0.32582229  1  0  0.091449  0  0.967152  0  0  0.10829  0  1.037054  0  0  0.107786  0  1.039379  0  0.059087  0  0.095829  0.108532  0  1.035535  0
C  C56  1  0.58583324  0.58165692  0.06710645  1  0  -0.102174  0  3.684932  0  0  -0.085567  0  3.920062  0  0  -0.091949  0  3.938764  0  0.034255  0  -0.011144  -0.081507  0  3.907643  0
C  C57  1  0.08582591  0.08165947  0.93289497  1  0  -0.102327  0  3.684952  0  0  -0.085596  0  3.920048  0  0  -0.091984  0  3.938764  0  0.034285  0  -0.01117  -0.081537  0  3.907626  0
C  C58  1  0.62929579  0.68083795  0.08905865  1  0  -0.0753  0  3.776352  0  0  -0.101774  0  4.034  0  0  -0.100794  0  4.052095  0  -0.146322  0  -0.086699  -0.102257  0  4.021721  0
C  C59  1  0.12930058  0.18083753  0.91093851  1  0  -0.075149  0  3.776358  0  0  -0.101625  0  4.033988  0  0  -0.100655  0  4.052082  0  -0.146122  0  -0.086683  -0.102108  0  4.021705  0
C  C60  1  0.61060222  0.75554785  0.02193376  1  0  -0.086076  0  3.758559  0  0  -0.110402  0  4.013101  0  0  -0.111904  0  4.032492  0  -0.018728  0  -0.089039  -0.10935  0  4.000001  0
C  C61  1  0.11061302  0.25554965  0.97806198  1  0  -0.086075  0  3.758985  0  0  -0.110425  0  4.013513  0  0  -0.111925  0  4.032902  0  -0.018868  0  -0.08896  -0.109368  0  4.000407  0
C  C62  1  0.56157382  0.73160436  0.92928025  1  0  -0.073156  0  3.707491  0  0  -0.056855  0  3.942475  0  0  -0.06121  0  3.96129  0  -0.03233  0  -0.003619  -0.054136  0  3.930017  0
C  C63  1  0.06157963  0.23160172  0.07071195  1  0  -0.073303  0  3.70755  0  0  -0.056952  0  3.942476  0  0  -0.061306  0  3.961288  0  -0.032211  0  -0.00372  -0.054236  0  3.930014  0
C  C64  1  0.52655294  0.63038827  0.90126544  1  0  0.046751  0  3.720014  0  0  0.05464  0  3.949005  0  0  0.054799  0  3.972098  0  0.024874  0  0.001371  0.054468  0  3.933525  0
C  C65  1  0.02655479  0.13038711  0.09872960  1  0  0.046839  0  3.72004  0  0  0.054743  0  3.948987  0  0  0.054903  0  3.972079  0  0.024829  0  0.001419  0.054573  0  3.933507  0
C  C66  1  0.48245124  0.60309099  0.80585619  1  0  -0.092632  0  3.694385  0  0  -0.114787  0  3.946609  0  0  -0.115755  0  3.964877  0  0.01426  0  -0.084124  -0.114103  0  3.934315  0
C  C67  1  0.98246021  0.10309427  0.19414026  1  0  -0.092631  0  3.694423  0  0  -0.114808  0  3.946657  0  0  -0.115768  0  3.964915  0  0.014111  0  -0.084164  -0.114129  0  3.934372  0
C  C68  1  0.44691809  0.50518281  0.78039779  1  0  -0.0759  0  3.801548  0  0  -0.090537  0  4.053649  0  0  -0.092795  0  4.074809  0  -0.076788  0  -0.094177  -0.08892  0  4.039187  0
C  C69  1  0.94691890  0.00518757  0.21960292  1  0  -0.0758  0  3.80131  0  0  -0.090436  0  4.053426  0  0  -0.092695  0  4.074584  0  -0.076766  0  -0.094109  -0.088819  0  4.038957  0
C  C70  1  0.45350359  0.42999929  0.84926195  1  0  -0.076028  0  3.807923  0  0  -0.089512  0  4.058215  0  0  -0.090562  0  4.079735  0  -0.132001  0  -0.09461  -0.088608  0  4.043423  0
C  C71  1  0.95349766  0.93000119  0.15073593  1  0  -0.075965  0  3.80776  0  0  -0.089492  0  4.058028  0  0  -0.090543  0  4.079551  0  -0.132032  0  -0.094584  -0.088577  0  4.04324  0
C  C72  1  0.49416841  0.45391688  0.94255811  1  0  -0.123685  0  3.747514  0  0  -0.145717  0  3.999623  0  0  -0.148771  0  4.019592  0  -0.053342  0  -0.095742  -0.143582  0  3.986262  0
C  C73  1  0.99416388  0.95391877  0.05743905  1  0  -0.123669  0  3.747515  0  0  -0.145723  0  3.999664  0  0  -0.148778  0  4.01964  0  -0.05313  0  -0.095768  -0.143594  0  3.986292  0
C  C74  1  0.53261015  0.55398889  0.97196958  1  0  0.047496  0  3.731323  0  0  0.058353  0  3.956855  0  0  0.059858  0  3.979846  0  -0.028023  0  0.001296  0.057374  0  3.941375  0
C  C75  1  0.03260537  0.05398996  0.02802900  1  0  0.047393  0  3.731496  0  0  0.058209  0  3.957031  0  0  0.05971  0  3.980027  0  -0.028263  0  0.001231  0.057231  0  3.941553  0
C  C76  1  0.60106190  0.50905757  0.14700842  1  0  0.690239  0  3.837197  0  0  0.636916  0  4.131305  0  0  0.672994  0  4.12154  0  1.602627  0  0.222582  0.612279  0  4.137391  0
C  C77  1  0.10105238  0.00905568  0.85298732  1  0  0.690564  0  3.83672  0  0  0.63703  0  4.131113  0  0  0.673108  0  4.121359  0  1.602861  0  0.222655  0.612393  0  4.1372  0
C  C78  1  0.53983485  0.81328381  0.86037779  1  0  0.67136  0  3.860968  0  0  0.619436  0  4.150302  0  0  0.654693  0  4.141375  0  1.567818  0  0.218087  0.595381  0  4.155722  0
C  C79  1  0.03984399  0.31328413  0.13962009  1  0  0.671509  0  3.860477  0  0  0.619563  0  4.149873  0  0  0.654818  0  4.140938  0  1.567908  0  0.218141  0.595511  0  4.15529  0
C  C80  1  0.78478939  0.26479551  0.46217025  1  0  -0.099766  0  3.712101  0  0  -0.083269  0  3.949419  0  0  -0.091078  0  3.969964  0  0.033198  0  -0.012784  -0.078385  0  3.935819  0
C  C81  1  0.28478897  0.76479297  0.53783329  1  0  -0.099756  0  3.712208  0  0  -0.083471  0  3.949717  0  0  -0.091223  0  3.970187  0  0.03317  0  -0.012861  -0.078584  0  3.936114  0
C  C82  1  0.74103127  0.16623907  0.43793118  1  0  -0.050445  0  3.714148  0  0  -0.077113  0  3.967858  0  0  -0.075091  0  3.984961  0  -0.118309  0  -0.077125  -0.078254  0  3.956214  0
C  C83  1  0.24102471  0.66623357  0.56207237  1  0  -0.050329  0  3.714378  0  0  -0.076949  0  3.968078  0  0  -0.074943  0  3.985167  0  -0.118644  0  -0.077084  -0.078092  0  3.956433  0
C  C84  1  0.74206284  0.09115620  0.50648678  1  0  -0.078616  0  3.745224  0  0  -0.10334  0  4.003181  0  0  -0.104485  0  4.020916  0  -0.025119  0  -0.084892  -0.102553  0  3.99129  0
C  C85  1  0.24205259  0.59115366  0.49351606  1  0  -0.078715  0  3.745418  0  0  -0.103385  0  4.00335  0  0  -0.104545  0  4.021081  0  -0.025095  0  -0.08492  -0.102595  0  3.991461  0
C  C86  1  0.77712984  0.11419538  0.60094766  1  0  -0.085709  0  3.701239  0  0  -0.072279  0  3.94001  0  0  -0.075724  0  3.956952  0  -0.025778  0  -0.005777  -0.070061  0  3.928781  0
C  C87  1  0.27711652  0.61419135  0.39905518  1  0  -0.085425  0  3.700762  0  0  -0.072074  0  3.939519  0  0  -0.075515  0  3.956466  0  -0.025634  0  -0.005724  -0.06986  0  3.92829  0
C  C88  1  0.81120194  0.21526568  0.62991935  1  0  0.034738  0  3.750021  0  0  0.045722  0  3.976341  0  0  0.04549  0  3.999363  0  -0.02589  0  -0.003304  0.045774  0  3.960956  0
C  C89  1  0.31119450  0.71526314  0.37008491  1  0  0.034651  0  3.749988  0  0  0.045722  0  3.976177  0  0  0.04549  0  3.999202  0  -0.025884  0  -0.003277  0.045775  0  3.960796  0
C  C90  1  0.83979461  0.24283751  0.72653161  1  0  -0.123067  0  3.751158  0  0  -0.143511  0  3.999396  0  0  -0.145465  0  4.01939  0  -0.027607  0  -0.094722  -0.142121  0  3.985993  0
C  C91  1  0.33978423  0.74283423  0.27347194  1  0  -0.123071  0  3.751278  0  0  -0.14352  0  3.999464  0  0  -0.145475  0  4.019454  0  -0.0277  0  -0.094755  -0.142149  0  3.986048  0
C  C92  1  0.87220201  0.34073829  0.75287029  1  0  -0.079949  0  3.808369  0  0  -0.094266  0  4.059133  0  0  -0.096455  0  4.081189  0  -0.112427  0  -0.097377  -0.092732  0  4.044069  0
C  C93  1  0.37220006  0.84073501  0.24713468  1  0  -0.079938  0  3.808233  0  0  -0.094227  0  4.059023  0  0  -0.096415  0  4.081081  0  -0.112  0  -0.097319  -0.092685  0  4.043957  0
C  C94  1  0.87873462  0.41626000  0.68368055  1  0  -0.073315  0  3.789557  0  0  -0.086762  0  4.038569  0  0  -0.088227  0  4.059776  0  -0.063457  0  -0.093008  -0.085604  0  4.024011  0
C  C95  1  0.37873855  0.91625820  0.31632867  1  0  -0.073318  0  3.789343  0  0  -0.086865  0  4.038403  0  0  -0.088325  0  4.059597  0  -0.064032  0  -0.093043  -0.08571  0  4.023852  0
C  C96  1  0.85414309  0.39200940  0.58920407  1  0  -0.124384  0  3.745731  0  0  -0.144242  0  3.993324  0  0  -0.147745  0  4.014346  0  -0.047371  0  -0.09685  -0.141845  0  3.979041  0
C  C97  1  0.35415312  0.89200242  0.41080374  1  0  -0.124343  0  3.745571  0  0  -0.144214  0  3.99314  0  0  -0.147718  0  4.014167  0  -0.047577  0  -0.096836  -0.141814  0  3.978853  0
C  C98  1  0.81979886  0.29191075  0.55916058  1  0  0.049582  0  3.73996  0  0  0.057828  0  3.96789  0  0  0.059277  0  3.99193  0  -0.026708  0  -0.002574  0.056904  0  3.95176  0
C  C99  1  0.31980253  0.79190746  0.44084367  1  0  0.049468  0  3.740012  0  0  0.057807  0  3.96786  0  0  0.059237  0  3.99189  0  -0.026641  0  -0.002601  0.056884  0  3.951727  0
C  C100  1  0.80213415  0.33776044  0.38295278  1  0  0.662195  0  3.864766  0  0  0.612287  0  4.151105  0  0  0.647633  0  4.14296  0  1.538139  0  0.212408  0.588247  0  4.155977  0
C  C101  1  0.30213488  0.83775641  0.61704793  1  0  0.661987  0  3.864621  0  0  0.612177  0  4.150915  0  0  0.647507  0  4.142768  0  1.538065  0  0.212307  0.588136  0  4.155786  0
C  C102  1  0.77202281  0.03128305  0.67195540  1  0  0.696118  0  3.84894  0  0  0.641729  0  4.145895  0  0  0.677675  0  4.135023  0  1.594774  0  0.2252  0.617093  0  4.152735  0
C  C103  1  0.27201230  0.53127903  0.32804460  1  0  0.695793  0  3.848821  0  0  0.641459  0  4.145752  0  0  0.677394  0  4.134891  0  1.594177  0  0.225071  0.616824  0  4.15259  0
C  C104  1  0.52640176  0.21280362  0.10473617  1  0  0.392776  0  3.790219  0  0  0.313402  0  4.080026  0  0  0.341266  0  4.081995  0  1.382656  0  0.172542  0.294779  0  4.078099  0
C  C105  1  0.02640673  0.71280774  0.89525958  1  0  0.393101  0  3.790198  0  0  0.31382  0  4.07988  0  0  0.341677  0  4.081858  0  1.382475  0  0.172624  0.295193  0  4.077964  0
C  C106  1  0.48755092  0.03511860  0.08006086  1  0  -0.175818  0  3.637996  0  0  -0.277474  0  3.885683  0  0  -0.273243  0  3.89587  0  0.284181  0  -0.139779  -0.279974  0  3.878745  0
C  C107  1  0.98754113  0.53511457  0.91994056  1  0  -0.175889  0  3.637936  0  0  -0.277622  0  3.885623  0  0  -0.273393  0  3.895806  0  0.283836  0  -0.13991  -0.280126  0  3.878688  0
C  C108  1  0.61455527  0.14901056  0.95179779  1  0  -0.172794  0  3.650389  0  0  -0.275769  0  3.902408  0  0  -0.272615  0  3.914516  0  0.236363  0  -0.135485  -0.277525  0  3.894164  0
C  C109  1  0.11454888  0.64901394  0.04820434  1  0  -0.17271  0  3.649802  0  0  -0.275587  0  3.901873  0  0  -0.27244  0  3.913989  0  0.236833  0  -0.13544  -0.277354  0  3.893603  0
C  C110  1  0.34113161  0.27981949  0.46588357  1  0  0.395389  0  3.806914  0  0  0.316004  0  4.099447  0  0  0.344062  0  4.101533  0  1.372318  0  0.173799  0.297264  0  4.097395  0
C  C111  1  0.84113306  0.77981546  0.53411288  1  0  0.395388  0  3.806887  0  0  0.316012  0  4.099427  0  0  0.344069  0  4.101509  0  1.37227  0  0.173837  0.297269  0  4.097379  0
C  C112  1  0.24401513  0.12046338  0.53853340  1  0  -0.170617  0  3.627292  0  0  -0.271128  0  3.869286  0  0  -0.267385  0  3.879753  0  0.202659  0  -0.138633  -0.273297  0  3.862247  0
C  C113  1  0.74401350  0.62045788  0.46146093  1  0  -0.170613  0  3.627311  0  0  -0.271203  0  3.869343  0  0  -0.267467  0  3.879824  0  0.202558  0  -0.138664  -0.273369  0  3.862304  0
C  C114  1  0.34129440  0.26769493  0.63768221  1  0  -0.173228  0  3.66184  0  0  -0.276741  0  3.915148  0  0  -0.273291  0  3.926963  0  0.262737  0  -0.133256  -0.278732  0  3.907099  0
C  C115  1  0.84128909  0.76769239  0.36231566  1  0  -0.173117  0  3.661718  0  0  -0.27666  0  3.915088  0  0  -0.273204  0  3.926903  0  0.262278  0  -0.133244  -0.27865  0  3.907036  0
N  N116  1  0.54201978  0.13553398  0.04778655  1  0  -0.08598  0  3.511969  0  0  0.019713  0  3.743969  0  0  -0.001508  0  3.771296  0  -1.220292  0  -0.281162  0.033879  0  3.725058  0
N  N117  1  0.04201940  0.63553958  0.95221061  1  0  -0.086308  0  3.511876  0  0  0.019359  0  3.743894  0  0  -0.00186  0  3.771215  0  -1.219964  0  -0.281208  0.033525  0  3.724996  0
N  N118  1  0.30759922  0.22524269  0.54388100  1  0  -0.086765  0  3.511387  0  0  0.018469  0  3.744501  0  0  -0.002783  0  3.771802  0  -1.205474  0  -0.280591  0.032662  0  3.725649  0
N  N119  1  0.80759478  0.72523719  0.45611687  1  0  -0.086749  0  3.511266  0  0  0.0185  0  3.744395  0  0  -0.002751  0  3.771691  0  -1.205622  0  -0.280583  0.032694  0  3.72554  0
O  O120  1  0.72479630  0.53709488  0.21026961  1  0  -0.662768  0  2.05261  0  0  -0.596051  0  2.328577  0  0  -0.623522  0  2.311138  0  -1.182858  0  -0.332056  -0.576759  0  2.339963  0
O  O121  1  0.22478858  0.03709520  0.78972400  1  0  -0.662919  0  2.052456  0  0  -0.596109  0  2.3285  0  0  -0.62358  0  2.311057  0  -1.182969  0  -0.332069  -0.576818  0  2.339887  0
O  O122  1  0.49339168  0.42936879  0.14839728  1  0  -0.631286  0  2.057238  0  0  -0.568229  0  2.315996  0  0  -0.595493  0  2.302768  0  -1.177509  0  -0.299584  -0.549179  0  2.324446  0
O  O123  1  0.99337934  0.92936625  0.85160059  1  0  -0.631405  0  2.057108  0  0  -0.568329  0  2.316043  0  0  -0.595572  0  2.302777  0  -1.1776  0  -0.299652  -0.549282  0  2.324497  0
O  O124  1  0.62281123  0.81647923  0.78047227  1  0  -0.654504  0  2.112265  0  0  -0.587008  0  2.379425  0  0  -0.615168  0  2.364807  0  -1.180645  0  -0.302455  -0.567166  0  2.388862  0
O  O125  1  0.12282867  0.31647882  0.21952418  1  0  -0.654451  0  2.112069  0  0  -0.586998  0  2.379276  0  0  -0.615152  0  2.364651  0  -1.180724  0  -0.30242  -0.567158  0  2.388715  0
O  O126  1  0.42728155  0.87766519  0.88312940  1  0  -0.622366  0  1.978869  0  0  -0.556666  0  2.227925  0  0  -0.585846  0  2.216267  0  -1.14729  0  -0.308496  -0.536163  0  2.235174  0
O  O127  1  0.92728105  0.37766255  0.11686705  1  0  -0.622454  0  1.978776  0  0  -0.556699  0  2.227765  0  0  -0.585907  0  2.216166  0  -1.147158  0  -0.308528  -0.536207  0  2.235039  0
O  O128  1  0.92805140  0.41131886  0.38732719  1  0  -0.621781  0  2.028055  0  0  -0.553572  0  2.277508  0  0  -0.582426  0  2.266646  0  -1.142859  0  -0.30655  -0.533493  0  2.284353  0
O  O129  1  0.42804040  0.91132001  0.61267636  1  0  -0.621615  0  2.028029  0  0  -0.553451  0  2.277484  0  0  -0.582301  0  2.266625  0  -1.14281  0  -0.306459  -0.533374  0  2.284331  0
O  O130  1  0.70285038  0.32263434  0.30802602  1  0  -0.678224  0  2.093981  0  0  -0.613345  0  2.365415  0  0  -0.641592  0  2.351261  0  -1.193032  0  -0.315362  -0.593584  0  2.374563  0
O  O131  1  0.20284013  0.82263179  0.69197824  1  0  -0.678221  0  2.093688  0  0  -0.613359  0  2.365077  0  0  -0.641612  0  2.350931  0  -1.193091  0  -0.31538  -0.593599  0  2.374227  0
O  O132  1  0.87335208  0.96157951  0.65463934  1  0  -0.626524  0  2.045701  0  0  -0.563781  0  2.305131  0  0  -0.592476  0  2.293015  0  -1.157376  0  -0.29549  -0.543651  0  2.312847  0
O  O133  1  0.37335560  0.46157983  0.34535711  1  0  -0.626343  0  2.045454  0  0  -0.563664  0  2.304928  0  0  -0.592356  0  2.292818  0  -1.157144  0  -0.295441  -0.543532  0  2.31264  0
O  O134  1  0.66448831  0.03878394  0.74391718  1  0  -0.661886  0  2.058508  0  0  -0.59638  0  2.331624  0  0  -0.623936  0  2.314992  0  -1.184583  0  -0.329141  -0.576843  0  2.342421  0
O  O135  1  0.16448087  0.53878139  0.25608282  1  0  -0.661753  0  2.05863  0  0  -0.596258  0  2.331722  0  0  -0.623807  0  2.315092  0  -1.184197  0  -0.32905  -0.576724  0  2.342521  0
O  O136  1  0.45718935  0.20613082  0.18679236  1  0  -0.5297  0  2.105832  0  0  -0.465807  0  2.37223  0  0  -0.491217  0  2.363277  0  -1.151067  0  -0.295567  -0.448164  0  2.377736  0
O  O137  1  0.95718979  0.70612902  0.81320409  1  0  -0.52992  0  2.105822  0  0  -0.466026  0  2.372147  0  0  -0.491432  0  2.363197  0  -1.151152  0  -0.295621  -0.448384  0  2.377659  0
O  O138  1  0.31932318  0.24701273  0.38289391  1  0  -0.525906  0  2.093477  0  0  -0.464224  0  2.357905  0  0  -0.489749  0  2.349176  0  -1.147821  0  -0.294829  -0.44649  0  2.363185  0
O  O139  1  0.81931453  0.74700723  0.61710538  1  0  -0.525888  0  2.093335  0  0  -0.464224  0  2.357746  0  0  -0.489765  0  2.349055  0  -1.147653  0  -0.294865  -0.44649  0  2.363029  0
