# generated using pymatgen
data_AlH12C21(NO3)3
_symmetry_space_group_name_H-M   'P 1'
_cell_length_a   3.98218456
_cell_length_b   27.87680216
_cell_length_c   27.87686792
_cell_angle_alpha   119.99975326
_cell_angle_beta   89.99928478
_cell_angle_gamma   89.99961340
_symmetry_Int_Tables_number   1
_chemical_formula_structural   AlH12C21(NO3)3
_chemical_formula_sum   'Al2 H24 C42 N6 O18'
_cell_volume   2680.03228721
_cell_formula_units_Z   2
loop_
 _symmetry_equiv_pos_site_id
 _symmetry_equiv_pos_as_xyz
  1  'x, y, z'
loop_
 _atom_site_type_symbol
 _atom_site_label
 _atom_site_symmetry_multiplicity
 _atom_site_fract_x
 _atom_site_fract_y
 _atom_site_fract_z
 _atom_site_occupancy
 _atom_site_pbe_bader_charge
 _atom_site_pbe_bader_spin_density
 _atom_site_pbe_cm5_charge
 _atom_site_pbe_ddec_charge
 _atom_site_pbe_ddec_spin_density
 _atom_site_pbe_ddec_sum_bond_order
 _atom_site_pbe_magmom
Al  Al0  1  0.97291238  0.49999738  0.49999925  1  2.505036  0  0.42751  1.593771  0  2.5661  0
Al  Al1  1  0.97291763  0.16666517  0.83333420  1  2.505261  0  0.427522  1.593811  0  2.566034  0
H  H2  1  0.17632021  0.18835732  0.69772536  1  0.11245  0  0.110286  0.115998  0  0.979187  0
H  H3  1  0.19110445  0.24404814  0.64938634  1  0.105225  0  0.108002  0.119171  0  1.003976  0
H  H4  1  0.75251848  0.37125020  0.78667876  1  0.09308  0  0.119852  0.145868  0  0.967677  0
H  H5  1  0.75248063  0.29541288  0.54666112  1  0.095515  0  0.119862  0.145846  0  0.967662  0
H  H6  1  0.19109386  0.42262159  0.68395716  1  0.104881  0  0.107914  0.119015  0  1.00405  0
H  H7  1  0.17632648  0.47831014  0.63561546  1  0.11302  0  0.110337  0.116008  0  0.97921  0
H  H8  1  0.17630662  0.00936381  0.81164073  1  0.084525  0  0.110321  0.116013  0  0.97916  0
H  H9  1  0.19109486  0.90533482  0.75595572  1  0.103219  0  0.107968  0.119109  0  1.003962  0
H  H10  1  0.75252077  0.91541737  0.62874647  1  0.125887  0  0.119842  0.145868  0  0.967573  0
H  H11  1  0.75248594  0.75123531  0.70458253  1  0.126774  0  0.119844  0.145815  0  0.967663  0
H  H12  1  0.19109850  0.76133078  0.57738067  1  0.10383  0  0.107951  0.119058  0  1.004051  0
H  H13  1  0.17629989  0.65730220  0.52169078  1  0.084387  0  0.110301  0.115972  0  0.979181  0
H  H14  1  0.17632220  0.30227920  0.99063611  1  0.082723  0  0.110319  0.11604  0  0.979188  0
H  H15  1  0.19112921  0.35062415  0.09466585  1  0.144138  0  0.10794  0.119096  0  1.003924  0
H  H16  1  0.75252311  0.21332560  0.08457621  1  0.0941  0  0.119877  0.145908  0  0.967651  0
H  H17  1  0.75249785  0.45334626  0.24875864  1  0.095737  0  0.119849  0.145861  0  0.967722  0
H  H18  1  0.19110852  0.31604867  0.23866899  1  0.144628  0  0.107961  0.119096  0  1.003992  0
H  H19  1  0.17631444  0.36438835  0.34269818  1  0.082713  0  0.110312  0.11599  0  0.979176  0
H  H20  1  0.82309694  0.28795900  0.84889321  1  0.646061  0  0.316964  0.360886  0  0.942743  0
H  H21  1  0.82309603  0.37870724  0.48444814  1  0.646038  0  0.317002  0.360811  0  0.94291  0
H  H22  1  0.82309056  0.06092651  0.71203906  1  0.650546  0  0.316998  0.360878  0  0.942936  0
H  H23  1  0.82307730  0.60573149  0.62129116  1  0.650159  0  0.316999  0.360868  0  0.942912  0
H  H24  1  0.82309099  0.15110871  0.93906997  1  0.646142  0  0.316985  0.360931  0  0.942751  0
H  H25  1  0.82308942  0.51555611  0.39426417  1  0.646124  0  0.316972  0.360876  0  0.942789  0
C  C26  1  0.46841008  0.46050279  0.41415375  1  1.479761  0  0.266789  0.653626  0  4.056105  0
C  C27  1  0.46840466  0.45364899  0.53949801  1  1.476701  0  0.266746  0.653668  0  4.055884  0
C  C28  1  0.46838129  0.58584288  0.54634766  1  1.524429  0  0.266806  0.653533  0  4.056092  0
C  C29  1  0.46840380  0.21301518  0.79383732  1  1.476606  0  0.266792  0.653526  0  4.056167  0
C  C30  1  0.46840708  0.08081761  0.78698274  1  1.526075  0  0.266785  0.653663  0  4.055931  0
C  C31  1  0.46841094  0.20616298  0.91918069  1  1.478853  0  0.266747  0.653612  0  4.055754  0
C  C32  1  0.47834856  0.24616919  0.76652123  1  0.007738  0  -0.033625  -0.20686  0  3.986223  0
C  C33  1  0.30958708  0.22775934  0.71568585  1  -0.067686  0  -0.076888  -0.046665  0  3.995898  0
C  C34  1  0.31546877  0.25826361  0.68903292  1  0.036064  0  -0.095109  -0.18283  0  3.976802  0
C  C35  1  0.47631030  0.31041062  0.71546947  1  0.26669  0  0.095424  0.196745  0  4.06621  0
C  C36  1  0.63076298  0.33084046  0.76690283  1  0.068457  0  -0.086515  -0.256993  0  3.883539  0
C  C37  1  0.64793158  0.29799799  0.79172415  1  0.544612  0  0.101462  0.335761  0  4.044086  0
C  C38  1  0.63074164  0.33582647  0.56643889  1  0.066409  0  -0.08652  -0.256966  0  3.883465  0
C  C39  1  0.47629352  0.35625607  0.61787334  1  0.266015  0  0.095417  0.19675  0  4.066192  0
C  C40  1  0.31546487  0.40840509  0.64430949  1  0.035285  0  -0.09508  -0.182798  0  3.976686  0
C  C41  1  0.30960175  0.43890958  0.61765637  1  -0.068099  0  -0.0769  -0.046523  0  3.995808  0
C  C42  1  0.47834597  0.42049710  0.56681910  1  0.010414  0  -0.033616  -0.207003  0  3.986053  0
C  C43  1  0.64791850  0.36866608  0.54161388  1  0.542276  0  0.101558  0.3359  0  4.043949  0
C  C44  1  0.47833412  0.02034620  0.75382685  1  -0.025196  0  -0.033583  -0.206947  0  3.986179  0
C  C45  1  0.30958251  0.98791894  0.77223666  1  -0.042171  0  -0.076967  -0.046693  0  3.996155  0
C  C46  1  0.31546635  0.93076442  0.74173657  1  0.022593  0  -0.095047  -0.182749  0  3.976908  0
C  C47  1  0.47632317  0.90505000  0.68958984  1  0.3128  0  0.095357  0.196667  0  4.066231  0
C  C48  1  0.63077378  0.93605480  0.66915978  1  0.045709  0  -0.086457  -0.256874  0  3.883399  0
C  C49  1  0.64793245  0.99371872  0.70199720  1  0.539391  0  0.101458  0.335759  0  4.044215  0
C  C50  1  0.63073091  0.73060223  0.66417198  1  0.045122  0  -0.086399  -0.256702  0  3.883448  0
C  C51  1  0.47628575  0.76160942  0.64374398  1  0.312454  0  0.095434  0.196602  0  4.066396  0
C  C52  1  0.31545732  0.73589856  0.59159673  1  0.02219  0  -0.095085  -0.1827  0  3.976814  0
C  C53  1  0.30958128  0.67874048  0.56109019  1  -0.041112  0  -0.0769  -0.046611  0  3.995705  0
C  C54  1  0.47833530  0.64631515  0.57950192  1  -0.025666  0  -0.03365  -0.206941  0  3.986278  0
C  C55  1  0.64790766  0.67293866  0.63132910  1  0.538732  0  0.101483  0.335696  0  4.04405  0
C  C56  1  0.47835444  0.23348190  0.97965252  1  0.015268  0  -0.03365  -0.206975  0  3.986225  0
C  C57  1  0.30961457  0.28432090  0.01207656  1  -0.127993  0  -0.076922  -0.046703  0  3.995854  0
C  C58  1  0.31550267  0.31097610  0.06923536  1  0.078155  0  -0.095058  -0.182772  0  3.976551  0
C  C59  1  0.47632339  0.28453918  0.09494566  1  0.310275  0  0.095286  0.196584  0  4.066236  0
C  C60  1  0.63077131  0.23310349  0.06394284  1  -0.042506  0  -0.08644  -0.256855  0  3.883409  0
C  C61  1  0.64793838  0.20827861  0.00627735  1  0.611012  0  0.101493  0.335831  0  4.044169  0
C  C62  1  0.63076268  0.43356779  0.26939397  1  -0.044174  0  -0.086486  -0.256941  0  3.883702  0
C  C63  1  0.47631482  0.38213426  0.23838842  1  0.307486  0  0.095425  0.196719  0  4.06625  0
C  C64  1  0.31546538  0.35569907  0.26410218  1  0.080123  0  -0.095079  -0.182708  0  3.976857  0
C  C65  1  0.30958857  0.38234926  0.32125597  1  -0.127936  0  -0.076913  -0.046685  0  3.996022  0
C  C66  1  0.47833256  0.43318668  0.35368265  1  0.016464  0  -0.033671  -0.206963  0  3.986155  0
C  C67  1  0.64792853  0.45838982  0.32705577  1  0.610239  0  0.101485  0.335745  0  4.044119  0
N  N68  1  0.48628995  0.34584696  0.69285100  1  -0.378989  0  -0.137811  -0.120154  0  3.251737  0
N  N69  1  0.48625769  0.32081889  0.64048972  1  -0.529758  0  -0.137939  -0.120432  0  3.251918  0
N  N70  1  0.48627536  0.84699674  0.65415571  1  -0.560075  0  -0.137908  -0.120324  0  3.251953  0
N  N71  1  0.48627487  0.81966305  0.67918343  1  -0.423597  0  -0.137878  -0.120257  0  3.251762  0
N  N72  1  0.48630477  0.30715471  0.15300100  1  -0.520099  0  -0.137887  -0.120372  0  3.25188  0
N  N73  1  0.48627727  0.35951601  0.18033574  1  -0.38242  0  -0.137802  -0.120163  0  3.251919  0
O  O74  1  0.69994285  0.55840388  0.55542380  1  -1.259148  0  -0.2429  -0.619881  0  2.398192  0
O  O75  1  0.69997189  0.49701684  0.44159015  1  -1.264676  0  -0.242923  -0.619999  0  2.398227  0
O  O76  1  0.69996783  0.44457014  0.50298232  1  -1.257318  0  -0.242906  -0.620038  0  2.398349  0
O  O77  1  0.23451931  0.56212154  0.51077406  1  -1.262711  0  -0.240603  -0.59392  0  2.360709  0
O  O78  1  0.23452919  0.48922001  0.55134609  1  -1.25624  0  -0.240494  -0.593854  0  2.36069  0
O  O79  1  0.23455524  0.44865117  0.43787667  1  -1.256421  0  -0.240519  -0.593827  0  2.360805  0
O  O80  1  0.69996679  0.16964734  0.89174174  1  -1.264248  0  -0.242913  -0.620022  0  2.398295  0
O  O81  1  0.69996081  0.22209062  0.83035155  1  -1.257118  0  -0.24293  -0.620013  0  2.398213  0
O  O82  1  0.69997323  0.10825458  0.77790735  1  -1.260366  0  -0.242917  -0.620001  0  2.398222  0
O  O83  1  0.23453256  0.21801380  0.89545915  1  -1.255956  0  -0.240488  -0.593858  0  2.360584  0
O  O84  1  0.23454087  0.10454016  0.82255642  1  -1.262967  0  -0.240532  -0.593868  0  2.360745  0
O  O85  1  0.23453852  0.17744107  0.78198501  1  -1.256436  0  -0.240585  -0.593826  0  2.360743  0
O  O86  1  0.81851626  0.31815280  0.83976137  1  -1.155995  0  -0.347813  -0.431788  0  2.249038  0
O  O87  1  0.81850837  0.34851099  0.49357671  1  -1.155757  0  -0.347893  -0.431737  0  2.249129  0
O  O88  1  0.81852243  0.02160062  0.68184295  1  -1.163592  0  -0.347844  -0.431783  0  2.249256  0
O  O89  1  0.81849467  0.64505601  0.65148507  1  -1.163103  0  -0.347907  -0.431784  0  2.24913  0
O  O90  1  0.81851366  0.16024051  0.97839681  1  -1.153517  0  -0.347845  -0.43184  0  2.249073  0
O  O91  1  0.81850344  0.50642787  0.35493883  1  -1.153549  0  -0.347837  -0.431751  0  2.249023  0
