# generated using pymatgen
data_ZnH10C14N3O4
_symmetry_space_group_name_H-M   'P 1'
_cell_length_a   8.54534573
_cell_length_b   12.81465032
_cell_length_c   13.59500218
_cell_angle_alpha   89.99999383
_cell_angle_beta   108.12573389
_cell_angle_gamma   89.99985034
_symmetry_Int_Tables_number   1
_chemical_formula_structural   ZnH10C14N3O4
_chemical_formula_sum   'Zn4 H40 C56 N12 O16'
_cell_volume   1414.85255898
_cell_formula_units_Z   4
loop_
 _symmetry_equiv_pos_site_id
 _symmetry_equiv_pos_as_xyz
  1  'x, y, z'
loop_
 _atom_site_type_symbol
 _atom_site_label
 _atom_site_symmetry_multiplicity
 _atom_site_fract_x
 _atom_site_fract_y
 _atom_site_fract_z
 _atom_site_occupancy
 _atom_site_hle17_bader_spin_density
 _atom_site_hle17_ddec_charge
 _atom_site_hle17_ddec_spin_density
 _atom_site_hle17_ddec_sum_bond_order
 _atom_site_hle17_magmom
 _atom_site_hse06_10hf_bader_spin_density
 _atom_site_hse06_10hf_ddec_charge
 _atom_site_hse06_10hf_ddec_spin_density
 _atom_site_hse06_10hf_ddec_sum_bond_order
 _atom_site_hse06_10hf_magmom
 _atom_site_hse06_bader_spin_density
 _atom_site_hse06_ddec_charge
 _atom_site_hse06_ddec_spin_density
 _atom_site_hse06_ddec_sum_bond_order
 _atom_site_hse06_magmom
 _atom_site_pbe_bader_spin_density
 _atom_site_pbe_cm5_charge
 _atom_site_pbe_ddec_charge
 _atom_site_pbe_ddec_spin_density
 _atom_site_pbe_ddec_sum_bond_order
 _atom_site_pbe_magmom
Zn  Zn0  1  0.76567358  0.07477232  0.63076987  1  0  1.014862  0  1.858006  0  0  0.821941  0  2.336666  0  0  0.868679  0  2.281249  0  0  0.708261  0.789429  0  2.374724  0
Zn  Zn1  1  0.23432678  0.57477315  0.86922987  1  0  1.014894  0  1.858009  0  0  0.821968  0  2.336652  0  0  0.868704  0  2.281237  0  0  0.708267  0.789456  0  2.374713  0
Zn  Zn2  1  0.23432796  0.92522986  0.36922806  1  0  1.014859  0  1.858017  0  0  0.821931  0  2.336676  0  0  0.868668  0  2.281259  0  0  0.708243  0.789421  0  2.374738  0
Zn  Zn3  1  0.76567356  0.42522981  0.13077077  1  0  1.014855  0  1.858035  0  0  0.821956  0  2.336684  0  0  0.868695  0  2.281262  0  0  0.708249  0.789443  0  2.374742  0
H  H4  1  0.72991723  0.12889090  0.04318414  1  0  0.117909  0  0.97361  0  0  0.125803  0  1.037302  0  0  0.128297  0  1.03704  0  0  0.107823  0.123982  0  1.037581  0
H  H5  1  0.27007824  0.62889400  0.45681872  1  0  0.118007  0  0.973472  0  0  0.125875  0  1.03718  0  0  0.128372  0  1.036916  0  0  0.107859  0.124054  0  1.037462  0
H  H6  1  0.27008188  0.87110660  0.95681700  1  0  0.117979  0  0.973496  0  0  0.125842  0  1.037212  0  0  0.128337  0  1.03695  0  0  0.107859  0.124024  0  1.037492  0
H  H7  1  0.72991472  0.37110818  0.54318197  1  0  0.117856  0  0.973659  0  0  0.125753  0  1.037344  0  0  0.128247  0  1.037083  0  0  0.107816  0.123932  0  1.037624  0
H  H8  1  0.86873918  0.28629732  0.32429259  1  0  0.090985  0  0.928303  0  0  0.100954  0  0.988256  0  0  0.103993  0  0.98533  0  0  0.122388  0.09865  0  0.990484  0
H  H9  1  0.13126419  0.78629835  0.17570882  1  0  0.09103  0  0.928308  0  0  0.100993  0  0.988263  0  0  0.104032  0  0.985338  0  0  0.12241  0.098689  0  0.990491  0
H  H10  1  0.13126730  0.71370096  0.67570776  1  0  0.091035  0  0.928386  0  0  0.101012  0  0.988308  0  0  0.104048  0  0.985385  0  0  0.122446  0.098708  0  0.990536  0
H  H11  1  0.86873122  0.21370305  0.82429160  1  0  0.091082  0  0.928281  0  0  0.101047  0  0.988241  0  0  0.104085  0  0.985314  0  0  0.122427  0.098744  0  0.990469  0
H  H12  1  0.00454166  0.91040717  0.88858256  1  0  0.144797  0  0.924433  0  0  0.167359  0  0.978322  0  0  0.170236  0  0.976133  0  0  0.107137  0.165331  0  0.979872  0
H  H13  1  0.99545600  0.41040671  0.61141734  1  0  0.144799  0  0.924445  0  0  0.167363  0  0.978334  0  0  0.170242  0  0.976143  0  0  0.107135  0.165336  0  0.979883  0
H  H14  1  0.99545251  0.08959501  0.11141615  1  0  0.144803  0  0.924391  0  0  0.167365  0  0.978285  0  0  0.170244  0  0.976094  0  0  0.107149  0.165338  0  0.979835  0
H  H15  1  0.00454187  0.58959391  0.38858282  1  0  0.144805  0  0.92438  0  0  0.167373  0  0.978269  0  0  0.170251  0  0.976079  0  0  0.107145  0.165346  0  0.979819  0
H  H16  1  0.87194857  0.01933410  0.84734670  1  0  0.137062  0  0.95683  0  0  0.154373  0  1.022009  0  0  0.156524  0  1.021357  0  0  0.102433  0.152804  0  1.022506  0
H  H17  1  0.12804957  0.51933280  0.65265262  1  0  0.137072  0  0.956845  0  0  0.154381  0  1.022024  0  0  0.156532  0  1.021372  0  0  0.102439  0.152811  0  1.022522  0
H  H18  1  0.12804805  0.98066652  0.15265028  1  0  0.137093  0  0.956814  0  0  0.154396  0  1.02201  0  0  0.156546  0  1.021359  0  0  0.102448  0.152826  0  1.022508  0
H  H19  1  0.87194707  0.48066704  0.34734731  1  0  0.137042  0  0.956834  0  0  0.154352  0  1.022022  0  0  0.156502  0  1.021372  0  0  0.10242  0.152781  0  1.02252  0
H  H20  1  0.06485634  0.03392592  0.94668157  1  0  0.133528  0  0.943981  0  0  0.155945  0  0.999949  0  0  0.157565  0  0.999834  0  0  0.103971  0.154803  0  1.000033  0
H  H21  1  0.93514174  0.53392555  0.55331773  1  0  0.133547  0  0.943961  0  0  0.155961  0  0.999934  0  0  0.15758  0  0.999819  0  0  0.103981  0.154818  0  1.000017  0
H  H22  1  0.93513782  0.96607470  0.05331567  1  0  0.133504  0  0.944  0  0  0.155923  0  0.999969  0  0  0.157542  0  0.999854  0  0  0.103964  0.154782  0  1.000051  0
H  H23  1  0.06485735  0.46607429  0.44668046  1  0  0.133502  0  0.943972  0  0  0.155929  0  0.999927  0  0  0.157548  0  0.999811  0  0  0.103953  0.154786  0  1.000011  0
H  H24  1  0.29855263  0.18675395  0.13862843  1  0  0.11846  0  0.924502  0  0  0.133778  0  0.973086  0  0  0.137051  0  0.972709  0  0  0.116991  0.131361  0  0.973648  0
H  H25  1  0.70145239  0.68675007  0.36137111  1  0  0.118405  0  0.924485  0  0  0.133711  0  0.973084  0  0  0.136984  0  0.972707  0  0  0.11698  0.131294  0  0.973647  0
H  H26  1  0.70145383  0.81324667  0.86136971  1  0  0.118475  0  0.924445  0  0  0.13379  0  0.973025  0  0  0.137064  0  0.972646  0  0  0.116996  0.13137  0  0.973588  0
H  H27  1  0.29854302  0.31324665  0.63862931  1  0  0.118465  0  0.92444  0  0  0.13377  0  0.973023  0  0  0.137046  0  0.972642  0  0  0.116989  0.131349  0  0.973586  0
H  H28  1  0.39812283  0.04897950  0.71133293  1  0  0.129642  0  0.976001  0  0  0.133714  0  1.044609  0  0  0.137294  0  1.042451  0  0  0.12159  0.131154  0  1.046109  0
H  H29  1  0.60187766  0.54898438  0.78866830  1  0  0.129647  0  0.975989  0  0  0.133706  0  1.044646  0  0  0.137286  0  1.042485  0  0  0.121584  0.131159  0  1.046103  0
H  H30  1  0.60187629  0.95101644  0.28866894  1  0  0.129671  0  0.975935  0  0  0.133738  0  1.044573  0  0  0.137319  0  1.042413  0  0  0.121577  0.131188  0  1.046044  0
H  H31  1  0.39812637  0.45101780  0.21133378  1  0  0.129668  0  0.975942  0  0  0.133728  0  1.044591  0  0  0.137309  0  1.042432  0  0  0.121584  0.131178  0  1.046061  0
H  H32  1  0.50424490  0.14364059  0.87886388  1  0  0.102124  0  0.983814  0  0  0.108931  0  1.051552  0  0  0.111089  0  1.051585  0  0  0.104733  0.107362  0  1.051665  0
H  H33  1  0.49575148  0.64364176  0.62113655  1  0  0.102119  0  0.9839  0  0  0.108962  0  1.051589  0  0  0.111109  0  1.051644  0  0  0.104713  0.107401  0  1.051671  0
H  H34  1  0.49575298  0.85635769  0.12113628  1  0  0.102097  0  0.983865  0  0  0.108915  0  1.051591  0  0  0.111072  0  1.051625  0  0  0.104714  0.107347  0  1.051697  0
H  H35  1  0.50424147  0.35636042  0.37886340  1  0  0.102126  0  0.983788  0  0  0.108955  0  1.051507  0  0  0.111111  0  1.051541  0  0  0.104702  0.107393  0  1.051591  0
H  H36  1  0.46275182  0.29857816  0.05760224  1  0  0.103795  0  0.949207  0  0  0.111738  0  1.010868  0  0  0.114994  0  1.007827  0  0  0.122086  0.109249  0  1.013188  0
H  H37  1  0.53725518  0.79857690  0.44239914  1  0  0.103776  0  0.949187  0  0  0.111715  0  1.010877  0  0  0.114966  0  1.007831  0  0  0.122068  0.109226  0  1.013196  0
H  H38  1  0.53725837  0.70142246  0.94240103  1  0  0.103772  0  0.94916  0  0  0.111706  0  1.010865  0  0  0.114964  0  1.007807  0  0  0.122057  0.109216  0  1.013193  0
H  H39  1  0.46274022  0.20142138  0.55759982  1  0  0.103779  0  0.94915  0  0  0.111721  0  1.01085  0  0  0.114977  0  1.007789  0  0  0.122062  0.10923  0  1.013178  0
H  H40  1  0.09192433  0.09248857  0.56862283  1  0  0.120481  0  0.940672  0  0  0.131784  0  0.994777  0  0  0.134519  0  0.99347  0  0  0.124903  0.129778  0  0.995841  0
H  H41  1  0.90807842  0.59249056  0.93137810  1  0  0.120487  0  0.940617  0  0  0.131812  0  0.994694  0  0  0.134546  0  0.993388  0  0  0.124936  0.129805  0  0.995761  0
H  H42  1  0.90807969  0.90750971  0.43137778  1  0  0.120429  0  0.940708  0  0  0.131755  0  0.994781  0  0  0.134488  0  0.993475  0  0  0.124913  0.129746  0  0.99585  0
H  H43  1  0.09192560  0.40751240  0.06862178  1  0  0.120501  0  0.940648  0  0  0.131811  0  0.994741  0  0  0.134545  0  0.993434  0  0  0.124922  0.129804  0  0.995809  0
C  C44  1  0.63163088  0.07106186  0.02450073  1  0  -0.139207  0  3.739235  0  0  -0.158904  0  3.989592  0  0  -0.163068  0  4.012132  0  0  -0.086634  -0.156025  0  3.974402  0
C  C45  1  0.36836360  0.57106479  0.47550121  1  0  -0.139197  0  3.739234  0  0  -0.158884  0  3.989617  0  0  -0.163044  0  4.012143  0  0  -0.086661  -0.156009  0  3.974432  0
C  C46  1  0.36836822  0.92893408  0.97549967  1  0  -0.139098  0  3.739121  0  0  -0.158778  0  3.989475  0  0  -0.16294  0  4.012005  0  0  -0.08662  -0.155902  0  3.974288  0
C  C47  1  0.63162937  0.42893661  0.52450095  1  0  -0.139104  0  3.739211  0  0  -0.158788  0  3.989603  0  0  -0.162948  0  4.012134  0  0  -0.086623  -0.155912  0  3.974415  0
C  C48  1  0.37386579  0.00888478  0.90678736  1  0  0.178858  0  3.774974  0  0  0.173283  0  4.017722  0  0  0.17773  0  4.040817  0  0  0.095111  0.170206  0  4.002163  0
C  C49  1  0.62613363  0.50888495  0.59321220  1  0  0.179134  0  3.774895  0  0  0.173464  0  4.017751  0  0  0.17791  0  4.040847  0  0  0.095173  0.170382  0  4.002196  0
C  C50  1  0.62613331  0.99111350  0.09321157  1  0  0.179118  0  3.775012  0  0  0.173498  0  4.017798  0  0  0.177942  0  4.040895  0  0  0.095172  0.17042  0  4.00224  0
C  C51  1  0.37386302  0.49111645  0.40678919  1  0  0.178902  0  3.775095  0  0  0.173294  0  4.017891  0  0  0.17774  0  4.040988  0  0  0.09513  0.170214  0  4.002334  0
C  C52  1  0.74192302  0.26301081  0.28466788  1  0  0.127387  0  3.670634  0  0  0.086  0  3.920374  0  0  0.095446  0  3.935475  0  0  0.055783  0.079859  0  3.910356  0
C  C53  1  0.25808168  0.76301083  0.21533305  1  0  0.1272  0  3.670623  0  0  0.085826  0  3.920334  0  0  0.095267  0  3.935441  0  0  0.05571  0.079685  0  3.910317  0
C  C54  1  0.25808593  0.73698981  0.71533368  1  0  0.127177  0  3.670757  0  0  0.085798  0  3.920474  0  0  0.095242  0  3.935577  0  0  0.055685  0.079657  0  3.910455  0
C  C55  1  0.74191250  0.23698901  0.78466640  1  0  0.127053  0  3.670811  0  0  0.085668  0  3.920549  0  0  0.095112  0  3.935653  0  0  0.055623  0.079528  0  3.910529  0
C  C56  1  0.65862285  0.20142824  0.33676870  1  0  -0.127493  0  3.718296  0  0  -0.109339  0  3.955436  0  0  -0.120634  0  3.97632  0  0  -0.010251  -0.102407  0  3.941937  0
C  C57  1  0.34137969  0.70142812  0.16323550  1  0  -0.127477  0  3.71831  0  0  -0.109339  0  3.95548  0  0  -0.120633  0  3.976364  0  0  -0.010278  -0.102408  0  3.941983  0
C  C58  1  0.34138365  0.79857160  0.66323386  1  0  -0.127403  0  3.718303  0  0  -0.109272  0  3.955475  0  0  -0.120568  0  3.97636  0  0  -0.010271  -0.102341  0  3.941977  0
C  C59  1  0.65861696  0.29857094  0.83676516  1  0  -0.127401  0  3.718355  0  0  -0.109243  0  3.955501  0  0  -0.120537  0  3.976385  0  0  -0.010243  -0.102313  0  3.942003  0
C  C60  1  0.49460764  0.17314279  0.28452664  1  0  0.017438  0  3.661873  0  0  0.021726  0  3.905057  0  0  0.025948  0  3.919274  0  0  0.020584  0.0188  0  3.895818  0
C  C61  1  0.50539747  0.67314082  0.21547586  1  0  0.017293  0  3.662082  0  0  0.021598  0  3.905245  0  0  0.025817  0  3.919469  0  0  0.020541  0.018674  0  3.896005  0
C  C62  1  0.50540009  0.82685783  0.71547542  1  0  0.017298  0  3.662092  0  0  0.02162  0  3.905281  0  0  0.025844  0  3.919503  0  0  0.020536  0.018694  0  3.89604  0
C  C63  1  0.49459917  0.32685590  0.78452407  1  0  0.017347  0  3.661988  0  0  0.021638  0  3.905156  0  0  0.025859  0  3.919374  0  0  0.02055  0.018712  0  3.895914  0
C  C64  1  0.00113232  0.99487456  0.87340308  1  0  -0.406684  0  3.720851  0  0  -0.489685  0  3.960611  0  0  -0.493707  0  3.965705  0  0  -0.230901  -0.486716  0  3.956897  0
C  C65  1  0.99886621  0.49487487  0.62659698  1  0  -0.406755  0  3.720839  0  0  -0.48974  0  3.96061  0  0  -0.493762  0  3.965702  0  0  -0.230935  -0.486772  0  3.956894  0
C  C66  1  0.99886554  0.00512528  0.12659561  1  0  -0.406718  0  3.720855  0  0  -0.489682  0  3.960626  0  0  -0.493703  0  3.965719  0  0  -0.230927  -0.486714  0  3.95691  0
C  C67  1  0.00113043  0.50512575  0.37340295  1  0  -0.406673  0  3.72071  0  0  -0.489652  0  3.960457  0  0  -0.493673  0  3.96555  0  0  -0.230872  -0.486683  0  3.956741  0
C  C68  1  0.42510844  0.20676921  0.18217585  1  0  -0.135273  0  3.701841  0  0  -0.157365  0  3.956811  0  0  -0.164797  0  3.975785  0  0  -0.076382  -0.152816  0  3.944514  0
C  C69  1  0.57489648  0.70676789  0.31782220  1  0  -0.134985  0  3.701967  0  0  -0.157058  0  3.956903  0  0  -0.164489  0  3.975881  0  0  -0.076244  -0.152511  0  3.944604  0
C  C70  1  0.57489678  0.79322985  0.81782058  1  0  -0.135207  0  3.701888  0  0  -0.157284  0  3.956831  0  0  -0.164718  0  3.975805  0  0  -0.076308  -0.152731  0  3.944532  0
C  C71  1  0.42509894  0.29322883  0.68217897  1  0  -0.135149  0  3.701948  0  0  -0.157201  0  3.956891  0  0  -0.164637  0  3.975866  0  0  -0.076252  -0.152645  0  3.944582  0
C  C72  1  0.08082242  0.02115069  0.79411570  1  0  0.390038  0  3.662455  0  0  0.367139  0  3.924469  0  0  0.383618  0  3.93859  0  0  0.22636  0.356316  0  3.91449  0
C  C73  1  0.91917818  0.52115112  0.70588483  1  0  0.390176  0  3.662281  0  0  0.367226  0  3.924354  0  0  0.383705  0  3.938473  0  0  0.22637  0.356404  0  3.914377  0
C  C74  1  0.91917790  0.97884915  0.20588346  1  0  0.390194  0  3.662249  0  0  0.367198  0  3.924397  0  0  0.383677  0  3.938517  0  0  0.226376  0.356376  0  3.914419  0
C  C75  1  0.08081845  0.47885106  0.29411362  1  0  0.390167  0  3.662148  0  0  0.367184  0  3.92429  0  0  0.383662  0  3.938409  0  0  0.226327  0.356361  0  3.914312  0
C  C76  1  0.74468249  0.17305438  0.44798897  1  0  0.637352  0  3.942681  0  0  0.586599  0  4.239342  0  0  0.620331  0  4.234047  0  0  0.201939  0.563822  0  4.242201  0
C  C77  1  0.25531769  0.67305443  0.05201184  1  0  0.637573  0  3.942746  0  0  0.586807  0  4.239427  0  0  0.620542  0  4.234129  0  0  0.202064  0.564031  0  4.242287  0
C  C78  1  0.25531909  0.82694780  0.55201337  1  0  0.637503  0  3.942763  0  0  0.586742  0  4.239447  0  0  0.620477  0  4.234151  0  0  0.202085  0.563966  0  4.242305  0
C  C79  1  0.74467895  0.32694776  0.94798735  1  0  0.637602  0  3.942674  0  0  0.586835  0  4.239357  0  0  0.620568  0  4.234056  0  0  0.202099  0.564059  0  4.242219  0
C  C80  1  0.27528921  0.04970456  0.71853652  1  0  -0.047913  0  3.660476  0  0  -0.093746  0  3.933363  0  0  -0.0928  0  3.952572  0  0  0.000692  -0.094303  0  3.920517  0
C  C81  1  0.72471126  0.54970844  0.78146324  1  0  -0.047801  0  3.66065  0  0  -0.093654  0  3.933534  0  0  -0.092705  0  3.952737  0  0  0.000698  -0.094205  0  3.920701  0
C  C82  1  0.72471359  0.95029294  0.28146459  1  0  -0.047976  0  3.660537  0  0  -0.09384  0  3.933447  0  0  -0.092892  0  3.952652  0  0  0.000616  -0.094392  0  3.920607  0
C  C83  1  0.27528907  0.45029530  0.21853739  1  0  -0.047884  0  3.660401  0  0  -0.093735  0  3.933271  0  0  -0.09279  0  3.952481  0  0  0.000682  -0.094287  0  3.920435  0
C  C84  1  0.50482131  0.07956158  0.93132197  1  0  -0.116541  0  3.722601  0  0  -0.137883  0  3.974104  0  0  -0.140056  0  3.993988  0  0  -0.084201  -0.136426  0  3.960756  0
C  C85  1  0.49517534  0.57956432  0.56867779  1  0  -0.116625  0  3.722632  0  0  -0.13794  0  3.974122  0  0  -0.140118  0  3.994012  0  0  -0.084159  -0.136481  0  3.960784  0
C  C86  1  0.49517285  0.92043592  0.06867601  1  0  -0.116651  0  3.722699  0  0  -0.137977  0  3.974186  0  0  -0.140157  0  3.994089  0  0  -0.084197  -0.136519  0  3.960844  0
C  C87  1  0.50481884  0.42043942  0.43132166  1  0  -0.116562  0  3.722596  0  0  -0.137911  0  3.974094  0  0  -0.140086  0  3.993982  0  0  -0.084169  -0.136452  0  3.960753  0
C  C88  1  0.51603872  0.26895265  0.13640672  1  0  0.13924  0  3.664025  0  0  0.10624  0  3.919242  0  0  0.115718  0  3.933472  0  0  0.052924  0.100039  0  3.909799  0
C  C89  1  0.48396964  0.76895304  0.36359345  1  0  0.139077  0  3.664032  0  0  0.106048  0  3.919265  0  0  0.115532  0  3.933495  0  0  0.052833  0.09985  0  3.909818  0
C  C90  1  0.48396777  0.73104719  0.86359510  1  0  0.139184  0  3.663907  0  0  0.106155  0  3.919143  0  0  0.115643  0  3.933369  0  0  0.052914  0.099952  0  3.9097  0
C  C91  1  0.51602947  0.23104602  0.63640695  1  0  0.139102  0  3.663978  0  0  0.106055  0  3.919242  0  0  0.115544  0  3.933471  0  0  0.05282  0.099855  0  3.909791  0
C  C92  1  0.38819073  0.11428837  0.33606790  1  0  0.661253  0  3.941917  0  0  0.607587  0  4.248064  0  0  0.64212  0  4.237577  0  0  0.205781  0.583869  0  4.254463  0
C  C93  1  0.61181709  0.61428543  0.16393439  1  0  0.661088  0  3.94186  0  0  0.60742  0  4.248023  0  0  0.641947  0  4.23755  0  0  0.205778  0.583704  0  4.254416  0
C  C94  1  0.61181574  0.88571303  0.66393098  1  0  0.661319  0  3.941616  0  0  0.607581  0  4.247888  0  0  0.6421  0  4.237427  0  0  0.205821  0.583865  0  4.254281  0
C  C95  1  0.38818080  0.38571519  0.83606798  1  0  0.661217  0  3.941672  0  0  0.607549  0  4.247834  0  0  0.642084  0  4.237346  0  0  0.205812  0.583834  0  4.254228  0
C  C96  1  0.12409347  0.06766461  0.64861632  1  0  0.020866  0  3.731865  0  0  -0.016024  0  4.000408  0  0  -0.014006  0  4.019569  0  0  0.00131  -0.017445  0  3.987573  0
C  C97  1  0.87590569  0.56766666  0.85138319  1  0  0.020808  0  3.731978  0  0  -0.016092  0  4.000507  0  0  -0.014075  0  4.019667  0  0  0.001282  -0.017516  0  3.987681  0
C  C98  1  0.87591300  0.93233211  0.35138329  1  0  0.021057  0  3.731817  0  0  -0.015831  0  4.000326  0  0  -0.013813  0  4.019489  0  0  0.001399  -0.017252  0  3.987493  0
C  C99  1  0.12409095  0.43233240  0.14861600  1  0  0.020854  0  3.731874  0  0  -0.016015  0  4.000393  0  0  -0.013996  0  4.019554  0  0  0.001323  -0.017439  0  3.987564  0
N  N100  1  0.24736638  0.02099759  0.81031006  1  0  -0.139007  0  3.534096  0  0  -0.053264  0  3.743423  0  0  -0.068845  0  3.7682  0  0  -0.221109  -0.042902  0  3.726532  0
N  N101  1  0.75263175  0.52099909  0.68968852  1  0  -0.139237  0  3.534082  0  0  -0.053444  0  3.743446  0  0  -0.069024  0  3.768219  0  0  -0.221106  -0.043083  0  3.726559  0
N  N102  1  0.75263270  0.97899834  0.18968739  1  0  -0.139235  0  3.534054  0  0  -0.053423  0  3.743399  0  0  -0.069002  0  3.768173  0  0  -0.221091  -0.043063  0  3.726511  0
N  N103  1  0.24736491  0.47900309  0.31031288  1  0  -0.139153  0  3.533996  0  0  -0.053356  0  3.743349  0  0  -0.068936  0  3.768126  0  0  -0.221072  -0.042995  0  3.726461  0
N  N104  1  0.67276663  0.29720845  0.18734453  1  0  -0.336232  0  3.297125  0  0  -0.256352  0  3.58311  0  0  -0.274217  0  3.594342  0  0  -0.334559  -0.244578  0  3.575574  0
N  N105  1  0.32724163  0.79721147  0.31265855  1  0  -0.336037  0  3.296852  0  0  -0.256118  0  3.582773  0  0  -0.273985  0  3.594011  0  0  -0.334477  -0.244346  0  3.575236  0
N  N106  1  0.32723987  0.70278749  0.81265803  1  0  -0.336091  0  3.296983  0  0  -0.25619  0  3.582951  0  0  -0.274056  0  3.594186  0  0  -0.334543  -0.244417  0  3.575417  0
N  N107  1  0.67275746  0.20278915  0.68734037  1  0  -0.335997  0  3.296925  0  0  -0.256097  0  3.582888  0  0  -0.273964  0  3.594123  0  0  -0.334458  -0.244323  0  3.575349  0
N  N108  1  0.00471448  0.05022686  0.69637069  1  0  -0.447329  0  3.285964  0  0  -0.368255  0  3.585436  0  0  -0.389338  0  3.594808  0  0  -0.360677  -0.35401  0  3.578868  0
N  N109  1  0.99528600  0.55022792  0.80362981  1  0  -0.447379  0  3.285925  0  0  -0.368283  0  3.585409  0  0  -0.389369  0  3.594786  0  0  -0.360713  -0.354041  0  3.57885  0
N  N110  1  0.99528708  0.94977376  0.30362871  1  0  -0.447408  0  3.28586  0  0  -0.368319  0  3.585386  0  0  -0.389405  0  3.594761  0  0  -0.360711  -0.354076  0  3.578823  0
N  N111  1  0.00471309  0.44977504  0.19636838  1  0  -0.447382  0  3.285924  0  0  -0.368313  0  3.585452  0  0  -0.389395  0  3.594819  0  0  -0.360721  -0.354071  0  3.578891  0
O  O112  1  0.68544299  0.09165541  0.48058070  1  0  -0.629209  0  2.056196  0  0  -0.549797  0  2.323899  0  0  -0.579244  0  2.309798  0  0  -0.321033  -0.529331  0  2.332866  0
O  O113  1  0.31456245  0.59165457  0.01941893  1  0  -0.629318  0  2.056125  0  0  -0.549887  0  2.323816  0  0  -0.579336  0  2.309713  0  0  -0.321086  -0.529424  0  2.332786  0
O  O114  1  0.31456347  0.90834365  0.51941743  1  0  -0.629294  0  2.056192  0  0  -0.549848  0  2.323849  0  0  -0.579294  0  2.309744  0  0  -0.321087  -0.529389  0  2.332823  0
O  O115  1  0.68543789  0.40834605  0.98058245  1  0  -0.629348  0  2.056245  0  0  -0.549924  0  2.323951  0  0  -0.579386  0  2.309881  0  0  -0.321115  -0.529461  0  2.332923  0
O  O116  1  0.86123552  0.22833398  0.50077244  1  0  -0.61572  0  1.887305  0  0  -0.575727  0  2.104484  0  0  -0.597498  0  2.095316  0  0  -0.326732  -0.560497  0  2.110241  0
O  O117  1  0.13876174  0.72833029  0.99923035  1  0  -0.615806  0  1.887558  0  0  -0.575817  0  2.104762  0  0  -0.597573  0  2.095566  0  0  -0.326781  -0.560581  0  2.110509  0
O  O118  1  0.13876238  0.77167054  0.49922993  1  0  -0.615806  0  1.887503  0  0  -0.57583  0  2.104714  0  0  -0.597586  0  2.095516  0  0  -0.326808  -0.560593  0  2.11046  0
O  O119  1  0.86123490  0.27166877  0.00076957  1  0  -0.615828  0  1.88738  0  0  -0.575837  0  2.104576  0  0  -0.597597  0  2.09539  0  0  -0.326804  -0.560599  0  2.110322  0
O  O120  1  0.32436925  0.16238025  0.39316003  1  0  -0.589787  0  1.857472  0  0  -0.548653  0  2.059794  0  0  -0.572422  0  2.051358  0  0  -0.32081  -0.531284  0  2.064788  0
O  O121  1  0.67563466  0.66237409  0.10684076  1  0  -0.589716  0  1.857653  0  0  -0.548583  0  2.059972  0  0  -0.572348  0  2.05154  0  0  -0.320818  -0.531215  0  2.064968  0
O  O122  1  0.67563598  0.83762115  0.60683860  1  0  -0.589822  0  1.857412  0  0  -0.548673  0  2.059774  0  0  -0.572435  0  2.051347  0  0  -0.320865  -0.531307  0  2.064768  0
O  O123  1  0.32436323  0.33762419  0.89316161  1  0  -0.589802  0  1.857492  0  0  -0.54867  0  2.059804  0  0  -0.572439  0  2.05137  0  0  -0.320859  -0.531302  0  2.064799  0
O  O124  1  0.36684682  0.01738368  0.30853923  1  0  -0.655792  0  2.070651  0  0  -0.580001  0  2.343195  0  0  -0.610625  0  2.32875  0  0  -0.329529  -0.558186  0  2.352273  0
O  O125  1  0.63315773  0.51737836  0.19146171  1  0  -0.655673  0  2.070452  0  0  -0.579886  0  2.342996  0  0  -0.610509  0  2.328558  0  0  -0.329512  -0.55807  0  2.352067  0
O  O126  1  0.63315473  0.98262007  0.69146017  1  0  -0.655774  0  2.070394  0  0  -0.57996  0  2.342966  0  0  -0.610582  0  2.328533  0  0  -0.329509  -0.558144  0  2.35204  0
O  O127  1  0.36684630  0.48261992  0.80853964  1  0  -0.655743  0  2.070442  0  0  -0.579946  0  2.34297  0  0  -0.61057  0  2.328528  0  0  -0.329516  -0.558132  0  2.352043  0
