# generated using pymatgen
data_CuH3(CO2)3
_symmetry_space_group_name_H-M   'P 1'
_cell_length_a   7.87527805
_cell_length_b   8.24467793
_cell_length_c   11.39378325
_cell_angle_alpha   90.00188090
_cell_angle_beta   90.00113129
_cell_angle_gamma   90.00055034
_symmetry_Int_Tables_number   1
_chemical_formula_structural   CuH3(CO2)3
_chemical_formula_sum   'Cu4 H12 C12 O24'
_cell_volume   739.78844610
_cell_formula_units_Z   4
loop_
 _symmetry_equiv_pos_site_id
 _symmetry_equiv_pos_as_xyz
  1  'x, y, z'
loop_
 _atom_site_type_symbol
 _atom_site_label
 _atom_site_symmetry_multiplicity
 _atom_site_fract_x
 _atom_site_fract_y
 _atom_site_fract_z
 _atom_site_occupancy
 _atom_site_pbe_cm5_charge
 _atom_site_pbe_ddec_charge
 _atom_site_pbe_ddec_spin_density
 _atom_site_pbe_ddec_sum_bond_order
 _atom_site_pbe_magmom
Cu  Cu0  1  0.99999249  0.00000372  0.50000230  1  0.852219  1.037793  -1.064213  2.405898  -0.76
Cu  Cu1  1  0.49999364  0.50000158  0.49999650  1  0.852185  1.037905  1.064195  2.405738  0.76
Cu  Cu2  1  0.00000127  0.99999540  0.00000050  1  0.852171  1.037773  1.064185  2.405766  0.76
Cu  Cu3  1  0.50000112  0.50000197  0.99999987  1  0.852156  1.037831  -1.064109  2.405642  -0.76
H  H4  1  0.20664442  0.71081627  0.44767699  1  0.128261  0.054822  0.000127  1.003525  0.0
H  H5  1  0.70665132  0.78916478  0.55230813  1  0.128312  0.054799  -0.000127  1.003586  0.0
H  H6  1  0.79334270  0.28917035  0.94766582  1  0.128271  0.054675  -0.000134  1.003586  0.0
H  H7  1  0.29336660  0.21079547  0.05231312  1  0.128236  0.054711  0.000133  1.003564  0.0
H  H8  1  0.79334159  0.28920022  0.55232391  1  0.128236  0.054667  0.000129  1.003603  0.0
H  H9  1  0.29335628  0.21081654  0.44768750  1  0.128263  0.054744  -0.000133  1.003462  0.0
H  H10  1  0.20666871  0.71082431  0.05233070  1  0.128301  0.054733  -0.000127  1.003583  0.0
H  H11  1  0.70663338  0.78921739  0.94768778  1  0.128262  0.054788  0.000129  1.003603  0.0
H  H12  1  0.90730300  0.97383071  0.25000755  1  0.130496  0.054977  -1e-06  0.988233  0.0
H  H13  1  0.40732587  0.52618976  0.74999735  1  0.130543  0.055077  4e-06  0.988323  0.0
H  H14  1  0.09269443  0.02616516  0.74999511  1  0.130484  0.054967  -0.0  0.988137  0.0
H  H15  1  0.59267030  0.47379762  0.25000180  1  0.130488  0.055069  -5e-06  0.98839  0.0
C  C16  1  0.27375437  0.77221539  0.51997907  1  0.163268  0.500502  0.000193  4.085422  0.0
C  C17  1  0.77375504  0.72777597  0.48000972  1  0.163307  0.500617  -0.00019  4.085465  0.0
C  C18  1  0.72624370  0.22780040  0.01997797  1  0.163234  0.50068  -0.000191  4.085415  0.0
C  C19  1  0.22625700  0.27219635  0.98001310  1  0.163342  0.50083  0.000194  4.0855  0.0
C  C20  1  0.72623926  0.22779261  0.48002008  1  0.163329  0.500639  0.000194  4.085433  0.0
C  C21  1  0.22622843  0.27220292  0.51999118  1  0.163262  0.500628  -0.000192  4.084882  0.0
C  C22  1  0.27375501  0.77220639  0.98002293  1  0.163345  0.500632  -0.000189  4.085314  0.0
C  C23  1  0.77374298  0.72779710  0.01998342  1  0.163301  0.500542  0.000193  4.085337  0.0
C  C24  1  0.04264545  0.00744337  0.25000079  1  0.165396  0.507624  1e-06  4.080807  0.0
C  C25  1  0.54264409  0.49258931  0.74998658  1  0.165376  0.507465  2e-06  4.081062  0.0
C  C26  1  0.95734310  0.99256342  0.75000626  1  0.165277  0.507369  1e-06  4.081074  0.0
C  C27  1  0.45734954  0.50740778  0.24998975  1  0.16537  0.507412  -1e-06  4.081177  0.0
O  O28  1  0.21240156  0.90019810  0.56541630  1  -0.289201  -0.45058  -0.087631  2.307613  -0.115
O  O29  1  0.71239726  0.59980363  0.43456364  1  -0.289258  -0.450681  0.087574  2.307502  0.115
O  O30  1  0.78760272  0.09979306  0.06542100  1  -0.289237  -0.450685  0.087682  2.30678  0.115
O  O31  1  0.28758826  0.40020545  0.93456750  1  -0.289258  -0.450769  -0.087659  2.3067  -0.115
O  O32  1  0.78758699  0.09979293  0.43458460  1  -0.289249  -0.450637  -0.087657  2.307289  -0.115
O  O33  1  0.28760906  0.40022015  0.56542848  1  -0.28932  -0.450823  0.087704  2.306475  0.115
O  O34  1  0.21240742  0.90018826  0.93458429  1  -0.289262  -0.450605  0.087578  2.307387  0.115
O  O35  1  0.71240918  0.59980498  0.06542901  1  -0.289211  -0.450579  -0.087604  2.307245  -0.115
O  O36  1  0.41319217  0.71492296  0.55799757  1  -0.287416  -0.451964  0.087957  2.31923  0.115
O  O37  1  0.91318867  0.78508180  0.44199601  1  -0.287491  -0.452021  -0.087999  2.31933  -0.115
O  O38  1  0.58683859  0.28507151  0.05798691  1  -0.28736  -0.451927  -0.087862  2.32011  -0.115
O  O39  1  0.08683894  0.21492761  0.94201167  1  -0.287384  -0.451985  0.087875  2.320115  0.115
O  O40  1  0.58681543  0.28507413  0.44200509  1  -0.28743  -0.451948  0.087888  2.319558  0.115
O  O41  1  0.08681639  0.21492256  0.55799963  1  -0.287323  -0.4518  -0.087869  2.320015  -0.115
O  O42  1  0.41318678  0.71492194  0.94200434  1  -0.28746  -0.451969  -0.087966  2.319314  -0.115
O  O43  1  0.91318263  0.78507918  0.05799362  1  -0.287404  -0.451896  0.087961  2.31934  0.115
O  O44  1  0.12092843  0.02730478  0.34648933  1  -0.288877  -0.452887  -0.086062  2.31823  -0.113
O  O45  1  0.62093082  0.47272133  0.65352382  1  -0.288903  -0.452828  0.085959  2.318633  0.113
O  O46  1  0.87905871  0.97268454  0.84648874  1  -0.288863  -0.452821  0.08602  2.318348  0.113
O  O47  1  0.37907438  0.52727625  0.15352801  1  -0.28892  -0.452883  -0.085942  2.318829  -0.113
O  O48  1  0.87907155  0.97270080  0.65351596  1  -0.288914  -0.452873  -0.086044  2.318218  -0.113
O  O49  1  0.37904884  0.52728546  0.34648411  1  -0.288961  -0.453005  0.086112  2.317745  0.113
O  O50  1  0.12094000  0.02730891  0.15351743  1  -0.288984  -0.453042  0.086042  2.318084  0.113
O  O51  1  0.62094211  0.47272206  0.84648079  1  -0.289004  -0.453065  -0.086127  2.317814  -0.113
