# generated using pymatgen
data_ZnH12C12S2(NO3)2
_symmetry_space_group_name_H-M   'P 1'
_cell_length_a   5.01885810
_cell_length_b   9.97618401
_cell_length_c   14.65175846
_cell_angle_alpha   90.00002781
_cell_angle_beta   90.00022701
_cell_angle_gamma   103.25356458
_symmetry_Int_Tables_number   1
_chemical_formula_structural   ZnH12C12S2(NO3)2
_chemical_formula_sum   'Zn2 H24 C24 S4 N4 O12'
_cell_volume   714.06022652
_cell_formula_units_Z   2
loop_
 _symmetry_equiv_pos_site_id
 _symmetry_equiv_pos_as_xyz
  1  'x, y, z'
loop_
 _atom_site_type_symbol
 _atom_site_label
 _atom_site_symmetry_multiplicity
 _atom_site_fract_x
 _atom_site_fract_y
 _atom_site_fract_z
 _atom_site_occupancy
 _atom_site_hle17_bader_spin_density
 _atom_site_hle17_ddec_charge
 _atom_site_hle17_ddec_spin_density
 _atom_site_hle17_ddec_sum_bond_order
 _atom_site_hle17_magmom
 _atom_site_hse06_10hf_bader_spin_density
 _atom_site_hse06_10hf_ddec_charge
 _atom_site_hse06_10hf_ddec_spin_density
 _atom_site_hse06_10hf_ddec_sum_bond_order
 _atom_site_hse06_10hf_magmom
 _atom_site_hse06_bader_spin_density
 _atom_site_hse06_ddec_charge
 _atom_site_hse06_ddec_spin_density
 _atom_site_hse06_ddec_sum_bond_order
 _atom_site_hse06_magmom
 _atom_site_pbe_bader_spin_density
 _atom_site_pbe_cm5_charge
 _atom_site_pbe_ddec_charge
 _atom_site_pbe_ddec_spin_density
 _atom_site_pbe_ddec_sum_bond_order
 _atom_site_pbe_magmom
Zn  Zn0  1  0.00000225  0.00000103  0.99999874  1  0  1.058647  0  1.824452  0  0  0.884988  0  2.270534  0  0  0.927482  0  2.22132  0  0  0.712961  0.854633  0  2.305419  0
Zn  Zn1  1  0.99999898  0.49999690  0.50000014  1  0  1.058668  0  1.824518  0  0  0.885011  0  2.270593  0  0  0.927498  0  2.221381  0  0  0.712962  0.854661  0  2.30548  0
H  H2  1  0.50951059  0.61808974  0.01115612  1  0  0.117888  0  0.944798  0  0  0.130347  0  1.003187  0  0  0.133416  0  1.002638  0  0  0.112135  0.128189  0  1.003624  0
H  H3  1  0.50951312  0.11809234  0.48884340  1  0  0.117906  0  0.944785  0  0  0.130359  0  1.003179  0  0  0.133428  0  1.00263  0  0  0.112145  0.128202  0  1.003615  0
H  H4  1  0.49048046  0.38190658  0.98884690  1  0  0.117896  0  0.9449  0  0  0.130368  0  1.00326  0  0  0.133438  0  1.002708  0  0  0.112127  0.128201  0  1.003705  0
H  H5  1  0.49049435  0.88190504  0.51115689  1  0  0.117934  0  0.944819  0  0  0.130392  0  1.003187  0  0  0.133468  0  1.002626  0  0  0.112106  0.128218  0  1.003642  0
H  H6  1  0.00141595  0.63305218  0.24771441  1  0  0.131669  0  0.949586  0  0  0.138582  0  1.010819  0  0  0.142368  0  1.009241  0  0  0.114001  0.135875  0  1.01218  0
H  H7  1  0.00140447  0.13304295  0.25228783  1  0  0.131683  0  0.949519  0  0  0.138567  0  1.010778  0  0  0.142355  0  1.009197  0  0  0.114001  0.135858  0  1.012143  0
H  H8  1  0.99857618  0.36695546  0.75228656  1  0  0.131676  0  0.94955  0  0  0.138609  0  1.010764  0  0  0.142393  0  1.009188  0  0  0.114017  0.135902  0  1.012128  0
H  H9  1  0.99859318  0.86695030  0.74771245  1  0  0.131667  0  0.949563  0  0  0.138537  0  1.010835  0  0  0.142324  0  1.009253  0  0  0.113999  0.13583  0  1.012196  0
H  H10  1  0.85420012  0.82883683  0.17500089  1  0  0.102651  0  0.926117  0  0  0.112553  0  0.984424  0  0  0.115213  0  0.982507  0  0  0.125683  0.110664  0  0.985812  0
H  H11  1  0.85417175  0.32882360  0.32500054  1  0  0.102676  0  0.926157  0  0  0.112584  0  0.984468  0  0  0.115243  0  0.982553  0  0  0.125668  0.110694  0  0.985857  0
H  H12  1  0.14581518  0.17117806  0.82499872  1  0  0.102712  0  0.926128  0  0  0.112577  0  0.984473  0  0  0.115238  0  0.982553  0  0  0.125676  0.110688  0  0.985861  0
H  H13  1  0.14582390  0.67116965  0.67499906  1  0  0.102622  0  0.9262  0  0  0.112534  0  0.984504  0  0  0.115194  0  0.982588  0  0  0.125665  0.110646  0  0.985891  0
H  H14  1  0.55058096  0.47451950  0.15009712  1  0  0.116198  0  0.966597  0  0  0.133195  0  1.033664  0  0  0.134929  0  1.033586  0  0  0.089395  0.131837  0  1.03392  0
H  H15  1  0.55058497  0.97452275  0.34990531  1  0  0.116172  0  0.966652  0  0  0.133173  0  1.03372  0  0  0.134906  0  1.033641  0  0  0.089387  0.131814  0  1.033976  0
H  H16  1  0.44940549  0.52547990  0.84990658  1  0  0.116227  0  0.96657  0  0  0.133223  0  1.033631  0  0  0.134958  0  1.033549  0  0  0.089396  0.131864  0  1.033887  0
H  H17  1  0.44942388  0.02547773  0.65009156  1  0  0.116178  0  0.966665  0  0  0.133173  0  1.033731  0  0  0.134908  0  1.033649  0  0  0.089364  0.131814  0  1.033988  0
H  H18  1  0.20031382  0.38752617  0.15446904  1  0  0.139049  0  0.945398  0  0  0.158189  0  1.008716  0  0  0.160171  0  1.008017  0  0  0.098747  0.156505  0  1.009767  0
H  H19  1  0.20032053  0.88752222  0.34553084  1  0  0.139025  0  0.945417  0  0  0.158198  0  1.008691  0  0  0.160155  0  1.008013  0  0  0.098765  0.156514  0  1.009738  0
H  H20  1  0.79967754  0.61247529  0.84553466  1  0  0.139019  0  0.945482  0  0  0.1582  0  1.008724  0  0  0.160146  0  1.00806  0  0  0.09876  0.156516  0  1.009772  0
H  H21  1  0.79969446  0.11247415  0.65446331  1  0  0.139046  0  0.945463  0  0  0.158168  0  1.008765  0  0  0.160128  0  1.008085  0  0  0.098792  0.156486  0  1.009814  0
H  H22  1  0.35042085  0.48672353  0.24875067  1  0  0.124824  0  0.954658  0  0  0.144222  0  1.016693  0  0  0.145993  0  1.016245  0  0  0.094087  0.143047  0  1.016855  0
H  H23  1  0.35042930  0.98672145  0.25125012  1  0  0.124822  0  0.954628  0  0  0.144205  0  1.016685  0  0  0.145977  0  1.016232  0  0  0.094084  0.14303  0  1.016844  0
H  H24  1  0.64956146  0.51327997  0.75124893  1  0  0.124827  0  0.954646  0  0  0.144218  0  1.016684  0  0  0.145991  0  1.016232  0  0  0.094078  0.143044  0  1.016846  0
H  H25  1  0.64957893  0.01328211  0.74874675  1  0  0.124848  0  0.954672  0  0  0.144233  0  1.016703  0  0  0.146007  0  1.016249  0  0  0.094101  0.143059  0  1.016864  0
C  C26  1  0.27002090  0.77050705  0.01500467  1  0  0.059463  0  3.74791  0  0  0.064768  0  3.99981  0  0  0.067852  0  4.019195  0  0  0.110274  0.062619  0  3.986897  0
C  C27  1  0.27001754  0.27050552  0.48499663  1  0  0.059554  0  3.747829  0  0  0.064822  0  3.999732  0  0  0.067906  0  4.019117  0  0  0.110245  0.062673  0  3.986828  0
C  C28  1  0.72998289  0.22949547  0.98499494  1  0  0.05953  0  3.747777  0  0  0.064831  0  3.999695  0  0  0.067912  0  4.019081  0  0  0.110225  0.062684  0  3.986778  0
C  C29  1  0.72997949  0.72949082  0.51500434  1  0  0.059634  0  3.747768  0  0  0.064902  0  3.999722  0  0  0.067981  0  4.01911  0  0  0.110228  0.062719  0  3.986859  0
C  C30  1  0.36058198  0.65933972  0.04962922  1  0  -0.174959  0  3.686964  0  0  -0.204841  0  3.930558  0  0  -0.211685  0  3.951436  0  0  -0.080406  -0.200049  0  3.916377  0
C  C31  1  0.36057666  0.15933914  0.45037147  1  0  -0.174974  0  3.687031  0  0  -0.204859  0  3.930624  0  0  -0.211703  0  3.951502  0  0  -0.080386  -0.200066  0  3.916444  0
C  C32  1  0.63940355  0.34065761  0.95036970  1  0  -0.174996  0  3.687048  0  0  -0.204885  0  3.930619  0  0  -0.211728  0  3.951498  0  0  -0.080347  -0.200083  0  3.916439  0
C  C33  1  0.63941945  0.84065513  0.54963154  1  0  -0.17515  0  3.687197  0  0  -0.205006  0  3.930776  0  0  -0.211857  0  3.951653  0  0  -0.080337  -0.20019  0  3.916613  0
C  C34  1  0.26285671  0.60429030  0.13451520  1  0  0.225802  0  3.69795  0  0  0.246803  0  3.935601  0  0  0.253132  0  3.956236  0  0  0.025499  0.242436  0  3.921552  0
C  C35  1  0.26285094  0.10428646  0.36548670  1  0  0.225764  0  3.698008  0  0  0.246789  0  3.935597  0  0  0.25312  0  3.956228  0  0  0.025522  0.242425  0  3.921547  0
C  C36  1  0.73714478  0.39572044  0.86548850  1  0  0.225832  0  3.697919  0  0  0.246838  0  3.935561  0  0  0.253171  0  3.956189  0  0  0.025508  0.242472  0  3.921511  0
C  C37  1  0.73716282  0.89571608  0.63451290  1  0  0.225931  0  3.698065  0  0  0.246913  0  3.935684  0  0  0.253244  0  3.956317  0  0  0.025499  0.242548  0  3.921629  0
C  C38  1  0.07844186  0.66751030  0.18020516  1  0  -0.149898  0  3.623283  0  0  -0.16847  0  3.867321  0  0  -0.175298  0  3.885889  0  0  -0.071269  -0.164368  0  3.855489  0
C  C39  1  0.07842232  0.16749913  0.31979788  1  0  -0.149855  0  3.623082  0  0  -0.168385  0  3.867062  0  0  -0.175215  0  3.885631  0  0  -0.071285  -0.164279  0  3.855226  0
C  C40  1  0.92155518  0.33249941  0.81979648  1  0  -0.14994  0  3.62315  0  0  -0.168528  0  3.867151  0  0  -0.175358  0  3.885721  0  0  -0.071314  -0.164425  0  3.855322  0
C  C41  1  0.92157287  0.83249308  0.68020446  1  0  -0.149855  0  3.623104  0  0  -0.168368  0  3.867101  0  0  -0.175196  0  3.885669  0  0  -0.07121  -0.164264  0  3.855266  0
C  C42  1  0.99658438  0.77800555  0.14068427  1  0  0.156043  0  3.649914  0  0  0.120313  0  3.909783  0  0  0.128243  0  3.925802  0  0  0.056005  0.114895  0  3.899301  0
C  C43  1  0.99656135  0.27799446  0.35931801  1  0  0.15604  0  3.649678  0  0  0.120271  0  3.90953  0  0  0.128197  0  3.925556  0  0  0.056053  0.114857  0  3.899048  0
C  C44  1  0.00342907  0.22200522  0.85931669  1  0  0.15597  0  3.649665  0  0  0.12029  0  3.90951  0  0  0.128219  0  3.925529  0  0  0.056024  0.114874  0  3.89903  0
C  C45  1  0.00343476  0.72199981  0.64068159  1  0  0.156066  0  3.64979  0  0  0.120332  0  3.909637  0  0  0.128259  0  3.925662  0  0  0.055988  0.114918  0  3.899155  0
C  C46  1  0.34831699  0.48284437  0.17402176  1  0  -0.359857  0  3.686407  0  0  -0.440133  0  3.919225  0  0  -0.443531  0  3.926322  0  0  -0.243987  -0.437296  0  3.914553  0
C  C47  1  0.34831993  0.98284140  0.32597972  1  0  -0.359767  0  3.686339  0  0  -0.440088  0  3.919196  0  0  -0.443459  0  3.926309  0  0  -0.243976  -0.437249  0  3.914515  0
C  C48  1  0.65167068  0.51716223  0.82597989  1  0  -0.359824  0  3.686276  0  0  -0.440154  0  3.919178  0  0  -0.443508  0  3.926277  0  0  -0.243967  -0.437318  0  3.914507  0
C  C49  1  0.65168600  0.01715701  0.67401784  1  0  -0.359858  0  3.686559  0  0  -0.44009  0  3.919377  0  0  -0.443464  0  3.926482  0  0  -0.243988  -0.437256  0  3.914703  0
S  S50  1  0.39381692  0.84283705  0.90635443  1  0  1.274479  0  5.628146  0  0  1.170744  0  6.150888  0  0  1.219353  0  6.126026  0  0  0.52238  1.13718  0  6.167024  0
S  S51  1  0.39381159  0.34283676  0.59364648  1  0  1.274548  0  5.627999  0  0  1.170872  0  6.150699  0  0  1.219479  0  6.125837  0  0  0.522414  1.137309  0  6.166833  0
S  S52  1  0.60618748  0.15716239  0.09364586  1  0  1.274462  0  5.628151  0  0  1.170751  0  6.150856  0  0  1.219356  0  6.125991  0  0  0.522374  1.137183  0  6.166992  0
S  S53  1  0.60618698  0.65715854  0.40635449  1  0  1.274636  0  5.627966  0  0  1.170911  0  6.150684  0  0  1.21952  0  6.125819  0  0  0.522434  1.137357  0  6.166822  0
N  N54  1  0.09074716  0.82901874  0.05853107  1  0  -0.344758  0  3.346302  0  0  -0.270391  0  3.610067  0  0  -0.288912  0  3.627249  0  0  -0.331047  -0.257896  0  3.598754  0
N  N55  1  0.09072900  0.32901194  0.44146932  1  0  -0.344942  0  3.346172  0  0  -0.270516  0  3.609901  0  0  -0.289042  0  3.627089  0  0  -0.331115  -0.258027  0  3.598599  0
N  N56  1  0.90925816  0.17098275  0.94146853  1  0  -0.344805  0  3.346122  0  0  -0.270456  0  3.60989  0  0  -0.288978  0  3.627072  0  0  -0.331072  -0.257962  0  3.59858  0
N  N57  1  0.90926313  0.67098232  0.55853029  1  0  -0.344918  0  3.346124  0  0  -0.270573  0  3.609935  0  0  -0.289099  0  3.627124  0  0  -0.331098  -0.258073  0  3.598644  0
O  O58  1  0.30609829  0.97497805  0.90168874  1  0  -0.66462  0  2.029902  0  0  -0.602859  0  2.307092  0  0  -0.62443  0  2.290118  0  0  -0.332808  -0.587605  0  2.318403  0
O  O59  1  0.30609348  0.47497880  0.59831141  1  0  -0.664645  0  2.029922  0  0  -0.602892  0  2.307093  0  0  -0.624438  0  2.290074  0  0  -0.332812  -0.587638  0  2.318403  0
O  O60  1  0.69390764  0.02502036  0.09831223  1  0  -0.664685  0  2.029911  0  0  -0.602866  0  2.307032  0  0  -0.624426  0  2.290043  0  0  -0.332784  -0.587611  0  2.318338  0
O  O61  1  0.69390999  0.52501857  0.40168614  1  0  -0.664762  0  2.029907  0  0  -0.602956  0  2.307077  0  0  -0.624492  0  2.290033  0  0  -0.332817  -0.587701  0  2.318381  0
O  O62  1  0.27087878  0.74271063  0.83773799  1  0  -0.614608  0  1.951331  0  0  -0.561804  0  2.188684  0  0  -0.583911  0  2.178269  0  0  -0.314963  -0.545974  0  2.195347  0
O  O63  1  0.27087983  0.24270948  0.66226340  1  0  -0.614666  0  1.951348  0  0  -0.56187  0  2.18868  0  0  -0.583979  0  2.178269  0  0  -0.31496  -0.546037  0  2.195341  0
O  O64  1  0.72912317  0.25728777  0.16226229  1  0  -0.614642  0  1.951343  0  0  -0.561848  0  2.188708  0  0  -0.583947  0  2.178285  0  0  -0.314988  -0.546018  0  2.195372  0
O  O65  1  0.72911475  0.75728582  0.33773757  1  0  -0.614634  0  1.951247  0  0  -0.561835  0  2.188602  0  0  -0.583942  0  2.178189  0  0  -0.314963  -0.546002  0  2.195261  0
O  O66  1  0.69409719  0.86374147  0.91055004  1  0  -0.668673  0  2.05533  0  0  -0.613687  0  2.341467  0  0  -0.636632  0  2.32615  0  0  -0.330205  -0.597355  0  2.35214  0
O  O67  1  0.69408997  0.36373706  0.58944924  1  0  -0.668674  0  2.055234  0  0  -0.61375  0  2.341394  0  0  -0.6367  0  2.32608  0  0  -0.33024  -0.597418  0  2.352067  0
O  O68  1  0.30591012  0.13626002  0.08945025  1  0  -0.668607  0  2.055334  0  0  -0.613692  0  2.341534  0  0  -0.636639  0  2.32622  0  0  -0.330204  -0.59736  0  2.352207  0
O  O69  1  0.30590875  0.63625413  0.41054695  1  0  -0.668714  0  2.055333  0  0  -0.613752  0  2.341472  0  0  -0.636703  0  2.326153  0  0  -0.330225  -0.597419  0  2.352144  0
