# generated using pymatgen
data_MnH28C46(N4O3)2
_symmetry_space_group_name_H-M   'P 1'
_cell_length_a   9.06605326
_cell_length_b   10.35297868
_cell_length_c   11.04852869
_cell_angle_alpha   61.94094403
_cell_angle_beta   78.43305727
_cell_angle_gamma   76.24433130
_symmetry_Int_Tables_number   1
_chemical_formula_structural   MnH28C46(N4O3)2
_chemical_formula_sum   'Mn1 H28 C46 N8 O6'
_cell_volume   884.11822690
_cell_formula_units_Z   1
loop_
 _symmetry_equiv_pos_site_id
 _symmetry_equiv_pos_as_xyz
  1  'x, y, z'
loop_
 _atom_site_type_symbol
 _atom_site_label
 _atom_site_symmetry_multiplicity
 _atom_site_fract_x
 _atom_site_fract_y
 _atom_site_fract_z
 _atom_site_occupancy
 _atom_site_pbe_cm5_charge
 _atom_site_pbe_ddec_charge
 _atom_site_pbe_ddec_spin_density
 _atom_site_pbe_ddec_sum_bond_order
 _atom_site_pbe_magmom
Mn  Mn0  1  0.00000031  0.99999952  0.49999917  1  0.646669  0.55973  1.225503  3.218911  1.173
H  H1  1  0.31254645  0.77091224  0.51673773  1  0.118603  0.084541  -0.000534  1.040771  0.0
H  H2  1  0.68745584  0.22908758  0.48326111  1  0.118612  0.084551  -0.000534  1.040755  0.0
H  H3  1  0.52777401  0.75505016  0.34410055  1  0.11092  0.121023  -2.3e-05  0.994768  0.0
H  H4  1  0.47222603  0.24494965  0.65589687  1  0.110924  0.121039  -2.3e-05  0.994753  0.0
H  H5  1  0.55802640  0.97912316  0.11528196  1  0.11387  0.121637  -0.000225  0.988317  0.0
H  H6  1  0.44197570  0.02087777  0.88471462  1  0.113878  0.121664  -0.000225  0.988352  0.0
H  H7  1  0.68771631  0.31240260  0.75844926  1  0.099196  0.09482  -9.1e-05  1.058404  0.0
H  H8  1  0.31228187  0.68759498  0.24154945  1  0.099198  0.094783  -9.1e-05  1.058472  0.0
H  H9  1  0.87751924  0.43636390  0.56317368  1  0.102467  0.119361  -0.000166  1.04258  0.0
H  H10  1  0.12247987  0.56363481  0.43682619  1  0.102464  0.119363  -0.000166  1.042548  0.0
H  H11  1  0.62915673  0.86220975  0.52118964  1  0.104173  0.122836  -0.000112  0.994299  0.0
H  H12  1  0.37084444  0.13779008  0.47881030  1  0.104177  0.122845  -0.000112  0.994371  0.0
H  H13  1  0.44621767  0.73945320  0.72041842  1  0.101241  0.110402  -0.000114  1.033959  0.0
H  H14  1  0.55378144  0.26054549  0.27957964  1  0.101249  0.110381  -0.000114  1.03395  0.0
H  H15  1  0.05290318  0.61690609  0.06565993  1  0.108978  0.11208  -0.000179  1.005546  0.0
H  H16  1  0.94709686  0.38309373  0.93434110  1  0.108983  0.112057  -0.000179  1.005573  0.0
H  H17  1  0.86039724  0.58081945  0.27190410  1  0.112084  0.126121  -1.5e-05  0.990506  0.0
H  H18  1  0.13960505  0.41918040  0.72809835  1  0.112063  0.126094  -1.5e-05  0.990554  0.0
H  H19  1  0.12793383  0.88014639  0.21467080  1  0.102765  0.104584  4.5e-05  1.022604  0.0
H  H20  1  0.87206470  0.11985565  0.78532949  1  0.10277  0.104571  4.5e-05  1.022595  0.0
H  H21  1  0.84304115  0.32798794  0.45694797  1  0.116515  0.073181  -0.000516  1.056956  0.0
H  H22  1  0.15696133  0.67201080  0.54305404  1  0.116517  0.073152  -0.000516  1.056978  0.0
H  H23  1  0.76015000  0.18360757  0.97998210  1  0.099012  0.097202  -4.5e-05  1.064915  0.0
H  H24  1  0.23984681  0.81639780  0.02001699  1  0.098973  0.097097  -4.5e-05  1.064956  0.0
H  H25  1  0.27656046  0.60686531  0.89027134  1  0.313636  0.301978  4.3e-05  0.990291  0.0
H  H26  1  0.72344051  0.39313561  0.10972633  1  0.313626  0.30197  4.3e-05  0.990305  0.0
H  H27  1  0.87124765  0.82126981  0.39136192  1  0.300861  0.346538  -0.000264  0.995443  0.0
H  H28  1  0.12875238  0.17873005  0.60864362  1  0.300846  0.346524  -0.000264  0.995505  0.0
C  C29  1  0.32158456  0.86385802  0.41507451  1  0.047948  0.075522  -0.002387  3.927444  0.0
C  C30  1  0.67841660  0.13614180  0.58492453  1  0.047952  0.075517  -0.002388  3.92736  0.0
C  C31  1  0.44555772  0.85734070  0.31811364  1  -0.082942  -0.124805  -0.004543  4.005021  -0.002
C  C32  1  0.55444139  0.14265799  0.68188442  1  -0.082922  -0.124785  -0.004543  4.00497  -0.002
C  C33  1  0.46269590  0.98059136  0.19258213  1  -0.063763  -0.064734  -0.007275  3.911226  -0.004
C  C34  1  0.53730508  0.01940957  0.80741554  1  -0.063762  -0.064789  -0.007275  3.911323  -0.004
C  C35  1  0.35647690  0.11157208  0.16831908  1  0.003283  -0.001015  -0.001677  4.013881  0.0
C  C36  1  0.64352183  0.88842882  0.83167716  1  0.003277  -0.000994  -0.001677  4.0139  0.0
C  C37  1  0.23098590  0.10800256  0.26935446  1  0.11023  0.096192  -0.008639  3.988994  -0.004
C  C38  1  0.76901488  0.89199948  0.73064365  1  0.110182  0.096114  -0.008639  3.989033  -0.004
C  C39  1  0.12461196  0.23898839  0.25685942  1  0.113097  0.106591  -0.010045  3.97328  -0.005
C  C40  1  0.87538769  0.76101366  0.74314068  1  0.11306  0.106549  -0.010046  3.973197  -0.005
C  C41  1  0.14243228  0.38090349  0.14504543  1  0.001914  -0.011207  -0.001029  4.027388  0.0
C  C42  1  0.85756644  0.61909742  0.85495171  1  0.001934  -0.011179  -0.001028  4.027226  0.0
C  C43  1  0.26808112  0.38144240  0.04413605  1  0.092726  0.083542  -0.000492  4.035502  0.0
C  C44  1  0.73191779  0.61855740  0.95586156  1  0.092706  0.083579  -0.000492  4.035436  0.0
C  C45  1  0.36981445  0.25236238  0.05280094  1  0.086382  0.089992  -7e-05  4.109313  0.0
C  C46  1  0.63018446  0.74763743  0.94719757  1  0.086367  0.089935  -7e-05  4.109291  0.0
C  C47  1  0.45460748  0.43427905  0.87297976  1  0.219212  0.30462  7.9e-05  4.016428  0.0
C  C48  1  0.54539295  0.56571854  0.12701949  1  0.219203  0.304566  7.9e-05  4.016567  0.0
C  C49  1  0.55305419  0.51608027  0.75220739  1  -0.027816  -0.027208  -0.000128  4.058926  0.0
C  C50  1  0.44694492  0.48391843  0.24779157  1  -0.027771  -0.027181  -0.000128  4.058963  0.0
C  C51  1  0.67488699  0.43281460  0.70445553  1  -0.090595  -0.092031  -0.000208  4.010274  0.0
C  C52  1  0.32511212  0.56718410  0.29554344  1  -0.090597  -0.091974  -0.000208  4.010224  0.0
C  C53  1  0.77806884  0.50133716  0.59400277  1  -0.113367  -0.218449  -0.000235  3.995102  0.0
C  C54  1  0.22193403  0.49865935  0.40600017  1  -0.113399  -0.218475  -0.000235  3.995092  0.0
C  C55  1  0.76144829  0.65681781  0.52550176  1  0.08001  0.320933  -0.000139  4.084096  0.0
C  C56  1  0.23855232  0.34317869  0.47450065  1  0.080027  0.320958  -0.000139  4.084152  0.0
C  C57  1  0.64122081  0.74144733  0.57282440  1  -0.111184  -0.228279  -0.000537  4.010706  0.0
C  C58  1  0.35878074  0.25855030  0.42717917  1  -0.111205  -0.228332  -0.000537  4.010707  0.0
C  C59  1  0.53844557  0.67171398  0.68515130  1  -0.092642  -0.102004  -0.00017  3.994375  0.0
C  C60  1  0.46155353  0.32828471  0.31484767  1  -0.092664  -0.101974  -0.00017  3.994316  0.0
C  C61  1  0.04240552  0.50626137  0.14832932  1  -0.068838  -0.069946  -0.010135  3.921095  -0.006
C  C62  1  0.95759564  0.49373846  0.85167061  1  -0.068832  -0.0699  -0.010136  3.921022  -0.006
C  C63  1  0.93473522  0.48635402  0.26145095  1  -0.081351  -0.113108  -0.003816  3.970752  -0.002
C  C64  1  0.06526707  0.51364581  0.73854880  1  -0.08132  -0.113095  -0.003816  3.970768  -0.002
C  C65  1  0.87809029  0.08171595  0.22316400  1  0.221153  0.571488  -0.005878  4.163221  -0.002
C  C66  1  0.12190711  0.91828610  0.77683828  1  0.221114  0.571429  -0.005877  4.163173  -0.002
C  C67  1  0.93843014  0.03654981  0.10941250  1  -0.019422  -0.044999  -0.004095  3.975458  -0.002
C  C68  1  0.06156481  0.96345335  0.89059060  1  -0.019401  -0.044905  -0.004095  3.975393  -0.002
C  C69  1  0.07212541  0.93164935  0.12035755  1  -0.085507  -0.087591  -0.00135  3.951565  -0.001
C  C70  1  0.92787687  0.06835051  0.87964672  1  -0.085527  -0.087556  -0.00135  3.951567  -0.001
C  C71  1  0.92442668  0.34341286  0.36674466  1  0.047087  0.083282  -0.004851  3.936093  -0.002
C  C72  1  0.07557561  0.65658699  0.63325690  1  0.047062  0.083288  -0.004851  3.936037  -0.002
C  C73  1  0.86614310  0.10457567  0.98790274  1  -0.086183  -0.099003  -0.002291  3.969086  -0.001
C  C74  1  0.13385503  0.89542860  0.01209843  1  -0.086161  -0.098879  -0.002291  3.969018  -0.001
N  N75  1  0.21138885  0.98297518  0.39052314  1  -0.327726  -0.213959  -0.023432  3.562894  -0.021
N  N76  1  0.78861344  0.01702465  0.60947661  1  -0.327727  -0.213914  -0.023432  3.562824  -0.021
N  N77  1  0.01344621  0.22044524  0.36509344  1  -0.325958  -0.21398  -0.022156  3.558745  -0.02
N  N78  1  0.98655383  0.77955458  0.63490669  1  -0.325938  -0.21394  -0.022156  3.558666  -0.02
N  N79  1  0.48386543  0.28634529  0.94649454  1  -0.339433  -0.403852  4.2e-05  3.2297  0.0
N  N80  1  0.51613275  0.71365230  0.05350598  1  -0.339378  -0.403752  4.2e-05  3.229639  0.0
N  N81  1  0.32470401  0.49580699  0.92932068  1  -0.372712  -0.302159  5.7e-05  3.571174  0.0
N  N82  1  0.67529510  0.50419170  0.07067829  1  -0.372728  -0.302208  5.7e-05  3.571245  0.0
O  O83  1  0.86418323  0.71623891  0.41547888  1  -0.357286  -0.475395  -9e-06  2.362585  0.0
O  O84  1  0.13582150  0.28375984  0.58452366  1  -0.357272  -0.475376  -9e-06  2.362675  0.0
O  O85  1  0.91621156  0.98307363  0.34581806  1  -0.303178  -0.522701  0.008837  2.416199  0.005
O  O86  1  0.08379166  0.01692731  0.65418014  1  -0.303187  -0.522712  0.008837  2.416135  0.005
O  O87  1  0.79814691  0.20597505  0.19820486  1  -0.300767  -0.531935  -0.003982  2.227802  -0.003
O  O88  1  0.20184955  0.79402590  0.80179897  1  -0.300737  -0.531939  -0.003981  2.227774  -0.003
