# generated using pymatgen
data_LiH8C4ClO2
_symmetry_space_group_name_H-M   'P 1'
_cell_length_a   7.09022809
_cell_length_b   7.62642990
_cell_length_c   11.37391305
_cell_angle_alpha   90.00001742
_cell_angle_beta   90.00002652
_cell_angle_gamma   89.99995435
_symmetry_Int_Tables_number   1
_chemical_formula_structural   LiH8C4ClO2
_chemical_formula_sum   'Li4 H32 C16 Cl4 O8'
_cell_volume   615.02305013
_cell_formula_units_Z   4
loop_
 _symmetry_equiv_pos_site_id
 _symmetry_equiv_pos_as_xyz
  1  'x, y, z'
loop_
 _atom_site_type_symbol
 _atom_site_label
 _atom_site_symmetry_multiplicity
 _atom_site_fract_x
 _atom_site_fract_y
 _atom_site_fract_z
 _atom_site_occupancy
 _atom_site_hle17_bader_spin_density
 _atom_site_hle17_ddec_charge
 _atom_site_hle17_ddec_spin_density
 _atom_site_hle17_ddec_sum_bond_order
 _atom_site_hle17_magmom
 _atom_site_hse06_10hf_bader_spin_density
 _atom_site_hse06_10hf_ddec_charge
 _atom_site_hse06_10hf_ddec_spin_density
 _atom_site_hse06_10hf_ddec_sum_bond_order
 _atom_site_hse06_10hf_magmom
 _atom_site_hse06_bader_spin_density
 _atom_site_hse06_ddec_charge
 _atom_site_hse06_ddec_spin_density
 _atom_site_hse06_ddec_sum_bond_order
 _atom_site_hse06_magmom
 _atom_site_pbe_bader_spin_density
 _atom_site_pbe_cm5_charge
 _atom_site_pbe_ddec_charge
 _atom_site_pbe_ddec_spin_density
 _atom_site_pbe_ddec_sum_bond_order
 _atom_site_pbe_magmom
Li  Li0  1  0.86548128  0.12827596  0.03566684  1  0  0.814469  0  0.44695  0  0  0.760024  0  0.570769  0  0  0.769729  0  0.555586  0  0  0.381331  0.753114  0  0.581514  0
Li  Li1  1  0.63451820  0.87172363  0.53566631  1  0  0.814476  0  0.446939  0  0  0.760031  0  0.570762  0  0  0.769736  0  0.555579  0  0  0.381333  0.753121  0  0.581507  0
Li  Li2  1  0.13451885  0.62827568  0.46433281  1  0  0.814475  0  0.446936  0  0  0.760032  0  0.570756  0  0  0.769734  0  0.555576  0  0  0.381339  0.753123  0  0.5815  0
Li  Li3  1  0.36548209  0.37172316  0.96433312  1  0  0.814467  0  0.446957  0  0  0.760036  0  0.570751  0  0  0.76974  0  0.555569  0  0  0.381341  0.753125  0  0.581497  0
H  H4  1  0.07545464  0.02334516  0.25000544  1  0  0.078571  0  0.927086  0  0  0.092106  0  0.990018  0  0  0.092975  0  0.988967  0  0  0.11003  0.091386  0  0.99088  0
H  H5  1  0.42454614  0.97665489  0.75000326  1  0  0.078624  0  0.92709  0  0  0.092158  0  0.99001  0  0  0.093029  0  0.988959  0  0  0.110026  0.09144  0  0.990866  0
H  H6  1  0.92454699  0.52334682  0.24999595  1  0  0.078583  0  0.927096  0  0  0.092095  0  0.990046  0  0  0.092961  0  0.989004  0  0  0.110013  0.09138  0  0.990891  0
H  H7  1  0.57545406  0.47665418  0.74999707  1  0  0.078588  0  0.927122  0  0  0.092128  0  0.990044  0  0  0.092997  0  0.988996  0  0  0.11001  0.091413  0  0.990895  0
H  H8  1  0.89565921  0.86812153  0.28937293  1  0  0.060346  0  0.943111  0  0  0.069918  0  1.015477  0  0  0.071112  0  1.01409  0  0  0.103748  0.068919  0  1.016666  0
H  H9  1  0.60433763  0.13187948  0.78937311  1  0  0.060348  0  0.943115  0  0  0.069955  0  1.015442  0  0  0.071152  0  1.01405  0  0  0.103755  0.068938  0  1.016647  0
H  H10  1  0.10433930  0.36812114  0.21062677  1  0  0.060337  0  0.943133  0  0  0.069923  0  1.015478  0  0  0.071117  0  1.014091  0  0  0.103752  0.068922  0  1.016667  0
H  H11  1  0.39566145  0.63187889  0.71062715  1  0  0.060328  0  0.943137  0  0  0.069918  0  1.015487  0  0  0.071113  0  1.014099  0  0  0.10375  0.068921  0  1.016677  0
H  H12  1  0.00194933  0.02125251  0.46850543  1  0  0.078361  0  0.964702  0  0  0.090774  0  1.029577  0  0  0.091222  0  1.029817  0  0  0.106622  0.090357  0  1.029578  0
H  H13  1  0.49804879  0.97874633  0.96850415  1  0  0.078389  0  0.964682  0  0  0.090789  0  1.029563  0  0  0.091237  0  1.029803  0  0  0.106639  0.090372  0  1.029562  0
H  H14  1  0.99805090  0.52125271  0.03149508  1  0  0.078354  0  0.964689  0  0  0.090775  0  1.029551  0  0  0.091223  0  1.02979  0  0  0.106625  0.090358  0  1.029553  0
H  H15  1  0.50195140  0.47874557  0.53149618  1  0  0.078385  0  0.964681  0  0  0.090791  0  1.02956  0  0  0.091238  0  1.0298  0  0  0.10664  0.090374  0  1.029561  0
H  H16  1  0.95549258  0.23025689  0.40215464  1  0  0.066039  0  0.921559  0  0  0.078838  0  0.98743  0  0  0.079527  0  0.986755  0  0  0.107043  0.078233  0  0.988109  0
H  H17  1  0.54450717  0.76974024  0.90215318  1  0  0.066054  0  0.921519  0  0  0.078832  0  0.987422  0  0  0.079523  0  0.986746  0  0  0.107035  0.078228  0  0.988102  0
H  H18  1  0.04450746  0.73025913  0.09784679  1  0  0.066014  0  0.921578  0  0  0.078806  0  0.987461  0  0  0.079496  0  0.986784  0  0  0.107031  0.078202  0  0.98814  0
H  H19  1  0.45549321  0.26974086  0.59784711  1  0  0.066028  0  0.921581  0  0  0.078821  0  0.987461  0  0  0.079511  0  0.986785  0  0  0.107033  0.078218  0  0.98814  0
H  H20  1  0.63867339  0.30892814  0.36164171  1  0  0.061232  0  0.939946  0  0  0.071674  0  1.011465  0  0  0.072349  0  1.010851  0  0  0.099877  0.071068  0  1.012071  0
H  H21  1  0.86132492  0.69107290  0.86163945  1  0  0.061241  0  0.939954  0  0  0.071649  0  1.011498  0  0  0.072321  0  1.010887  0  0  0.099872  0.071044  0  1.012103  0
H  H22  1  0.36132799  0.80892755  0.13835885  1  0  0.061238  0  0.939948  0  0  0.07168  0  1.011457  0  0  0.072356  0  1.010842  0  0  0.099876  0.071074  0  1.012062  0
H  H23  1  0.13867411  0.19107246  0.63835994  1  0  0.061239  0  0.939972  0  0  0.071657  0  1.011509  0  0  0.07233  0  1.010899  0  0  0.099867  0.071052  0  1.012115  0
H  H24  1  0.45396009  0.15529277  0.39711407  1  0  0.082673  0  0.924199  0  0  0.09767  0  0.982921  0  0  0.098175  0  0.982745  0  0  0.112132  0.09719  0  0.983201  0
H  H25  1  0.04603939  0.84470735  0.89711527  1  0  0.082672  0  0.924207  0  0  0.097669  0  0.982923  0  0  0.098175  0  0.982747  0  0  0.11213  0.09719  0  0.983203  0
H  H26  1  0.54604002  0.65529202  0.10288382  1  0  0.08268  0  0.924182  0  0  0.09766  0  0.982932  0  0  0.098168  0  0.982754  0  0  0.11212  0.09718  0  0.98321  0
H  H27  1  0.95395951  0.34470891  0.60288416  1  0  0.082696  0  0.924208  0  0  0.097685  0  0.982944  0  0  0.098193  0  0.982763  0  0  0.112138  0.097207  0  0.983222  0
H  H28  1  0.56993339  0.94946245  0.24652132  1  0  0.05412  0  0.935472  0  0  0.070398  0  0.999582  0  0  0.070701  0  0.999165  0  0  0.106555  0.070081  0  1.000001  0
H  H29  1  0.93006765  0.05053985  0.74652246  1  0  0.054102  0  0.935472  0  0  0.070388  0  0.999584  0  0  0.070693  0  0.999166  0  0  0.106547  0.070073  0  1.000003  0
H  H30  1  0.43006928  0.44946315  0.25347664  1  0  0.054103  0  0.935449  0  0  0.070377  0  0.999583  0  0  0.070679  0  0.999167  0  0  0.106566  0.070061  0  1.000002  0
H  H31  1  0.06993291  0.55053821  0.75347778  1  0  0.054096  0  0.935441  0  0  0.07038  0  0.999553  0  0  0.070683  0  0.999137  0  0  0.106547  0.070065  0  0.999973  0
H  H32  1  0.52921005  0.15767651  0.17786324  1  0  0.069949  0  0.948714  0  0  0.077292  0  1.024367  0  0  0.078349  0  1.02293  0  0  0.110871  0.076411  0  1.025556  0
H  H33  1  0.97079235  0.84232708  0.67786456  1  0  0.069976  0  0.948674  0  0  0.077309  0  1.024338  0  0  0.078368  0  1.022901  0  0  0.110883  0.07643  0  1.025529  0
H  H34  1  0.47079287  0.65767460  0.32213553  1  0  0.069946  0  0.948665  0  0  0.077278  0  1.024337  0  0  0.078335  0  1.0229  0  0  0.11087  0.076398  0  1.025527  0
H  H35  1  0.02920655  0.34232549  0.82213574  1  0  0.06993  0  0.948674  0  0  0.077258  0  1.024352  0  0  0.078314  0  1.022916  0  0  0.110868  0.076378  0  1.025542  0
C  C36  1  0.93181639  0.00854894  0.28455216  1  0  0.049543  0  3.633103  0  0  -0.010076  0  3.905102  0  0  -0.003681  0  3.90951  0  0  -0.068642  -0.014353  0  3.902172  0
C  C37  1  0.56818187  0.99145076  0.78455252  1  0  0.049474  0  3.633256  0  0  -0.010157  0  3.905203  0  0  -0.003764  0  3.909615  0  0  -0.06863  -0.014418  0  3.902273  0
C  C38  1  0.06818385  0.50854990  0.21544746  1  0  0.049474  0  3.633212  0  0  -0.010121  0  3.905162  0  0  -0.00373  0  3.909574  0  0  -0.068654  -0.014393  0  3.902231  0
C  C39  1  0.43181691  0.49145145  0.71544870  1  0  0.049491  0  3.633271  0  0  -0.010142  0  3.905237  0  0  -0.003752  0  3.90965  0  0  -0.068631  -0.014423  0  3.90232  0
C  C40  1  0.91331347  0.09108693  0.40493202  1  0  0.044212  0  3.626759  0  0  -0.012305  0  3.891069  0  0  -0.006371  0  3.896614  0  0  -0.071077  -0.016344  0  3.887353  0
C  C41  1  0.58668488  0.90891151  0.90493149  1  0  0.044205  0  3.626731  0  0  -0.012294  0  3.891047  0  0  -0.006365  0  3.896602  0  0  -0.07107  -0.016335  0  3.887325  0
C  C42  1  0.08668670  0.59108914  0.09506762  1  0  0.04428  0  3.62674  0  0  -0.012239  0  3.891047  0  0  -0.006303  0  3.896594  0  0  -0.071054  -0.016279  0  3.887326  0
C  C43  1  0.41331538  0.40891215  0.59506971  1  0  0.044232  0  3.626762  0  0  -0.01228  0  3.891071  0  0  -0.006343  0  3.896616  0  0  -0.07107  -0.016318  0  3.887356  0
C  C44  1  0.59844061  0.16928352  0.36364276  1  0  0.041947  0  3.640526  0  0  -0.016944  0  3.912519  0  0  -0.010941  0  3.917811  0  0  -0.07328  -0.020965  0  3.908894  0
C  C45  1  0.90156052  0.83071621  0.86364230  1  0  0.041921  0  3.640528  0  0  -0.016936  0  3.912523  0  0  -0.010932  0  3.917813  0  0  -0.073278  -0.020959  0  3.908901  0
C  C46  1  0.40156089  0.66928421  0.13635689  1  0  0.041887  0  3.640517  0  0  -0.016979  0  3.912483  0  0  -0.010979  0  3.917778  0  0  -0.073272  -0.021  0  3.908858  0
C  C47  1  0.09843839  0.33071579  0.63635712  1  0  0.04186  0  3.640565  0  0  -0.017021  0  3.912572  0  0  -0.011017  0  3.917864  0  0  -0.07329  -0.021044  0  3.908952  0
C  C48  1  0.61569675  0.08765290  0.24284792  1  0  0.054931  0  3.638934  0  0  -0.002929  0  3.906743  0  0  0.003702  0  3.911413  0  0  -0.067011  -0.007404  0  3.903589  0
C  C49  1  0.88430289  0.91234678  0.74284747  1  0  0.05495  0  3.638902  0  0  -0.00292  0  3.906739  0  0  0.003709  0  3.911409  0  0  -0.067007  -0.007396  0  3.90359  0
C  C50  1  0.38430342  0.58765496  0.25715260  1  0  0.055035  0  3.638816  0  0  -0.002839  0  3.906669  0  0  0.003792  0  3.911341  0  0  -0.066997  -0.007316  0  3.90352  0
C  C51  1  0.11569596  0.41234510  0.75715285  1  0  0.05505  0  3.638799  0  0  -0.002809  0  3.906627  0  0  0.003822  0  3.911298  0  0  -0.066978  -0.007285  0  3.90348  0
Cl  Cl52  1  0.69046318  0.36902584  0.97403695  1  0  -0.771095  0  0.643626  0  0  -0.723308  0  0.861072  0  0  -0.733005  0  0.841267  0  0  -0.369038  -0.716149  0  0.874992  0
Cl  Cl53  1  0.80953663  0.63097394  0.47403757  1  0  -0.771105  0  0.643625  0  0  -0.723306  0  0.861065  0  0  -0.733002  0  0.841262  0  0  -0.369032  -0.716148  0  0.874987  0
Cl  Cl54  1  0.30953570  0.86902523  0.52596336  1  0  -0.771096  0  0.643616  0  0  -0.723309  0  0.861068  0  0  -0.733005  0  0.841264  0  0  -0.369035  -0.716149  0  0.874991  0
Cl  Cl55  1  0.19046350  0.13097472  0.02596384  1  0  -0.771089  0  0.643618  0  0  -0.723308  0  0.861071  0  0  -0.733004  0  0.841267  0  0  -0.369038  -0.716148  0  0.874995  0
O  O56  1  0.80775402  0.09468888  0.20175567  1  0  -0.39527  0  2.29224  0  0  -0.323203  0  2.546138  0  0  -0.3388  0  2.545974  0  0  -0.298235  -0.312253  0  2.545963  0
O  O57  1  0.69224558  0.90531210  0.70175516  1  0  -0.395284  0  2.292288  0  0  -0.323225  0  2.546197  0  0  -0.338822  0  2.546035  0  0  -0.298238  -0.312275  0  2.546018  0
O  O58  1  0.19224755  0.59468979  0.29824397  1  0  -0.395257  0  2.29229  0  0  -0.323193  0  2.546184  0  0  -0.338785  0  2.546023  0  0  -0.298209  -0.312243  0  2.546009  0
O  O59  1  0.30775045  0.40531160  0.79824428  1  0  -0.395266  0  2.292304  0  0  -0.323202  0  2.546206  0  0  -0.338796  0  2.546044  0  0  -0.298243  -0.312248  0  2.546034  0
O  O60  1  0.72049740  0.08058800  0.44599086  1  0  -0.390034  0  2.269239  0  0  -0.319927  0  2.523708  0  0  -0.335043  0  2.522922  0  0  -0.290934  -0.309295  0  2.524008  0
O  O61  1  0.77950238  0.91941046  0.94599126  1  0  -0.390046  0  2.269147  0  0  -0.319935  0  2.523596  0  0  -0.335049  0  2.52281  0  0  -0.290963  -0.309302  0  2.523895  0
O  O62  1  0.27950277  0.58058874  0.05400878  1  0  -0.390051  0  2.269195  0  0  -0.319953  0  2.523665  0  0  -0.335067  0  2.522879  0  0  -0.290967  -0.309321  0  2.523964  0
O  O63  1  0.22049787  0.41941254  0.55400994  1  0  -0.390029  0  2.269119  0  0  -0.319915  0  2.523581  0  0  -0.33503  0  2.522794  0  0  -0.290943  -0.309282  0  2.523881  0
