# generated using pymatgen
data_MnH8C16N2(O2F3)2
_symmetry_space_group_name_H-M   'P 1'
_cell_length_a   7.42276621
_cell_length_b   11.26127082
_cell_length_c   11.26132296
_cell_angle_alpha   61.71952141
_cell_angle_beta   81.35143140
_cell_angle_gamma   81.35178058
_symmetry_Int_Tables_number   1
_chemical_formula_structural   MnH8C16N2(O2F3)2
_chemical_formula_sum   'Mn2 H16 C32 N4 O8 F12'
_cell_volume   816.15565922
_cell_formula_units_Z   2
loop_
 _symmetry_equiv_pos_site_id
 _symmetry_equiv_pos_as_xyz
  1  'x, y, z'
loop_
 _atom_site_type_symbol
 _atom_site_label
 _atom_site_symmetry_multiplicity
 _atom_site_fract_x
 _atom_site_fract_y
 _atom_site_fract_z
 _atom_site_occupancy
 _atom_site_hle17_ddec_charge
 _atom_site_hle17_ddec_spin_density
 _atom_site_hle17_ddec_sum_bond_order
 _atom_site_hle17_magmom
 _atom_site_hse06_10hf_ddec_charge
 _atom_site_hse06_10hf_ddec_spin_density
 _atom_site_hse06_10hf_ddec_sum_bond_order
 _atom_site_hse06_10hf_magmom
 _atom_site_hse06_ddec_charge
 _atom_site_hse06_ddec_spin_density
 _atom_site_hse06_ddec_sum_bond_order
 _atom_site_hse06_magmom
 _atom_site_pbe_cm5_charge
 _atom_site_pbe_ddec_charge
 _atom_site_pbe_ddec_spin_density
 _atom_site_pbe_ddec_sum_bond_order
 _atom_site_pbe_magmom
Mn  Mn0  1  0.24999771  0.12957276  0.87042698  1  1.154961  -4.789991  1.810905  -4.674  0.99129  -4.706082  2.321489  -4.525  1.044878  -4.753715  2.253545  -4.592  0.619447  0.949867  -4.656009  2.372582  -4.457
Mn  Mn1  1  0.75000133  0.87042683  0.12957268  1  1.154932  -4.789967  1.810996  -4.674  0.991295  -4.706044  2.321539  -4.525  1.044876  -4.753687  2.2536  -4.592  0.619414  0.949882  -4.655951  2.372628  -4.457
H  H2  1  0.99552926  0.34475169  0.95195626  1  0.085114  2.5e-05  0.940484  0.0  0.09143  -0.000329  1.006977  -0.001  0.09381  -0.00016  1.00444  0.0  0.115423  0.08948  -0.000494  1.009317  -0.001
H  H3  1  0.50447732  0.04805138  0.65524619  1  0.085055  2e-05  0.940491  0.0  0.091353  -0.000329  1.007002  -0.001  0.093732  -0.000161  1.00447  0.0  0.115399  0.089407  -0.000494  1.009338  -0.001
H  H4  1  0.00446407  0.65524992  0.04804303  1  0.085116  3.1e-05  0.940467  0.0  0.091439  -0.000329  1.006955  -0.001  0.093819  -0.00016  1.004419  0.0  0.115433  0.089494  -0.000494  1.009301  -0.001
H  H5  1  0.49552654  0.95195330  0.34475233  1  0.085117  2.8e-05  0.94052  0.0  0.091419  -0.000329  1.007026  -0.001  0.093798  -0.000161  1.004491  0.0  0.115424  0.089472  -0.000494  1.009369  -0.001
H  H6  1  0.87839499  0.59080983  0.83695499  1  0.110954  -0.000251  0.949113  0.0  0.117799  -0.000285  1.011783  0.0  0.121261  -0.000223  1.010126  0.0  0.103277  0.115092  -0.000349  1.013607  0.0
H  H7  1  0.62160785  0.16305420  0.40918703  1  0.111052  -0.000245  0.949034  0.0  0.1179  -0.000285  1.011701  0.0  0.121364  -0.000223  1.010038  0.0  0.103326  0.115195  -0.000349  1.013522  0.0
H  H8  1  0.12160246  0.40919179  0.16304653  1  0.110996  -0.000251  0.949125  0.0  0.117839  -0.000285  1.011794  0.0  0.121302  -0.000222  1.010135  0.0  0.103301  0.115133  -0.000349  1.013613  0.0
H  H9  1  0.37839725  0.83695149  0.59081176  1  0.110995  -0.000247  0.949101  0.0  0.117838  -0.000285  1.011778  0.0  0.1213  -0.000223  1.010118  0.0  0.103293  0.115131  -0.000349  1.013596  0.0
H  H10  1  0.96963255  0.72953124  0.58965457  1  0.105882  0.000167  0.935333  0.0  0.11458  5.3e-05  0.999127  0.0  0.117724  6.1e-05  0.996322  0.0  0.105028  0.112243  2.8e-05  1.001296  0.0
H  H11  1  0.53036132  0.41035255  0.27046845  1  0.105856  0.000156  0.935356  0.0  0.114554  5.3e-05  0.999127  0.0  0.117698  6.2e-05  0.99632  0.0  0.104991  0.112219  2.8e-05  1.001291  0.0
H  H12  1  0.03036587  0.27047342  0.41034628  1  0.105883  0.000165  0.935365  0.0  0.114588  5.3e-05  0.999156  0.0  0.117732  6.2e-05  0.996349  0.0  0.10502  0.112249  2.8e-05  1.001318  0.0
H  H13  1  0.46963845  0.58965211  0.72953049  1  0.105869  0.000162  0.93535  0.0  0.114564  5.3e-05  0.999163  0.0  0.117706  6.2e-05  0.996356  0.0  0.105012  0.112228  2.8e-05  1.001321  0.0
H  H14  1  0.14449461  0.73904440  0.37391244  1  0.106683  0.00023  0.953268  0.0  0.11762  0.000235  1.014565  0.0  0.120109  0.000274  1.013913  0.0  0.103937  0.115696  0.000176  1.015362  0.0
H  H15  1  0.35549115  0.62609651  0.26095954  1  0.106709  0.000232  0.953218  0.0  0.117686  0.000235  1.014458  0.0  0.120176  0.000274  1.013806  0.0  0.103972  0.115761  0.000176  1.015253  0.0
H  H16  1  0.85549727  0.26095822  0.62609007  1  0.106679  0.000233  0.953273  0.0  0.117605  0.000235  1.014576  0.0  0.120093  0.000274  1.013924  0.0  0.103926  0.115681  0.000176  1.015366  0.0
H  H17  1  0.64450306  0.37390916  0.73904216  1  0.106679  0.00023  0.953257  0.0  0.117603  0.000235  1.014568  0.0  0.12009  0.000273  1.013919  0.0  0.103928  0.115677  0.000177  1.015355  0.0
C  C18  1  0.00438406  0.04431569  0.28663593  1  0.663526  -0.001738  3.645928  -0.002  0.59062  -0.002562  3.994554  -0.002  0.617914  -0.001719  3.966785  -0.002  0.29612  0.570847  -0.003554  4.015198  -0.003
C  C19  1  0.49561254  0.71336672  0.95568001  1  0.663389  -0.001751  3.646212  -0.002  0.59046  -0.002562  3.994851  -0.002  0.617752  -0.001721  3.967087  -0.002  0.296175  0.57068  -0.003554  4.015503  -0.003
C  C20  1  0.99563274  0.95567282  0.71336539  1  0.664145  -0.001738  3.645126  -0.002  0.591178  -0.002562  3.993885  -0.002  0.61849  -0.00172  3.966078  -0.002  0.29624  0.571375  -0.003553  4.014555  -0.003
C  C21  1  0.50437352  0.28662776  0.04432253  1  0.663728  -0.00174  3.645792  -0.002  0.590749  -0.002564  3.994535  -0.002  0.618073  -0.001719  3.966698  -0.002  0.296195  0.570956  -0.003553  4.015199  -0.003
C  C22  1  0.05778258  0.01880249  0.16061023  1  0.536384  -0.014552  3.963841  -0.014  0.483294  -0.022815  4.261875  -0.02  0.515955  -0.017101  4.254463  -0.016  0.220262  0.460194  -0.028905  4.266568  -0.025
C  C23  1  0.44221342  0.83939119  0.98119432  1  0.536314  -0.014552  3.963922  -0.014  0.483315  -0.022816  4.261776  -0.02  0.515977  -0.0171  4.254364  -0.016  0.220279  0.460224  -0.028905  4.266458  -0.025
C  C24  1  0.94222367  0.98120421  0.83937909  1  0.536253  -0.01454  3.96352  -0.014  0.483161  -0.022812  4.261606  -0.02  0.515814  -0.017096  4.254199  -0.016  0.22025  0.460068  -0.028897  4.266287  -0.025
C  C25  1  0.55778012  0.16060838  0.01880059  1  0.536239  -0.014547  3.963784  -0.014  0.483161  -0.022811  4.261815  -0.02  0.515813  -0.017097  4.254405  -0.016  0.220211  0.460071  -0.028896  4.266492  -0.025
C  C26  1  0.03156819  0.40852030  0.84450968  1  0.153318  -0.003055  3.684991  -0.003  0.119715  -0.005527  3.942444  -0.005  0.127872  -0.004621  3.959612  -0.004  0.060357  0.114245  -0.006456  3.930987  -0.005
C  C27  1  0.46843163  0.15549751  0.59147723  1  0.153341  -0.002974  3.685102  -0.003  0.119798  -0.005527  3.94252  -0.005  0.127952  -0.004622  3.959695  -0.004  0.060365  0.114327  -0.006455  3.931071  -0.005
C  C28  1  0.96842774  0.59148233  0.15548885  1  0.153323  -0.003094  3.685044  -0.003  0.119715  -0.005528  3.942502  -0.005  0.127873  -0.004622  3.959672  -0.004  0.060343  0.114236  -0.006457  3.931068  -0.005
C  C29  1  0.53156925  0.84450919  0.40852152  1  0.15326  -0.003029  3.68516  -0.003  0.119695  -0.005528  3.942578  -0.005  0.127852  -0.00462  3.95975  -0.004  0.060309  0.114223  -0.006457  3.93114  -0.005
C  C30  1  0.96723558  0.54621530  0.77958345  1  -0.114695  0.001227  3.72036  0.0  -0.129535  0.000774  3.979302  0.0  -0.136894  0.001326  4.000934  0.001  -0.085132  -0.124761  0.000229  3.965213  0.0
C  C31  1  0.53276559  0.22042261  0.45378370  1  -0.114847  0.001092  3.720264  0.0  -0.129735  0.000775  3.979203  0.0  -0.137097  0.00133  4.000833  0.001  -0.085223  -0.12496  0.000228  3.965118  0.0
C  C32  1  0.03276431  0.45378835  0.22041508  1  -0.114701  0.00126  3.720347  0.001  -0.129538  0.000775  3.979292  0.0  -0.1369  0.001329  4.000929  0.001  -0.085133  -0.124762  0.000229  3.965201  0.0
C  C33  1  0.46723690  0.77958207  0.54621496  1  -0.114694  0.001154  3.720475  0.0  -0.129544  0.000772  3.979397  0.0  -0.136906  0.001328  4.001032  0.001  -0.08512  -0.12477  0.000229  3.965309  0.0
C  C34  1  0.01749651  0.62255718  0.64305525  1  -0.037696  -0.002729  3.678035  -0.002  -0.065964  -0.00429  3.933142  -0.003  -0.063342  -0.003735  3.951761  -0.003  -0.062842  -0.067562  -0.00486  3.920499  -0.004
C  C35  1  0.48250101  0.35695153  0.37744238  1  -0.037507  -0.00263  3.677906  -0.002  -0.065733  -0.00429  3.932912  -0.003  -0.063107  -0.003737  3.95153  -0.003  -0.062686  -0.067336  -0.00486  3.920272  -0.004
C  C36  1  0.98250353  0.37744546  0.35694640  1  -0.037689  -0.00275  3.677999  -0.002  -0.065963  -0.004291  3.933093  -0.003  -0.06334  -0.003738  3.951714  -0.003  -0.062781  -0.067554  -0.004862  3.920438  -0.004
C  C37  1  0.51750012  0.64305314  0.62255731  1  -0.037636  -0.002678  3.678094  -0.002  -0.065925  -0.004289  3.933197  -0.003  -0.063299  -0.003737  3.951816  -0.003  -0.062796  -0.067517  -0.004861  3.920541  -0.004
C  C38  1  0.13252975  0.56112240  0.57184152  1  0.018007  0.000815  3.804512  0.0  0.034493  0.000376  4.037383  0.0  0.031649  0.000781  4.062441  0.0  -0.001883  0.036351  3e-05  4.020498  0.0
C  C39  1  0.36746205  0.42816379  0.43887622  1  0.01792  0.000716  3.804471  0.0  0.034454  0.000376  4.037258  0.0  0.031609  0.000781  4.062317  0.0  -0.001879  0.036313  3e-05  4.020372  0.0
C  C40  1  0.86746769  0.43887922  0.42815911  1  0.017933  0.000831  3.80452  0.0  0.034464  0.000374  4.037389  0.0  0.031618  0.000784  4.062451  0.0  -0.001903  0.036318  3e-05  4.020506  0.0
C  C41  1  0.63253511  0.57183985  0.56112259  1  0.017838  0.000755  3.804516  0.0  0.034385  0.000374  4.037315  0.0  0.03154  0.000779  4.062374  0.0  -0.001905  0.036245  3e-05  4.020429  0.0
C  C42  1  0.19112239  0.42159913  0.64614349  1  0.130874  -0.001568  3.754082  -0.002  0.125145  -0.003575  3.989079  -0.003  0.129605  -0.002916  4.010548  -0.003  0.122674  0.12217  -0.004441  3.974354  -0.004
C  C43  1  0.30887659  0.35385826  0.57840285  1  0.130967  -0.001493  3.753929  -0.002  0.125202  -0.003575  3.988939  -0.003  0.129661  -0.002914  4.010408  -0.003  0.122654  0.122231  -0.00444  3.974218  -0.004
C  C44  1  0.80887642  0.57840250  0.35385788  1  0.131054  -0.00157  3.753859  -0.002  0.125238  -0.003574  3.988945  -0.003  0.129697  -0.002918  4.010418  -0.003  0.122681  0.122268  -0.004441  3.974229  -0.004
C  C45  1  0.69112507  0.64614236  0.42159871  1  0.130918  -0.001516  3.754011  -0.002  0.125208  -0.003575  3.988981  -0.003  0.129667  -0.002912  4.010454  -0.003  0.122665  0.12223  -0.004441  3.974272  -0.004
C  C46  1  0.19262079  0.63261770  0.43084659  1  -0.089464  0.000297  3.718673  0.0  -0.113786  0.000415  3.976105  0.0  -0.11715  0.000505  4.000036  0.0  -0.083572  -0.11146  0.000345  3.960135  0.0
C  C47  1  0.30736664  0.56915747  0.36738649  1  -0.089559  0.000425  3.718667  0.0  -0.113929  0.000415  3.976062  0.0  -0.117293  0.000504  3.999986  0.0  -0.083653  -0.111597  0.000345  3.960088  0.0
C  C48  1  0.80737652  0.36738493  0.56915446  1  -0.089464  0.000305  3.71858  0.0  -0.113776  0.000415  3.975994  0.0  -0.117142  0.000502  3.999927  0.0  -0.083573  -0.111443  0.000345  3.960006  0.0
C  C49  1  0.69262784  0.43084617  0.63261703  1  -0.089425  0.00042  3.718494  0.0  -0.113756  0.000414  3.9759  0.0  -0.11712  0.000506  3.999831  0.0  -0.083576  -0.111422  0.000345  3.959907  0.0
N  N50  1  0.14018381  0.34794004  0.77994262  1  -0.353673  -0.028295  3.244916  -0.017  -0.288219  -0.031751  3.515946  -0.017  -0.307262  -0.028041  3.531402  -0.014  -0.312055  -0.27428  -0.035377  3.504995  -0.02
N  N51  1  0.35981678  0.22005980  0.65206039  1  -0.35372  -0.028363  3.244945  -0.018  -0.288307  -0.031752  3.516022  -0.017  -0.307345  -0.028042  3.531468  -0.014  -0.312087  -0.274371  -0.035378  3.505075  -0.02
N  N52  1  0.85981361  0.65206157  0.22005713  1  -0.353776  -0.028277  3.244859  -0.017  -0.288341  -0.031753  3.516006  -0.017  -0.30737  -0.028042  3.531427  -0.014  -0.312122  -0.274403  -0.035377  3.50506  -0.02
N  N53  1  0.64018474  0.77994184  0.34793981  1  -0.353706  -0.028328  3.244907  -0.017  -0.288295  -0.031753  3.515977  -0.017  -0.307322  -0.028044  3.531396  -0.014  -0.312064  -0.274362  -0.035378  3.505039  -0.02
O  O54  1  0.15030344  0.10905255  0.06677761  1  -0.578345  -0.033673  2.094058  -0.021  -0.53087  -0.04391  2.363334  -0.028  -0.559045  -0.038881  2.350449  -0.023  -0.297456  -0.510051  -0.049024  2.371818  -0.033
O  O55  1  0.34969379  0.93322258  0.89095119  1  -0.578287  -0.033668  2.094093  -0.021  -0.530883  -0.043911  2.363413  -0.028  -0.559058  -0.038881  2.350529  -0.023  -0.297472  -0.510071  -0.049023  2.371899  -0.033
O  O56  1  0.84969508  0.89095109  0.93321928  1  -0.578421  -0.033674  2.093629  -0.021  -0.530938  -0.043908  2.362921  -0.028  -0.559117  -0.038879  2.350048  -0.023  -0.297488  -0.51012  -0.049024  2.3714  -0.033
O  O57  1  0.65030976  0.06677400  0.10905298  1  -0.578265  -0.033669  2.093772  -0.021  -0.530851  -0.043906  2.363163  -0.028  -0.559032  -0.038878  2.350287  -0.023  -0.297437  -0.510035  -0.049021  2.371645  -0.033
O  O58  1  0.99107872  0.08590989  0.83355397  1  -0.570409  -0.021866  2.086451  -0.009  -0.528009  -0.032637  2.353262  -0.016  -0.55307  -0.028202  2.339899  -0.013  -0.292854  -0.509343  -0.037398  2.362229  -0.02
O  O59  1  0.50892691  0.16643096  0.91409498  1  -0.570453  -0.021868  2.086263  -0.009  -0.528033  -0.032638  2.353044  -0.016  -0.553095  -0.028201  2.339684  -0.013  -0.292896  -0.509364  -0.037396  2.361997  -0.02
O  O60  1  0.00891954  0.91409474  0.16643004  1  -0.570528  -0.021864  2.086162  -0.009  -0.528117  -0.03264  2.352989  -0.016  -0.553192  -0.028202  2.339636  -0.013  -0.292905  -0.509425  -0.037397  2.361899  -0.02
O  O61  1  0.49108479  0.83356564  0.08590657  1  -0.570484  -0.021864  2.086103  -0.009  -0.528124  -0.032641  2.352898  -0.016  -0.553202  -0.028203  2.339547  -0.013  -0.292918  -0.50943  -0.037399  2.3618  -0.02
F  F62  1  0.92074518  0.17144014  0.25156199  1  -0.247636  -0.000105  1.182165  0.0  -0.207087  -0.000587  1.348716  -0.001  -0.216494  -0.000307  1.332993  -0.001  -0.098038  -0.200244  -0.000898  1.359954  -0.001
F  F63  1  0.57925375  0.74844395  0.82855606  1  -0.247592  -0.000104  1.182216  0.0  -0.207039  -0.000587  1.348776  -0.001  -0.216445  -0.000308  1.333055  -0.001  -0.098058  -0.200196  -0.000898  1.360015  -0.001
F  F64  1  0.07928121  0.82854944  0.74845737  1  -0.247801  -0.000107  1.182147  0.0  -0.207162  -0.000588  1.348681  -0.001  -0.216574  -0.000308  1.332951  -0.001  -0.098044  -0.200309  -0.000898  1.359923  -0.001
F  F65  1  0.42073567  0.25154548  0.17144765  1  -0.247722  -0.000105  1.18214  0.0  -0.207074  -0.000587  1.348657  -0.001  -0.216489  -0.000308  1.33292  -0.001  -0.098064  -0.200226  -0.000898  1.359899  -0.001
F  F66  1  0.88962307  0.95544920  0.38280765  1  -0.239872  -3.8e-05  1.198281  0.0  -0.210002  -0.000215  1.378854  -0.001  -0.219352  -6e-05  1.363184  -0.001  -0.096158  -0.203242  -0.000446  1.390032  -0.001
F  F67  1  0.61037311  0.61719145  0.04454352  1  -0.239807  -3.6e-05  1.198353  0.0  -0.209946  -0.000213  1.378941  -0.001  -0.219294  -6.2e-05  1.363272  -0.001  -0.096176  -0.203183  -0.000446  1.390118  -0.001
F  F68  1  0.11038721  0.04453623  0.61718604  1  -0.240042  -3.8e-05  1.198122  0.0  -0.210164  -0.000213  1.378735  -0.001  -0.219518  -6.1e-05  1.363055  -0.001  -0.096185  -0.203395  -0.000446  1.389921  -0.001
F  F69  1  0.38961211  0.38279899  0.95546102  1  -0.239881  -3.7e-05  1.198311  0.0  -0.21002  -0.000214  1.378925  -0.001  -0.219378  -6.3e-05  1.363241  -0.001  -0.096152  -0.203255  -0.000446  1.390104  -0.001
F  F70  1  0.15686346  0.03240830  0.34796964  1  -0.256286  4.9e-05  1.16433  0.0  -0.216701  -0.000335  1.327934  0.0  -0.225555  -0.000131  1.311262  0.0  -0.106711  -0.210166  -0.00062  1.339669  -0.001
F  F71  1  0.34313230  0.65203499  0.96758699  1  -0.256272  5.3e-05  1.164385  0.0  -0.216686  -0.000335  1.328003  0.0  -0.225538  -0.00013  1.311332  0.0  -0.10674  -0.210154  -0.00062  1.339742  -0.001
F  F72  1  0.84315868  0.96757009  0.65203150  1  -0.256502  5.1e-05  1.164119  0.0  -0.21697  -0.000336  1.32781  0.0  -0.225826  -0.000131  1.311127  0.0  -0.106821  -0.210425  -0.00062  1.339551  -0.001
F  F73  1  0.65684891  0.34796557  0.03241582  1  -0.256406  5e-05  1.164316  0.0  -0.216826  -0.000333  1.327964  0.0  -0.225686  -0.000129  1.311276  0.0  -0.106776  -0.210288  -0.00062  1.339706  -0.001
