# generated using pymatgen
data_ZnH9C15NO8F
_symmetry_space_group_name_H-M   'P 1'
_cell_length_a   11.18088053
_cell_length_b   14.07443505
_cell_length_c   15.28580262
_cell_angle_alpha   89.99916089
_cell_angle_beta   86.14638071
_cell_angle_gamma   90.00466413
_symmetry_Int_Tables_number   1
_chemical_formula_structural   ZnH9C15NO8F
_chemical_formula_sum   'Zn2 H18 C30 N2 O16 F2'
_cell_volume   2400.00516742
_cell_formula_units_Z   2
loop_
 _symmetry_equiv_pos_site_id
 _symmetry_equiv_pos_as_xyz
  1  'x, y, z'
loop_
 _atom_site_type_symbol
 _atom_site_label
 _atom_site_symmetry_multiplicity
 _atom_site_fract_x
 _atom_site_fract_y
 _atom_site_fract_z
 _atom_site_occupancy
 _atom_site_pbe_bader_charge
 _atom_site_pbe_bader_spin_density
 _atom_site_pbe_cm5_charge
 _atom_site_pbe_ddec_charge
 _atom_site_pbe_ddec_spin_density
 _atom_site_pbe_ddec_sum_bond_order
 _atom_site_pbe_magmom
Zn  Zn0  1  0.49999959  0.40207631  0.49999096  1  1.315525  0  0.67333  0.870534  0  2.345306  0
Zn  Zn1  1  0.50001401  0.60021357  0.49999589  1  1.298324  0  0.674649  0.826085  0  2.392962  0
H  H2  1  0.88876974  0.63169904  0.51543896  1  0.087117  0  0.100626  0.11251  0  1.008389  0
H  H3  1  0.11128603  0.63169332  0.48453540  1  0.087116  0  0.100684  0.112468  0  1.008243  0
H  H4  1  0.32759581  0.43394188  0.06342885  1  0.027164  0  0.096804  0.112822  0  1.023255  0
H  H5  1  0.33334985  0.58198586  0.94535848  1  0.06321  0  0.103674  0.129927  0  0.994706  0
H  H6  1  0.66665285  0.58204905  0.05464591  1  0.06351  0  0.103648  0.129973  0  0.994856  0
H  H7  1  0.67248391  0.43402289  0.93655469  1  0.026878  0  0.096904  0.112887  0  1.023385  0
H  H8  1  0.53256565  0.92910654  0.35888699  1  0.097181  0  0.120075  0.13078  0  0.975447  0
H  H9  1  0.46738351  0.92909690  0.64111092  1  0.097355  0  0.119947  0.130524  0  0.975452  0
H  H10  1  0.53127399  0.75116961  0.36503388  1  0.141966  0  0.131126  0.107363  0  0.979533  0
H  H11  1  0.46873049  0.75116449  0.63496633  1  0.141942  0  0.13119  0.107454  0  0.979568  0
H  H12  1  0.83075421  0.37062811  0.44084443  1  0.62692  0  0.310287  0.342945  0  0.938187  0
H  H13  1  0.16923372  0.37063245  0.55916564  1  0.627101  0  0.31033  0.342977  0  0.938397  0
H  H14  1  0.24413574  0.40434627  0.19833741  1  0.596275  0  0.337465  0.362285  0  0.874182  0
H  H15  1  0.35218550  0.60106678  0.71456006  1  0.632361  0  0.304181  0.352923  0  0.962736  0
H  H16  1  0.64780736  0.60113093  0.28543777  1  0.632912  0  0.304172  0.353272  0  0.962723  0
H  H17  1  0.75592235  0.40443602  0.80163065  1  0.596188  0  0.337485  0.362413  0  0.874094  0
H  H18  1  0.69094578  0.10215103  0.63913516  1  0.626918  0  0.348151  0.37908  0  0.857403  0
H  H19  1  0.30900394  0.10214943  0.36084785  1  0.626426  0  0.348188  0.379186  0  0.857397  0
C  C20  1  0.49578304  0.50090285  0.33010595  1  1.566956  0  0.217861  0.638229  0  4.128864  0
C  C21  1  0.50422070  0.50088541  0.66988113  1  1.567415  0  0.217855  0.638173  0  4.128909  0
C  C22  1  0.49848871  0.50620302  0.04853682  1  -0.049936  0  -0.005016  0.131168  0  4.048973  0
C  C23  1  0.50154643  0.50621870  0.95145208  1  0.046893  0  -0.005133  0.130584  0  4.049465  0
C  C24  1  0.51787405  0.89273071  0.42153528  1  0.029817  0  -0.070422  -0.16263  0  3.918949  0
C  C25  1  0.48208412  0.89272167  0.57845700  1  0.028363  0  -0.0703  -0.162333  0  3.919915  0
C  C26  1  0.51755555  0.79405673  0.42428294  1  0.440423  0  0.065377  0.10882  0  3.907023  0
C  C27  1  0.48242906  0.79405772  0.57572963  1  0.440057  0  0.065306  0.108778  0  3.906331  0
C  C28  1  0.49996511  0.94383801  0.50000531  1  0.080946  0  0.019427  0.148478  0  3.957959  0
C  C29  1  0.57320309  0.10073847  0.55422268  1  0.514198  0  0.080953  0.114423  0  4.144929  0
C  C30  1  0.42672847  0.10073560  0.44578369  1  0.515162  0  0.08094  0.114362  0  4.145429  0
C  C31  1  0.57053582  0.19987058  0.54980738  1  1.145687  0  0.218166  0.295806  0  4.109534  0
C  C32  1  0.42941235  0.19986650  0.45019536  1  1.145515  0  0.218044  0.295863  0  4.109928  0
C  C33  1  0.49994620  0.04886212  0.50000300  1  0.059813  0  -0.000935  -0.072926  0  3.956293  0
C  C34  1  0.26945536  0.49795222  0.51133309  1  1.501089  0  0.204229  0.532443  0  4.209387  0
C  C35  1  0.73056304  0.49796581  0.48864518  1  1.501445  0  0.204363  0.532668  0  4.209042  0
C  C36  1  0.93592584  0.56520959  0.50061390  1  -0.017525  0  -0.111867  -0.166636  0  4.035656  0
C  C37  1  0.06411245  0.56519555  0.49938398  1  0.08249  0  -0.111807  -0.166611  0  4.036285  0
C  C38  1  0.86369780  0.49136835  0.48065175  1  0.51041  0  0.063095  0.142449  0  4.047298  0
C  C39  1  0.13631182  0.49136123  0.51933728  1  0.510135  0  0.063084  0.142608  0  4.048053  0
C  C40  1  0.40085132  0.46549574  0.09731275  1  0.015283  0  -0.135035  -0.342289  0  4.035101  0
C  C41  1  0.40809047  0.54753422  0.90858192  1  0.072861  0  -0.123311  -0.297716  0  3.969316  0
C  C42  1  0.39915771  0.46228761  0.18871971  1  0.442489  0  0.082727  0.33197  0  4.100269  0
C  C43  1  0.41353587  0.55033047  0.81693864  1  0.412333  0  0.084347  0.331491  0  4.094877  0
C  C44  1  0.49232360  0.50407308  0.23335443  1  0.051446  0  -0.052313  -0.299856  0  3.935417  0
C  C45  1  0.50769788  0.50405646  0.76663808  1  0.050721  0  -0.05228  -0.29968  0  3.935295  0
C  C46  1  0.58647227  0.55037827  0.18306276  1  0.411223  0  0.084348  0.331794  0  4.094466  0
C  C47  1  0.60088156  0.46232881  0.81126703  1  0.442003  0  0.082858  0.332112  0  4.099955  0
C  C48  1  0.59193594  0.54757216  0.09140992  1  0.07225  0  -0.123317  -0.298128  0  3.968735  0
C  C49  1  0.59921134  0.46553088  0.90267340  1  0.015289  0  -0.135111  -0.34236  0  4.034518  0
N  N50  1  0.50000703  0.74563752  0.50000101  1  -1.228652  0  -0.315543  -0.198785  0  3.521985  0
N  N51  1  0.49999232  0.24903997  0.50000062  1  -1.23926  0  -0.309561  -0.336652  0  3.544087  0
O  O52  1  0.46250850  0.42673781  0.37144367  1  -1.149854  0  -0.30706  -0.524032  0  2.332937  0
O  O53  1  0.53747044  0.42671553  0.62854691  1  -1.149859  0  -0.307085  -0.524159  0  2.33282  0
O  O54  1  0.53858288  0.57572921  0.36649410  1  -1.178762  0  -0.320256  -0.582058  0  2.33205  0
O  O55  1  0.46142334  0.57570626  0.63348869  1  -1.179092  0  -0.320082  -0.581769  0  2.331951  0
O  O56  1  0.32218621  0.42099981  0.53380901  1  -1.166039  0  -0.328262  -0.566767  0  2.350016  0
O  O57  1  0.67780755  0.42101081  0.46616756  1  -1.165721  0  -0.328274  -0.56678  0  2.349618  0
O  O58  1  0.32152183  0.57373173  0.48443575  1  -1.16672  0  -0.317236  -0.530129  0  2.329594  0
O  O59  1  0.67850013  0.57374052  0.51553491  1  -1.167106  0  -0.317326  -0.530327  0  2.329727  0
O  O60  1  0.90511435  0.40662080  0.44887750  1  -1.128926  0  -0.354821  -0.40443  0  2.319066  0
O  O61  1  0.09488996  0.40662063  0.55113108  1  -1.128634  0  -0.354847  -0.404489  0  2.319351  0
O  O62  1  0.30604868  0.42096955  0.23756114  1  -1.105954  0  -0.350432  -0.433112  0  2.267035  0
O  O63  1  0.32550471  0.59743832  0.77802146  1  -1.156923  0  -0.369563  -0.457795  0  2.238366  0
O  O64  1  0.67449718  0.59751364  0.22197228  1  -1.157344  0  -0.369489  -0.45823  0  2.237771  0
O  O65  1  0.69401279  0.42105812  0.76242168  1  -1.105858  0  -0.350595  -0.433312  0  2.266818  0
O  O66  1  0.64633423  0.05476506  0.60776778  1  -1.109351  0  -0.332886  -0.400825  0  2.291559  0
O  O67  1  0.35357916  0.05476713  0.39223372  1  -1.10937  0  -0.333042  -0.401016  0  2.291525  0
F  F68  1  0.64517812  0.24816324  0.59933824  1  -0.612085  0  -0.061422  -0.10746  0  1.385278  0
F  F69  1  0.35481822  0.24816600  0.40064245  1  -0.612137  0  -0.061265  -0.107336  0  1.385859  0
