# generated using pymatgen
data_Gd2H11C11NO16
_symmetry_space_group_name_H-M   'P 1'
_cell_length_a   7.88230269
_cell_length_b   10.81650349
_cell_length_c   12.54700414
_cell_angle_alpha   93.97941477
_cell_angle_beta   105.17611572
_cell_angle_gamma   107.71516564
_symmetry_Int_Tables_number   1
_chemical_formula_structural   Gd2H11C11NO16
_chemical_formula_sum   'Gd4 H22 C22 N2 O32'
_cell_volume   970.46863472
_cell_formula_units_Z   2
loop_
 _symmetry_equiv_pos_site_id
 _symmetry_equiv_pos_as_xyz
  1  'x, y, z'
loop_
 _atom_site_type_symbol
 _atom_site_label
 _atom_site_symmetry_multiplicity
 _atom_site_fract_x
 _atom_site_fract_y
 _atom_site_fract_z
 _atom_site_occupancy
 _atom_site_hle17_bader_spin_density
 _atom_site_hle17_ddec_charge
 _atom_site_hle17_ddec_spin_density
 _atom_site_hle17_ddec_sum_bond_order
 _atom_site_hle17_magmom
 _atom_site_hse06_10hf_bader_spin_density
 _atom_site_hse06_10hf_ddec_charge
 _atom_site_hse06_10hf_ddec_spin_density
 _atom_site_hse06_10hf_ddec_sum_bond_order
 _atom_site_hse06_10hf_magmom
 _atom_site_hse06_bader_spin_density
 _atom_site_hse06_ddec_charge
 _atom_site_hse06_ddec_spin_density
 _atom_site_hse06_ddec_sum_bond_order
 _atom_site_hse06_magmom
 _atom_site_pbe_bader_spin_density
 _atom_site_pbe_cm5_charge
 _atom_site_pbe_ddec_charge
 _atom_site_pbe_ddec_spin_density
 _atom_site_pbe_ddec_sum_bond_order
 _atom_site_pbe_magmom
Gd  Gd0  1  0.27157695  0.17902635  0.39892449  1  0  2.114274  0  1.800501  0  0  2.007672  0  2.157751  0  0  2.059602  0  2.108266  0  0  1.448485  1.968049  0  2.19638  0
Gd  Gd1  1  0.72842146  0.82096987  0.60107441  1  0  2.114357  0  1.80028  0  0  2.007555  0  2.15784  0  0  2.059535  0  2.108279  0  0  1.448487  1.967938  0  2.196457  0
Gd  Gd2  1  0.81726488  0.53605169  0.19002268  1  0  2.180173  0  1.811161  0  0  2.09147  0  2.169113  0  0  2.142204  0  2.115727  0  0  1.471811  2.051566  0  2.212227  0
Gd  Gd3  1  0.18274320  0.46395145  0.80997572  1  0  2.18023  0  1.811254  0  0  2.091424  0  2.16938  0  0  2.14207  0  2.116153  0  0  1.471756  2.051501  0  2.212522  0
H  H4  1  0.39563649  0.14942655  0.98067293  1  0  0.124039  0  0.937145  0  0  0.135535  0  0.991754  0  0  0.139482  0  0.989357  0  0  0.121241  0.132598  0  0.993707  0
H  H5  1  0.60436694  0.85056879  0.01933227  1  0  0.124152  0  0.936977  0  0  0.135558  0  0.991691  0  0  0.139507  0  0.989291  0  0  0.12124  0.132622  0  0.993646  0
H  H6  1  0.22242095  0.90672148  0.91474202  1  0  0.125247  0  0.940346  0  0  0.131927  0  1.000041  0  0  0.13648  0  0.996299  0  0  0.115753  0.128546  0  1.002921  0
H  H7  1  0.77755550  0.09328134  0.08525387  1  0  0.125139  0  0.940548  0  0  0.131879  0  1.000187  0  0  0.136423  0  0.996446  0  0  0.115765  0.128498  0  1.003068  0
H  H8  1  0.06201263  0.77668682  0.03991281  1  0  0.112497  0  0.943958  0  0  0.119715  0  1.007557  0  0  0.122814  0  1.006208  0  0  0.118616  0.117508  0  1.008493  0
H  H9  1  0.93795806  0.22331495  0.96008134  1  0  0.112592  0  0.943811  0  0  0.119847  0  1.007379  0  0  0.122947  0  1.006027  0  0  0.118656  0.117638  0  1.008324  0
H  H10  1  0.90378705  0.10898917  0.43775747  1  0  0.44812  0  0.811803  0  0  0.422883  0  0.878123  0  0  0.432658  0  0.863598  0  0  0.32195  0.415798  0  0.88847  0
H  H11  1  0.09622019  0.89101202  0.56224229  1  0  0.448039  0  0.811896  0  0  0.422794  0  0.878245  0  0  0.43257  0  0.863721  0  0  0.321911  0.415704  0  0.88859  0
H  H12  1  0.01967306  0.12476722  0.56111854  1  0  0.452114  0  0.836572  0  0  0.423171  0  0.895189  0  0  0.434942  0  0.877947  0  0  0.310457  0.414799  0  0.907455  0
H  H13  1  0.98031942  0.87523876  0.43888479  1  0  0.452044  0  0.836681  0  0  0.423127  0  0.895239  0  0  0.434892  0  0.878009  0  0  0.310414  0.414753  0  0.907508  0
H  H14  1  0.60459887  0.42686422  0.53962764  1  0  0.4436  0  0.846024  0  0  0.415212  0  0.904067  0  0  0.426244  0  0.887877  0  0  0.310237  0.407129  0  0.915941  0
H  H15  1  0.39540741  0.57312620  0.46037134  1  0  0.443482  0  0.84622  0  0  0.41509  0  0.90425  0  0  0.426123  0  0.888058  0  0  0.310167  0.407008  0  0.916121  0
H  H16  1  0.63338790  0.30451174  0.58748548  1  0  0.454735  0  0.791045  0  0  0.436155  0  0.845582  0  0  0.444684  0  0.833292  0  0  0.338161  0.430049  0  0.852603  0
H  H17  1  0.36661512  0.69547970  0.41252103  1  0  0.454713  0  0.791067  0  0  0.436148  0  0.845587  0  0  0.444677  0  0.83331  0  0  0.33814  0.430049  0  0.852599  0
H  H18  1  0.42153804  0.52796637  0.67222409  1  0  0.43816  0  0.863319  0  0  0.40735  0  0.926324  0  0  0.419418  0  0.908657  0  0  0.30435  0.398768  0  0.938864  0
H  H19  1  0.57847102  0.47203291  0.32777822  1  0  0.438094  0  0.863381  0  0  0.407274  0  0.926411  0  0  0.419342  0  0.908745  0  0  0.304334  0.398693  0  0.938953  0
H  H20  1  0.25014468  0.41965964  0.58135499  1  0  0.455319  0  0.826692  0  0  0.427006  0  0.884481  0  0  0.436954  0  0.869955  0  0  0.317548  0.419912  0  0.894823  0
H  H21  1  0.74986830  0.58033674  0.41864697  1  0  0.455245  0  0.826819  0  0  0.426934  0  0.884605  0  0  0.436882  0  0.870079  0  0  0.317558  0.419842  0  0.894942  0
H  H22  1  0.41225470  0.35350570  0.98071118  1  0  0.426034  0  0.876182  0  0  0.39662  0  0.939085  0  0  0.406945  0  0.923987  0  0  0.302536  0.389323  0  0.949722  0
H  H23  1  0.58775023  0.64648762  0.01928616  1  0  0.425908  0  0.876364  0  0  0.396469  0  0.939318  0  0  0.406797  0  0.924217  0  0  0.302469  0.389176  0  0.949949  0
H  H24  1  0.53521556  0.40723003  0.90715237  1  0  0.444494  0  0.844257  0  0  0.418062  0  0.899255  0  0  0.429545  0  0.882268  0  0  0.306719  0.409832  0  0.911429  0
H  H25  1  0.46478100  0.59275929  0.09284425  1  0  0.444434  0  0.844345  0  0  0.417988  0  0.899372  0  0  0.429475  0  0.882379  0  0  0.306661  0.409754  0  0.911554  0
C  C26  1  0.32260612  0.14566022  0.13525726  1  0  0.109892  0  3.730582  0  0  0.114371  0  3.977958  0  0  0.113739  0  3.996347  0  0  0.126643  0.114419  0  3.965761  0
C  C27  1  0.67739414  0.85433701  0.86474437  1  0  0.109732  0  3.730724  0  0  0.114298  0  3.978006  0  0  0.113664  0  3.9964  0  0  0.1266  0.114347  0  3.965811  0
C  C28  1  0.32255515  0.08922687  0.03157399  1  0  -0.083251  0  3.642967  0  0  -0.108281  0  3.889524  0  0  -0.111111  0  3.909102  0  0  -0.057681  -0.106337  0  3.876536  0
C  C29  1  0.67744561  0.91077429  0.96842875  1  0  -0.08332  0  3.642515  0  0  -0.108297  0  3.889104  0  0  -0.111127  0  3.908678  0  0  -0.05767  -0.106354  0  3.876121  0
C  C30  1  0.22762940  0.95469087  0.99545044  1  0  -0.000195  0  3.658632  0  0  -0.017104  0  3.914946  0  0  -0.016942  0  3.932995  0  0  -0.05637  -0.017229  0  3.902914  0
C  C31  1  0.77235983  0.04531990  0.00454629  1  0  -7.9e-05  0  3.658547  0  0  -0.017048  0  3.91491  0  0  -0.016876  0  3.932948  0  0  -0.056366  -0.017175  0  3.902885  0
C  C32  1  0.13718337  0.88179467  0.06412074  1  0  -0.078127  0  3.652563  0  0  -0.104172  0  3.903325  0  0  -0.106502  0  3.923269  0  0  -0.05817  -0.102597  0  3.890021  0
C  C33  1  0.86279931  0.11821019  0.93587782  1  0  -0.078156  0  3.652378  0  0  -0.104201  0  3.903208  0  0  -0.106536  0  3.923162  0  0  -0.058186  -0.102637  0  3.889918  0
C  C34  1  0.14538392  0.94601872  0.16689575  1  0  0.100692  0  3.744789  0  0  0.106887  0  3.988285  0  0  0.106039  0  4.007484  0  0  0.127457  0.107253  0  3.975431  0
C  C35  1  0.85459483  0.05398318  0.83310362  1  0  0.100782  0  3.744485  0  0  0.106859  0  3.988139  0  0  0.106006  0  4.007336  0  0  0.127478  0.107255  0  3.975283  0
C  C36  1  0.42352575  0.28796262  0.18527978  1  0  0.684454  0  3.829816  0  0  0.631353  0  4.127046  0  0  0.666755  0  4.11645  0  0  0.248249  0.607317  0  4.133392  0
C  C37  1  0.57648904  0.71203770  0.81472348  1  0  0.684403  0  3.829923  0  0  0.631204  0  4.127267  0  0  0.666604  0  4.116674  0  0  0.248222  0.607164  0  4.133616  0
C  C38  1  0.05773245  0.87737326  0.24928012  1  0  0.705753  0  3.842638  0  0  0.656804  0  4.133544  0  0  0.691992  0  4.122859  0  0  0.251863  0.632596  0  4.140059  0
C  C39  1  0.94225188  0.12262670  0.75071603  1  0  0.705559  0  3.842465  0  0  0.656654  0  4.133345  0  0  0.691861  0  4.122636  0  0  0.251762  0.632381  0  4.139944  0
C  C40  1  0.96631172  0.30244342  0.26568279  1  0  0.577948  0  3.909816  0  0  0.538204  0  4.209341  0  0  0.568403  0  4.200162  0  0  0.221633  0.517605  0  4.214485  0
C  C41  1  0.03369394  0.69756269  0.73432179  1  0  0.577751  0  3.91  0  0  0.538091  0  4.209424  0  0  0.568296  0  4.200247  0  0  0.221612  0.517493  0  4.21456  0
C  C42  1  0.09474955  0.42173166  0.35793623  1  0  0.571385  0  3.883858  0  0  0.524965  0  4.184769  0  0  0.555455  0  4.175053  0  0  0.226925  0.504201  0  4.190471  0
C  C43  1  0.90525733  0.57827736  0.64206472  1  0  0.571503  0  3.883786  0  0  0.525002  0  4.184804  0  0  0.555468  0  4.175122  0  0  0.226903  0.504252  0  4.190477  0
C  C44  1  0.55155943  0.01143843  0.45447678  1  0  0.549393  0  3.943484  0  0  0.508244  0  4.24855  0  0  0.537942  0  4.240189  0  0  0.207232  0.487961  0  4.25347  0
C  C45  1  0.44843920  0.98854698  0.54551674  1  0  0.549475  0  3.943613  0  0  0.508404  0  4.248586  0  0  0.538102  0  4.240224  0  0  0.207262  0.488127  0  4.253499  0
C  C46  1  0.09662103  0.52012849  0.04468514  1  0  0.557894  0  3.944137  0  0  0.513815  0  4.252181  0  0  0.543414  0  4.243363  0  0  0.217057  0.493674  0  4.25735  0
C  C47  1  0.90337885  0.47987657  0.95531689  1  0  0.557938  0  3.944248  0  0  0.513822  0  4.252322  0  0  0.543426  0  4.243503  0  0  0.217006  0.493693  0  4.257476  0
N  N48  1  0.23620889  0.07485943  0.20098955  1  0  -0.379907  0  3.318563  0  0  -0.345223  0  3.56867  0  0  -0.356376  0  3.589686  0  0  -0.360812  -0.337183  0  3.554625  0
N  N49  1  0.76378651  0.92513872  0.79901058  1  0  -0.379898  0  3.318549  0  0  -0.345157  0  3.568645  0  0  -0.356317  0  3.589667  0  0  -0.360786  -0.337118  0  3.554595  0
O  O50  1  0.42450553  0.32187109  0.28497421  1  0  -0.676609  0  2.07819  0  0  -0.626669  0  2.313168  0  0  -0.653925  0  2.303511  0  0  -0.344138  -0.607413  0  2.31926  0
O  O51  1  0.57550630  0.67812825  0.71503253  1  0  -0.676539  0  2.078267  0  0  -0.626526  0  2.313268  0  0  -0.653787  0  2.303614  0  0  -0.344095  -0.607271  0  2.319362  0
O  O52  1  0.50325232  0.36628478  0.12862914  1  0  -0.690918  0  2.076136  0  0  -0.636012  0  2.313599  0  0  -0.66241  0  2.302779  0  0  -0.348768  -0.617271  0  2.320598  0
O  O53  1  0.49676080  0.63371458  0.87137700  1  0  -0.690932  0  2.076166  0  0  -0.635973  0  2.313676  0  0  -0.662365  0  2.302865  0  0  -0.348777  -0.617233  0  2.320673  0
O  O54  1  0.07284396  0.94912267  0.33836449  1  0  -0.683559  0  2.071426  0  0  -0.631577  0  2.299301  0  0  -0.658461  0  2.288991  0  0  -0.34435  -0.612481  0  2.30626  0
O  O55  1  0.92712860  0.05088599  0.66163193  1  0  -0.683429  0  2.071727  0  0  -0.631433  0  2.299602  0  0  -0.658328  0  2.28928  0  0  -0.344278  -0.612321  0  2.306592  0
O  O56  1  0.97804077  0.75453037  0.22678424  1  0  -0.704607  0  2.07425  0  0  -0.660362  0  2.325819  0  0  -0.686725  0  2.312796  0  0  -0.405972  -0.641136  0  2.334526  0
O  O57  1  0.02195513  0.24548050  0.77321592  1  0  -0.704657  0  2.073759  0  0  -0.660364  0  2.325287  0  0  -0.686722  0  2.312265  0  0  -0.406005  -0.641112  0  2.334018  0
O  O58  1  0.00116315  0.19617724  0.26846169  1  0  -0.640697  0  2.075066  0  0  -0.604339  0  2.31372  0  0  -0.628303  0  2.305924  0  0  -0.366755  -0.587317  0  2.319041  0
O  O59  1  0.99883689  0.80382787  0.73154514  1  0  -0.640669  0  2.074998  0  0  -0.604305  0  2.313646  0  0  -0.62828  0  2.305849  0  0  -0.366814  -0.587288  0  2.318962  0
O  O60  1  0.83630186  0.32201913  0.19242309  1  0  -0.667264  0  2.047861  0  0  -0.632099  0  2.285492  0  0  -0.656939  0  2.27768  0  0  -0.382235  -0.613622  0  2.290059  0
O  O61  1  0.16370554  0.67798797  0.80758102  1  0  -0.667199  0  2.047912  0  0  -0.632043  0  2.285495  0  0  -0.65687  0  2.277688  0  0  -0.382204  -0.613574  0  2.290069  0
O  O62  1  0.23432273  0.40571696  0.42785244  1  0  -0.669818  0  2.076272  0  0  -0.611206  0  2.297817  0  0  -0.637033  0  2.288343  0  0  -0.332387  -0.592413  0  2.303817  0
O  O63  1  0.76568289  0.59428621  0.57215117  1  0  -0.669805  0  2.076211  0  0  -0.61117  0  2.297826  0  0  -0.636987  0  2.288359  0  0  -0.33238  -0.592387  0  2.303818  0
O  O64  1  0.05593938  0.52630316  0.35543494  1  0  -0.635401  0  2.027512  0  0  -0.597739  0  2.26054  0  0  -0.620027  0  2.249278  0  0  -0.352104  -0.581913  0  2.268156  0
O  O65  1  0.94408627  0.47370700  0.64456340  1  0  -0.635472  0  2.027412  0  0  -0.597773  0  2.260493  0  0  -0.620045  0  2.249246  0  0  -0.352073  -0.581951  0  2.2681  0
O  O66  1  0.52076809  0.09430455  0.39246743  1  0  -0.646183  0  2.042775  0  0  -0.611972  0  2.277707  0  0  -0.634901  0  2.268933  0  0  -0.370933  -0.595597  0  2.283469  0
O  O67  1  0.47922482  0.90568568  0.60752469  1  0  -0.646206  0  2.043015  0  0  -0.611983  0  2.277909  0  0  -0.634915  0  2.269128  0  0  -0.370916  -0.595614  0  2.283677  0
O  O68  1  0.65925998  0.94579070  0.45046291  1  0  -0.651332  0  2.024587  0  0  -0.60723  0  2.252892  0  0  -0.630909  0  2.24255  0  0  -0.365732  -0.590317  0  2.259863  0
O  O69  1  0.34073027  0.05419657  0.54952863  1  0  -0.651349  0  2.024499  0  0  -0.607286  0  2.252757  0  0  -0.63096  0  2.242417  0  0  -0.365723  -0.590369  0  2.259721  0
O  O70  1  0.89360401  0.44491892  0.85580512  1  0  -0.624006  0  2.04709  0  0  -0.589758  0  2.280882  0  0  -0.612046  0  2.272117  0  0  -0.351069  -0.574179  0  2.286728  0
O  O71  1  0.10640114  0.55508996  0.14418280  1  0  -0.62386  0  2.047282  0  0  -0.589635  0  2.281059  0  0  -0.611926  0  2.272292  0  0  -0.351067  -0.574061  0  2.286917  0
O  O72  1  0.23087718  0.51366885  0.00830415  1  0  -0.675906  0  2.10136  0  0  -0.626787  0  2.337828  0  0  -0.651925  0  2.327413  0  0  -0.362572  -0.608889  0  2.344654  0
O  O73  1  0.76912770  0.48632446  0.99169159  1  0  -0.675832  0  2.101715  0  0  -0.62671  0  2.338181  0  0  -0.651855  0  2.327767  0  0  -0.362497  -0.608825  0  2.345003  0
O  O74  1  0.02857511  0.15582104  0.48914438  1  0  -0.886602  0  1.833074  0  0  -0.846273  0  2.019722  0  0  -0.865174  0  1.987284  0  0  -0.629448  -0.83269  0  2.042572  0
O  O75  1  0.97142964  0.84418310  0.51085915  1  0  -0.886463  0  1.833251  0  0  -0.846094  0  2.01992  0  0  -0.865  0  1.987483  0  0  -0.629387  -0.832506  0  2.042763  0
O  O76  1  0.53831422  0.33265340  0.53923377  1  0  -0.876666  0  1.865107  0  0  -0.838677  0  2.05204  0  0  -0.856377  0  2.020084  0  0  -0.629235  -0.825916  0  2.073219  0
O  O77  1  0.46169206  0.66733409  0.46076584  1  0  -0.876554  0  1.865242  0  0  -0.838557  0  2.052199  0  0  -0.856266  0  2.020252  0  0  -0.629143  -0.8258  0  2.073378  0
O  O78  1  0.30897341  0.44837416  0.66233816  1  0  -0.913604  0  1.850404  0  0  -0.873765  0  2.033048  0  0  -0.893142  0  1.998536  0  0  -0.654282  -0.859562  0  2.057464  0
O  O79  1  0.69103824  0.55162221  0.33766359  1  0  -0.913435  0  1.850479  0  0  -0.8736  0  2.033085  0  0  -0.89299  0  1.998569  0  0  -0.654261  -0.859398  0  2.057497  0
O  O80  1  0.40249841  0.36078778  0.90114771  1  0  -0.891704  0  1.850607  0  0  -0.858315  0  2.025695  0  0  -0.876582  0  1.992536  0  0  -0.641901  -0.84496  0  2.049213  0
O  O81  1  0.59750443  0.63920360  0.09885319  1  0  -0.891573  0  1.850812  0  0  -0.858129  0  2.025797  0  0  -0.876412  0  1.992631  0  0  -0.641783  -0.844773  0  2.049314  0
