# generated using pymatgen
data_Mn3H20C24(NO)10
_symmetry_space_group_name_H-M   'P 1'
_cell_length_a   6.62485133
_cell_length_b   9.90280843
_cell_length_c   11.34048819
_cell_angle_alpha   74.29896276
_cell_angle_beta   74.47844992
_cell_angle_gamma   88.49415283
_symmetry_Int_Tables_number   1
_chemical_formula_structural   Mn3H20C24(NO)10
_chemical_formula_sum   'Mn3 H20 C24 N10 O10'
_cell_volume   689.25283813
_cell_formula_units_Z   1
loop_
 _symmetry_equiv_pos_site_id
 _symmetry_equiv_pos_as_xyz
  1  'x, y, z'
loop_
 _atom_site_type_symbol
 _atom_site_label
 _atom_site_symmetry_multiplicity
 _atom_site_fract_x
 _atom_site_fract_y
 _atom_site_fract_z
 _atom_site_occupancy
 _atom_site_hle17_ddec_charge
 _atom_site_hle17_ddec_spin_density
 _atom_site_hle17_ddec_sum_bond_order
 _atom_site_hle17_magmom
 _atom_site_hse06_10hf_ddec_charge
 _atom_site_hse06_10hf_ddec_spin_density
 _atom_site_hse06_10hf_ddec_sum_bond_order
 _atom_site_hse06_10hf_magmom
 _atom_site_hse06_ddec_charge
 _atom_site_hse06_ddec_spin_density
 _atom_site_hse06_ddec_sum_bond_order
 _atom_site_hse06_magmom
 _atom_site_pbe_cm5_charge
 _atom_site_pbe_ddec_charge
 _atom_site_pbe_ddec_spin_density
 _atom_site_pbe_ddec_sum_bond_order
 _atom_site_pbe_magmom
Mn  Mn0  1  0.51343803  0.99580421  0.99855590  1  1.194014  -4.76607  1.861971  -4.641  1.045689  -4.644996  2.376843  -4.483  1.098816  -4.730331  2.306489  -4.567  0.626772  1.002714  -4.553773  2.430557  -4.386
Mn  Mn1  1  0.77034719  0.17594069  0.18925879  1  0.792098  -1.396511  2.699287  -1.371  0.73283  -1.241012  3.211418  -1.203  0.756275  -1.110647  3.164778  -1.078  0.669384  0.719221  -1.324469  3.23395  -1.282
Mn  Mn2  1  0.23458368  0.83027151  0.81998905  1  1.089913  4.864461  1.914526  4.647  0.933362  4.724632  2.419422  4.484  0.984699  4.777006  2.354593  4.565  0.623208  0.894834  4.657498  2.467523  4.397
H  H3  1  0.83696297  0.92962921  0.14031732  1  0.417498  0.00081  0.882602  0.0  0.390061  0.000882  0.948694  0.0  0.398395  0.00086  0.937029  0.0  0.302914  0.384118  0.000914  0.957037  0.0
H  H4  1  0.13538216  0.07559788  0.87106379  1  0.41423  0.00108  0.893472  0.001  0.382446  0.001786  0.960537  0.002  0.392548  0.001392  0.945849  0.001  0.295833  0.37535  0.002022  0.97078  0.002
H  H5  1  0.04402070  0.01059158  0.12767206  1  0.41437  0.00014  0.863735  -0.001  0.384172  0.000111  0.942002  -0.001  0.393333  0.000159  0.932597  -0.001  0.305432  0.377251  8e-05  0.949391  -0.002
H  H6  1  0.96189433  0.04118073  0.80834739  1  0.422639  0.000778  0.867046  0.001  0.391911  0.001541  0.941231  0.002  0.402238  0.001291  0.926238  0.001  0.301596  0.38439  0.001776  0.952153  0.002
H  H7  1  0.18511281  0.52071167  0.99429544  1  0.08357  -0.000323  0.958822  -0.001  0.085962  0.000413  1.034643  0.0  0.089473  0.000311  1.030716  0.0  0.120561  0.083516  0.000498  1.037166  0.0
H  H8  1  0.83042183  0.47020102  0.01603637  1  0.091686  -0.00069  0.972439  -0.001  0.091134  1e-05  1.050662  0.0  0.094598  -5.7e-05  1.045565  0.0  0.122891  0.088813  9.3e-05  1.053482  0.0
H  H9  1  0.53409236  0.69853168  0.62349096  1  0.076295  -0.000699  0.946187  -0.001  0.083725  0.000602  1.012461  0.0  0.087522  0.000307  1.008112  0.0  0.115051  0.080823  0.000814  1.015717  0.0
H  H10  1  0.46406043  0.27718709  0.38182827  1  0.086776  -0.000653  0.950822  -0.001  0.092714  0.000356  1.017804  0.0  0.095509  0.000237  1.014426  0.0  0.1193  0.09035  0.000427  1.021037  0.0
H  H11  1  0.59800561  0.46098701  0.58342324  1  0.093973  0.000554  0.962578  0.001  0.104549  0.000338  1.022799  0.0  0.10735  0.000254  1.022949  0.0  0.102936  0.102489  0.00038  1.023086  0.0
H  H12  1  0.38053380  0.50914536  0.42527894  1  0.095626  0.000442  0.959525  0.001  0.107534  -0.000142  1.016424  0.0  0.109128  -0.000142  1.017913  0.0  0.105211  0.106266  -0.000117  1.015622  0.0
H  H13  1  0.43726280  0.24704373  0.75886568  1  0.102945  -0.000671  0.950514  -0.001  0.113224  0.000123  1.012517  0.0  0.116803  2.5e-05  1.008684  0.0  0.112055  0.110426  0.000237  1.015422  0.0
H  H14  1  0.53714159  0.73040893  0.25474287  1  0.108199  -0.000518  0.95979  -0.002  0.115852  0.000796  1.02288  0.0  0.120225  0.000611  1.018178  0.0  0.110599  0.112288  0.00096  1.02727  0.0
H  H15  1  0.33504763  0.00575958  0.53778398  1  0.085579  3.5e-05  0.955024  0.0  0.090172  0.000432  1.026374  0.0  0.093501  0.000242  1.022749  0.0  0.119358  0.087622  0.00056  1.029128  0.0
H  H16  1  0.68174317  0.99550219  0.46156707  1  0.094078  -0.00032  0.950265  0.0  0.097245  0.00018  1.02139  0.0  0.101179  4.6e-05  1.016109  0.0  0.123294  0.09496  0.000228  1.024392  0.0
H  H17  1  0.92424297  0.66247533  0.73883060  1  0.094746  -0.000469  0.941664  0.0  0.099236  -0.000206  1.010435  0.0  0.102708  -0.000332  1.006766  0.0  0.121183  0.096795  -9.3e-05  1.012868  0.0
H  H18  1  0.04761358  0.35904124  0.24923672  1  0.097114  -0.000229  0.945759  -0.001  0.099778  0.000296  1.016815  0.0  0.103235  0.000159  1.011802  0.0  0.122858  0.097744  0.000354  1.019714  0.0
H  H19  1  0.89186530  0.61640118  0.53779625  1  0.09885  0.000207  0.963342  0.0  0.111991  0.000115  1.018225  0.0  0.113891  0.000102  1.019359  0.0  0.107482  0.110726  0.000129  1.017413  0.0
H  H20  1  0.09022668  0.41012803  0.44259026  1  0.099587  0.000252  0.972727  0.001  0.110138  -5e-06  1.031003  0.0  0.112381  6e-06  1.031701  0.0  0.10696  0.109155  1e-05  1.02987  0.0
H  H21  1  0.10047485  0.77188340  0.32790618  1  0.107597  -4e-06  0.981941  0.0  0.111125  0.00025  1.053524  0.0  0.115097  0.000231  1.049662  0.0  0.107905  0.108106  0.000247  1.056332  0.0
H  H22  1  0.91152525  0.24870515  0.65827538  1  0.104276  -0.000619  0.978718  -0.001  0.109562  0.000119  1.048625  0.0  0.113959  -5.9e-05  1.043728  0.0  0.106261  0.10636  0.000219  1.051832  0.0
C  C23  1  0.18343098  0.24648129  0.99262527  1  0.649112  0.049387  3.813981  0.039  0.593265  0.023072  4.109283  0.016  0.642218  0.009783  4.089318  0.006  0.220792  0.559371  0.029681  4.122906  0.021
C  C24  1  0.80312385  0.74073907  0.02155831  1  0.691339  -0.001481  3.851794  -0.001  0.627217  -0.001716  4.154377  -0.001  0.664588  -0.001381  4.145871  -0.001  0.231283  0.599662  -0.001619  4.161181  -0.001
C  C25  1  0.29911558  0.36738130  0.89076788  1  -0.120266  -0.008075  3.759564  -0.011  -0.096718  0.000656  4.001973  -0.002  -0.108967  -0.001772  4.016807  -0.003  -0.01527  -0.090924  0.004816  3.994816  0.001
C  C26  1  0.69463033  0.61462739  0.12354094  1  -0.118211  -0.017885  3.764422  -0.018  -0.094431  -0.003475  4.0106  -0.005  -0.108834  -0.004545  4.030216  -0.005  -0.013943  -0.085201  -0.001278  3.997841  -0.003
C  C27  1  0.27636836  0.50388745  0.90458733  1  0.147392  0.020593  3.638125  0.018  0.105977  0.01235  3.890096  0.01  0.119134  0.008156  3.900611  0.007  0.063059  0.096674  0.014804  3.884191  0.012
C  C28  1  0.73109542  0.48130952  0.10573382  1  0.122756  0.03426  3.610695  0.027  0.07797  0.016642  3.868985  0.011  0.092831  0.013424  3.879028  0.009  0.050802  0.069451  0.014342  3.861973  0.009
C  C29  1  0.47106413  0.60190294  0.69712021  1  0.125666  0.034631  3.704688  0.029  0.093483  0.017785  3.958861  0.014  0.107029  0.008729  3.969666  0.007  0.046395  0.084064  0.024907  3.951693  0.019
C  C30  1  0.52681831  0.37511072  0.31054473  1  0.112805  0.034297  3.658723  0.027  0.077753  0.014504  3.917414  0.01  0.090451  0.01085  3.92954  0.007  0.039404  0.065188  0.016978  3.914349  0.011
C  C31  1  0.50475237  0.47035404  0.67565511  1  -0.129381  -0.017294  3.765769  -0.016  -0.137063  -0.004113  4.016827  -0.004  -0.145394  -0.003316  4.032899  -0.003  -0.087034  -0.132317  -0.003639  4.007353  -0.004
C  C32  1  0.48148529  0.50462621  0.33337263  1  -0.132357  -0.0217  3.784295  -0.021  -0.142464  -0.005452  4.042507  -0.006  -0.152585  -0.0064  4.062283  -0.006  -0.090209  -0.135484  -0.003681  4.031246  -0.005
C  C33  1  0.41742581  0.35134517  0.77318507  1  0.002788  0.030716  3.678494  0.026  -0.029937  0.015662  3.928979  0.012  -0.017505  0.008173  3.937977  0.006  -0.061029  -0.038828  0.021001  3.924547  0.016
C  C34  1  0.56748715  0.62706777  0.23986991  1  -0.008116  0.048714  3.695084  0.04  -0.044095  0.025877  3.9519  0.02  -0.031091  0.018502  3.961419  0.014  -0.072052  -0.055084  0.0297  3.948265  0.022
C  C35  1  0.38026012  0.98457823  0.29455679  1  0.669751  0.006244  3.837221  0.003  0.620853  -0.001727  4.124935  -0.003  0.659889  -0.002363  4.117889  -0.004  0.235033  0.593033  -0.001742  4.129868  -0.004
C  C36  1  0.65930294  0.01513915  0.70083451  1  0.686854  0.002866  3.852032  0.003  0.631443  0.003676  4.144196  0.003  0.667681  0.002436  4.137809  0.002  0.233078  0.605851  0.005312  4.148143  0.004
C  C37  1  0.23516456  0.90113996  0.41657806  1  -0.124626  -0.001396  3.745768  -0.002  -0.100427  -0.000366  3.983141  -0.001  -0.112881  -0.001534  4.004076  -0.001  -0.015011  -0.092928  0.000905  3.97063  0.0
C  C38  1  0.78432552  0.10850579  0.57558477  1  -0.130087  -0.010563  3.748957  -0.01  -0.105445  -0.002299  3.990026  -0.003  -0.120749  -0.002047  4.012028  -0.002  -0.01759  -0.095739  -0.000566  3.97509  -0.002
C  C39  1  0.23826728  0.92112422  0.53336514  1  0.122307  0.005503  3.68376  0.005  0.081566  0.005737  3.937847  0.005  0.090572  0.004643  3.954877  0.004  0.055944  0.074584  0.007861  3.927731  0.006
C  C40  1  0.77175886  0.08566277  0.46135706  1  0.119059  0.017605  3.627853  0.014  0.076478  0.008577  3.888587  0.006  0.090391  0.004508  3.899009  0.003  0.052866  0.067149  0.007971  3.880952  0.006
C  C41  1  0.00725473  0.72950121  0.64566940  1  0.142244  0.009926  3.674326  0.009  0.106438  0.007782  3.932621  0.006  0.115721  0.005066  3.949253  0.004  0.055683  0.099809  0.010912  3.921584  0.009
C  C42  1  0.97786145  0.28808730  0.34272769  1  0.128431  0.021645  3.645284  0.017  0.092258  0.011817  3.906953  0.008  0.106078  0.006144  3.916536  0.004  0.049197  0.083548  0.012889  3.898731  0.008
C  C43  1  0.99080833  0.70458290  0.53343980  1  -0.136174  -0.004734  3.748437  -0.004  -0.14301  -0.001574  3.995799  -0.002  -0.153302  -0.001765  4.018424  -0.001  -0.085425  -0.136406  -0.001341  3.980387  -0.002
C  C44  1  0.00039301  0.31565775  0.45213537  1  -0.129478  -0.011554  3.765744  -0.011  -0.137199  -0.002009  4.01732  -0.003  -0.147351  -0.001745  4.036057  -0.002  -0.087517  -0.130559  -0.000539  4.003027  -0.002
C  C45  1  0.10622118  0.79070556  0.41721131  1  0.004389  0.010839  3.674973  0.009  -0.024961  0.008647  3.921557  0.007  -0.016565  0.005666  3.935661  0.004  -0.059628  -0.030237  0.010782  3.912084  0.008
C  C46  1  0.90196306  0.22630146  0.57100303  1  -0.015941  0.031636  3.695496  0.026  -0.047636  0.018806  3.944251  0.014  -0.035276  0.009356  3.95544  0.007  -0.071419  -0.054164  0.021084  3.934936  0.016
N  N47  1  0.67892663  0.17959716  0.01442968  1  -0.567815  0.002101  2.739947  0.019  -0.566171  -0.012105  3.084512  0.009  -0.592917  -0.008295  3.089452  0.011  -0.294825  -0.544493  -0.015739  3.077847  0.006
N  N48  1  0.31578269  0.82354884  0.99392964  1  -0.633599  -0.002579  2.771575  -0.004  -0.597619  -0.001027  3.11002  -0.003  -0.626015  -0.001944  3.108294  -0.004  -0.315607  -0.575764  -4.8e-05  3.111218  -0.003
N  N49  1  0.76885310  0.27049024  0.92013817  1  0.392989  -0.00413  4.174473  -0.006  0.430395  -0.007493  4.469473  -0.008  0.445371  -0.004272  4.507704  -0.005  0.092959  0.419581  -0.010541  4.441837  -0.011
N  N50  1  0.22187773  0.73554066  0.08887878  1  0.414562  0.002508  4.185679  0.002  0.444577  0.004401  4.472328  0.004  0.461765  0.003099  4.503536  0.002  0.092765  0.432728  0.005388  4.449507  0.004
N  N51  1  0.85376626  0.35754153  0.82915724  1  -0.363713  -0.022389  2.387362  -0.022  -0.366362  -0.036156  2.615953  -0.033  -0.38717  -0.035399  2.636002  -0.033  -0.170912  -0.349342  -0.041168  2.600788  -0.037
N  N52  1  0.12977439  0.64957817  0.17872283  1  -0.376671  0.008379  2.400289  0.008  -0.374427  0.007303  2.631517  0.006  -0.383574  0.006759  2.643461  0.006  -0.176635  -0.36635  0.007834  2.622196  0.007
N  N53  1  0.35798601  0.61851928  0.81007808  1  -0.330881  0.017014  3.239194  0.002  -0.260965  0.031158  3.51325  0.013  -0.279314  0.027682  3.523007  0.011  -0.318957  -0.248129  0.035125  3.507156  0.016
N  N54  1  0.65512791  0.36174846  0.19847731  1  -0.265404  0.016844  3.314787  0.023  -0.206544  0.010478  3.595945  0.018  -0.227036  0.002728  3.61084  0.011  -0.344284  -0.192943  0.015351  3.58468  0.024
N  N55  1  0.12958774  0.83633541  0.64549498  1  -0.334  0.0245  3.234443  0.012  -0.265105  0.030877  3.511583  0.015  -0.285582  0.027171  3.527833  0.012  -0.32358  -0.250786  0.034791  3.501605  0.018
N  N56  1  0.86135498  0.17534497  0.34587360  1  -0.263726  0.019979  3.302695  0.021  -0.209725  0.015618  3.588993  0.017  -0.227365  0.008957  3.599399  0.011  -0.337399  -0.196124  0.019637  3.576335  0.022
O  O57  1  0.90246984  0.98028280  0.18733143  1  -0.736786  0.011175  1.927349  0.018  -0.697975  7e-05  2.145449  0.006  -0.729522  0.000378  2.127784  0.005  -0.547303  -0.675836  -0.000452  2.15689  0.005
O  O58  1  0.11446014  0.04299582  0.79958842  1  -0.814367  0.031406  1.898532  0.02  -0.759235  0.040267  2.112762  0.025  -0.782378  0.036329  2.079654  0.022  -0.568798  -0.741589  0.043894  2.13577  0.028
O  O59  1  0.03315642  0.27434255  0.07940990  1  -0.562671  -0.016513  2.238314  -0.015  -0.506406  -0.024178  2.516914  -0.022  -0.540946  -0.020689  2.507643  -0.018  -0.292076  -0.483086  -0.024848  2.520714  -0.022
O  O60  1  0.93505986  0.72170774  0.92425886  1  -0.625777  0.021742  2.074496  0.007  -0.560263  0.025264  2.344675  0.007  -0.591042  0.024114  2.333026  0.006  -0.295189  -0.538857  0.027314  2.353167  0.009
O  O61  1  0.22478048  0.11986294  0.98627292  1  -0.688874  -0.016034  2.1332  -0.002  -0.60927  -0.022627  2.383784  -0.005  -0.634848  -0.023858  2.363412  -0.007  -0.300642  -0.590195  -0.023616  2.397728  -0.007
O  O62  1  0.76166675  0.86242022  0.03965629  1  -0.69355  -0.025908  2.142467  -0.011  -0.620346  -0.029128  2.411644  -0.01  -0.647633  -0.027379  2.395185  -0.009  -0.31601  -0.600062  -0.031363  2.423555  -0.013
O  O63  1  0.50133672  0.07921168  0.30235279  1  -0.572835  0.000422  2.172649  0.008  -0.523991  -0.011614  2.450373  -0.005  -0.562161  -0.010502  2.447499  -0.005  -0.29451  -0.496408  -0.012782  2.449742  -0.005
O  O64  1  0.53398089  0.92205183  0.69881952  1  -0.626165  0.028311  2.071509  0.014  -0.561969  0.034006  2.342431  0.016  -0.592603  0.031296  2.330649  0.014  -0.295514  -0.53901  0.036802  2.349491  0.018
O  O65  1  0.38009790  0.94926151  0.19549830  1  -0.629096  -0.032249  2.123445  -0.02  -0.560295  -0.037561  2.389129  -0.023  -0.59151  -0.034876  2.375022  -0.02  -0.29716  -0.536757  -0.04038  2.398805  -0.026
O  O66  1  0.68354645  0.04066685  0.80145331  1  -0.667536  -0.029745  2.07967  -0.014  -0.594031  -0.03303  2.345076  -0.014  -0.624466  -0.031535  2.33106  -0.012  -0.302774  -0.571409  -0.033733  2.354623  -0.014
