# generated using pymatgen
data_CuH14C14(NO2)4
_symmetry_space_group_name_H-M   'P 1'
_cell_length_a   7.21029601
_cell_length_b   7.71094186
_cell_length_c   8.43335358
_cell_angle_alpha   109.97538477
_cell_angle_beta   94.66697618
_cell_angle_gamma   117.63924052
_symmetry_Int_Tables_number   1
_chemical_formula_structural   CuH14C14(NO2)4
_chemical_formula_sum   'Cu1 H14 C14 N4 O8'
_cell_volume   373.83618986
_cell_formula_units_Z   1
loop_
 _symmetry_equiv_pos_site_id
 _symmetry_equiv_pos_as_xyz
  1  'x, y, z'
loop_
 _atom_site_type_symbol
 _atom_site_label
 _atom_site_symmetry_multiplicity
 _atom_site_fract_x
 _atom_site_fract_y
 _atom_site_fract_z
 _atom_site_occupancy
 _atom_site_pbe_cm5_charge
 _atom_site_pbe_ddec_charge
 _atom_site_pbe_ddec_spin_density
 _atom_site_pbe_ddec_sum_bond_order
 _atom_site_pbe_magmom
Cu  Cu0  1  0.99999654  0.99999719  0.00000237  1  0.702463  0.901176  -0.727478  2.101412  -0.568
H  H1  1  0.49090587  0.84260381  0.84095209  1  0.120773  0.13558  -0.000177  1.015791  0.0
H  H2  1  0.50910049  0.15740439  0.15905016  1  0.120817  0.135623  -0.000177  1.015764  0.0
H  H3  1  0.25992384  0.57678692  0.71694907  1  0.121398  0.135666  7.4e-05  0.996614  0.0
H  H4  1  0.74008564  0.42321652  0.28305195  1  0.121413  0.135707  7.4e-05  0.996689  0.0
H  H5  1  0.49912765  0.73515803  0.07705484  1  0.122617  0.135534  0.000293  0.996353  0.0
H  H6  1  0.50086588  0.26483065  0.92293811  1  0.122616  0.135509  0.000293  0.996337  0.0
H  H7  1  0.25865436  0.73751268  0.10694767  1  0.121029  0.138727  -0.000787  1.009043  -0.001
H  H8  1  0.74134475  0.26248414  0.89304938  1  0.121035  0.138754  -0.000787  1.009007  -0.001
H  H9  1  0.75705961  0.77807388  0.33300220  1  0.132469  0.150966  -7.6e-05  1.017872  0.0
H  H10  1  0.24294252  0.22193423  0.66699855  1  0.132448  0.150895  -7.6e-05  1.017882  0.0
H  H11  1  0.73594043  0.80116803  0.66553183  1  0.124499  0.125183  0.000687  1.068547  0.0
H  H12  1  0.26406983  0.19884504  0.33446864  1  0.124502  0.1252  0.000687  1.068492  0.0
H  H13  1  0.14069648  0.68688909  0.38782031  1  0.150302  0.142549  9e-06  1.014925  0.0
H  H14  1  0.85930154  0.31310292  0.61217873  1  0.150326  0.142557  9e-06  1.014912  0.0
C  C15  1  0.21452667  0.42041512  0.01052778  1  0.207084  0.608016  0.000148  4.186412  0.001
C  C16  1  0.78546094  0.57957830  0.98947214  1  0.207161  0.608112  0.000148  4.18652  0.001
C  C17  1  0.18640012  0.82432564  0.76428905  1  0.20298  0.595425  0.001343  4.20656  0.003
C  C18  1  0.81359983  0.17567282  0.23571331  1  0.203072  0.595642  0.001344  4.206562  0.003
C  C19  1  0.34341179  0.74373183  0.72872140  1  -0.056184  -0.223334  -0.006455  3.808964  -0.007
C  C20  1  0.65659347  0.25627154  0.27127928  1  -0.056265  -0.223449  -0.006455  3.809006  -0.007
C  C21  1  0.35587764  0.66689531  0.12388968  1  -0.05566  -0.225019  -0.007328  3.803044  -0.008
C  C22  1  0.64411474  0.33309656  0.87610536  1  -0.055679  -0.225005  -0.007328  3.8031  -0.008
C  C23  1  0.62761947  0.76206546  0.39522535  1  0.020507  -0.068725  -0.000243  3.861306  0.0
C  C24  1  0.37238323  0.23794106  0.60477494  1  0.020486  -0.068646  -0.000243  3.861117  0.0
C  C25  1  0.61745115  0.77635279  0.55975401  1  0.016727  -0.079192  -0.000511  3.885799  -0.001
C  C26  1  0.38255072  0.22365210  0.44024572  1  0.016774  -0.079112  -0.000512  3.885491  -0.001
C  C27  1  0.30258207  0.71263075  0.41805284  1  0.17086  0.057878  -0.000795  3.759513  -0.001
C  C28  1  0.69741788  0.28736770  0.58194595  1  0.170822  0.057876  -0.000796  3.759584  -0.001
N  N29  1  0.41480142  0.74621550  0.57165592  1  -0.221816  0.087632  -0.001044  3.766954  -0.001
N  N30  1  0.58520186  0.25378943  0.42834630  1  -0.221785  0.087629  -0.001044  3.766838  -0.001
N  N31  1  0.43089441  0.72340725  0.30994259  1  -0.232633  0.078635  -0.000587  3.796763  0.0
N  N32  1  0.56910636  0.27659281  0.69005557  1  -0.232661  0.078518  -0.000587  3.796897  0.0
O  O33  1  0.22985930  0.30504074  0.08505260  1  -0.336733  -0.575407  -0.058738  2.390227  -0.083
O  O34  1  0.77012857  0.69495591  0.91495190  1  -0.33677  -0.575465  -0.058734  2.390394  -0.083
O  O35  1  0.20847291  0.91273368  0.93140080  1  -0.332353  -0.567755  -0.061303  2.37413  -0.087
O  O36  1  0.79152006  0.08725665  0.06860211  1  -0.332436  -0.567864  -0.061307  2.374233  -0.087
O  O37  1  0.05210870  0.79741065  0.64227361  1  -0.310076  -0.545124  0.000396  2.163269  -0.001
O  O38  1  0.94789599  0.20259432  0.35772991  1  -0.310094  -0.545237  0.000396  2.163318  -0.001
O  O39  1  0.10142863  0.35358664  0.85878064  1  -0.317021  -0.557812  -0.001166  2.159501  -0.003
O  O40  1  0.89856996  0.64640376  0.14121677  1  -0.317014  -0.557842  -0.001166  2.159497  -0.003
