# generated using pymatgen
data_NiH17C19(NO3)2
_symmetry_space_group_name_H-M   'P 1'
_cell_length_a   10.33356159
_cell_length_b   11.42204041
_cell_length_c   18.31045537
_cell_angle_alpha   90.00310010
_cell_angle_beta   89.99862506
_cell_angle_gamma   116.88731196
_symmetry_Int_Tables_number   1
_chemical_formula_structural   NiH17C19(NO3)2
_chemical_formula_sum   'Ni4 H68 C76 N8 O24'
_cell_volume   1927.56002946
_cell_formula_units_Z   4
loop_
 _symmetry_equiv_pos_site_id
 _symmetry_equiv_pos_as_xyz
  1  'x, y, z'
loop_
 _atom_site_type_symbol
 _atom_site_label
 _atom_site_symmetry_multiplicity
 _atom_site_fract_x
 _atom_site_fract_y
 _atom_site_fract_z
 _atom_site_occupancy
 _atom_site_pbe_bader_charge
 _atom_site_pbe_bader_spin_density
 _atom_site_pbe_cm5_charge
 _atom_site_pbe_ddec_charge
 _atom_site_pbe_ddec_spin_density
 _atom_site_pbe_ddec_sum_bond_order
 _atom_site_pbe_magmom
Ni  Ni0  1  0.01996468  0.63271915  0.89113890  1  1.107682  0.002382  0.614037  0.718499  0.00273  2.440673  0.003
Ni  Ni1  1  0.98005370  0.36731312  0.39110662  1  1.107759  -0.002302  0.613996  0.718706  -0.004053  2.440423  -0.002
Ni  Ni2  1  0.61318965  0.63288418  0.60889071  1  1.110251  0.002854  0.613774  0.718602  0.0034  2.439993  0.003
Ni  Ni3  1  0.38680168  0.36709818  0.10891499  1  1.110127  0.002748  0.613647  0.718452  0.003185  2.439979  0.003
H  H4  1  0.77472166  0.15316155  0.75857811  1  0.086941  -4.1e-05  0.10402  0.109292  -3.1e-05  1.0008  0.0
H  H5  1  0.22538606  0.84688086  0.25857077  1  0.086197  2.2e-05  0.10407  0.109457  1.7e-05  1.000341  0.0
H  H6  1  0.37881517  0.15340982  0.74149308  1  0.086866  -7.6e-05  0.103658  0.108646  -5.1e-05  1.000781  0.0
H  H7  1  0.62114262  0.84665468  0.24154687  1  0.085752  1.7e-05  0.103768  0.108886  4e-06  1.00096  0.0
H  H8  1  0.73781177  0.91998430  0.76868325  1  0.083622  -2e-05  0.103882  0.102833  -2.4e-05  1.023191  0.0
H  H9  1  0.26223244  0.08003248  0.26866011  1  0.08265  -6e-05  0.103847  0.102753  -6.4e-05  1.023126  0.0
H  H10  1  0.18268464  0.92020159  0.73152075  1  0.076948  -2.7e-05  0.103806  0.103059  -3e-05  1.022845  0.0
H  H11  1  0.81728006  0.07982180  0.23156121  1  0.0773  6.9e-05  0.103725  0.103117  7e-05  1.022439  0.0
H  H12  1  0.03046435  0.69511260  0.74769290  1  0.646979  0.000295  0.290525  0.382781  0.000593  0.958162  0.001
H  H13  1  0.96948412  0.30486016  0.24766133  1  0.646084  -0.000311  0.290393  0.38277  -0.000657  0.958199  -0.001
H  H14  1  0.66514808  0.69516763  0.75239138  1  0.635224  0.000297  0.290216  0.382385  0.000604  0.958675  0.001
H  H15  1  0.33482003  0.30477314  0.25237660  1  0.635177  0.000312  0.290222  0.382356  0.000662  0.958699  0.001
H  H16  1  0.00669121  0.55137248  0.76745742  1  0.639587  -7.7e-05  0.287132  0.365319  0.00023  0.989448  0.0
H  H17  1  0.99334902  0.44863045  0.26743269  1  0.640642  4.2e-05  0.287197  0.365388  -0.000342  0.989415  0.0
H  H18  1  0.54509873  0.55147905  0.73255249  1  0.635917  -7.6e-05  0.28668  0.364741  0.000247  0.990146  0.0
H  H19  1  0.45484910  0.44848357  0.23256328  1  0.636072  -4.1e-05  0.286713  0.364754  0.000359  0.990129  0.0
H  H20  1  0.12375399  0.05334415  0.89796345  1  0.089345  1.2e-05  0.105963  0.113646  1e-05  1.007194  0.0
H  H21  1  0.87627816  0.94664650  0.39795021  1  0.089856  2.8e-05  0.105948  0.113631  8e-06  1.007001  0.0
H  H22  1  0.93011842  0.05315439  0.60191387  1  0.091289  -2.8e-05  0.105798  0.113314  -7e-06  1.007535  0.0
H  H23  1  0.06979709  0.94678614  0.10193642  1  0.091249  1.3e-05  0.105823  0.113311  1e-05  1.007578  0.0
H  H24  1  0.16298131  0.21576160  0.00462337  1  0.144385  0.002144  0.11711  0.098277  0.00131  1.027494  0.002
H  H25  1  0.83711261  0.78423628  0.50459767  1  0.143528  0.002143  0.11721  0.098386  0.001307  1.027714  0.002
H  H26  1  0.05305445  0.21589286  0.49510956  1  0.136382  -0.002156  0.117283  0.098319  -0.001316  1.02775  -0.002
H  H27  1  0.94685204  0.78411110  0.99517174  1  0.138688  0.002159  0.11722  0.098194  0.001315  1.027894  0.002
H  H28  1  0.54364549  0.56173692  0.99531458  1  0.124563  0.001918  0.120948  0.098304  0.00114  1.016076  0.002
H  H29  1  0.45643032  0.43826312  0.49528730  1  0.122827  0.001957  0.120739  0.097966  0.001172  1.015952  0.002
H  H30  1  0.01770872  0.56157544  0.50484417  1  0.126719  -0.001943  0.121058  0.098161  -0.001184  1.015365  -0.002
H  H31  1  0.98221107  0.43842835  0.00484382  1  0.127286  0.001921  0.121025  0.098013  0.001159  1.015453  0.002
H  H32  1  0.80399040  0.47092152  0.82549000  1  0.625186  -0.000347  0.293712  0.376631  -0.000858  0.95429  0.0
H  H33  1  0.19612248  0.52911489  0.32547696  1  0.624431  0.000282  0.293797  0.376829  0.000767  0.954052  0.0
H  H34  1  0.66728821  0.47098161  0.67449972  1  0.634391  -0.000337  0.293845  0.377129  -0.000857  0.953522  0.0
H  H35  1  0.33266046  0.52900740  0.17453975  1  0.634054  -0.000276  0.293862  0.377011  -0.000765  0.953471  0.0
H  H36  1  0.78145228  0.59963432  0.84485622  1  0.642637  -0.000133  0.283779  0.370445  -0.000567  0.977677  0.0
H  H37  1  0.21866282  0.40042732  0.34484927  1  0.64351  0.000146  0.283736  0.370405  0.000574  0.977685  0.0
H  H38  1  0.81851067  0.59966892  0.65516868  1  0.652159  -0.000122  0.283578  0.370202  -0.000571  0.977947  0.0
H  H39  1  0.18141364  0.40038026  0.15517759  1  0.652621  -0.000133  0.283643  0.370255  -0.000576  0.977841  0.0
H  H40  1  0.27659693  0.43294374  0.80200078  1  0.066061  0.000227  0.109265  0.10706  0.000176  0.99923  0.0
H  H41  1  0.72345016  0.56704451  0.30197282  1  0.065514  0.000207  0.109307  0.107096  0.000146  0.999121  0.0
H  H42  1  0.15688111  0.43278292  0.69784699  1  0.106329  -3.7e-05  0.109032  0.106792  9e-06  0.999431  0.0
H  H43  1  0.84296655  0.56713547  0.19786472  1  0.105002  9e-05  0.108984  0.106539  5.6e-05  0.999475  0.0
H  H44  1  0.25707109  0.86076530  0.82850690  1  0.111483  -0.002009  0.118967  0.093007  -0.001254  1.015255  -0.001
H  H45  1  0.74292726  0.13928806  0.32847794  1  0.11169  0.002012  0.118944  0.092954  0.001256  1.015465  0.001
H  H46  1  0.60447339  0.86145497  0.67143225  1  0.119312  -0.001998  0.119204  0.093725  -0.001253  1.015075  -0.001
H  H47  1  0.39557994  0.13855733  0.17144188  1  0.118816  -0.002002  0.119236  0.093696  -0.001259  1.0149  -0.001
H  H48  1  0.48400431  0.74922802  0.03452516  1  0.09971  -0.0009  0.112155  0.126311  -0.000569  0.990557  0.0
H  H49  1  0.51599896  0.25072239  0.53454858  1  0.099904  0.000805  0.112171  0.126293  0.000493  0.990782  0.0
H  H50  1  0.26522194  0.74889540  0.46569796  1  0.089768  -0.000806  0.111755  0.125617  -0.000489  0.991106  0.0
H  H51  1  0.73475372  0.25105889  0.96566945  1  0.089044  -0.000905  0.111884  0.125638  -0.000566  0.991166  0.0
H  H52  1  0.74206065  0.90982617  0.95560084  1  0.040666  0.00013  0.10101  0.112336  8.8e-05  0.973097  0.0
H  H53  1  0.25794546  0.09013216  0.45560924  1  0.040791  -9.6e-05  0.10105  0.112556  -6.7e-05  0.972982  0.0
H  H54  1  0.16765307  0.90940321  0.54430960  1  0.057241  9.3e-05  0.100991  0.11221  6.2e-05  0.972221  0.0
H  H55  1  0.83238956  0.09063245  0.04427102  1  0.057446  0.000129  0.100961  0.112126  9.2e-05  0.972037  0.0
H  H56  1  0.73180601  0.04865539  0.92052890  1  0.06987  -6.5e-05  0.090752  0.087279  -5.8e-05  1.037075  0.0
H  H57  1  0.26819843  0.95129893  0.42055458  1  0.069452  -4e-06  0.090831  0.087466  -3e-06  1.036984  0.0
H  H58  1  0.31640594  0.04841774  0.57947228  1  0.030762  5e-06  0.090673  0.087553  5e-06  1.037664  0.0
H  H59  1  0.68368437  0.95162685  0.07945504  1  0.031309  -6.6e-05  0.090807  0.087733  -5.9e-05  1.037524  0.0
H  H60  1  0.52125851  0.00195319  0.85181977  1  0.050854  -0.00087  0.10722  0.116297  -0.000545  0.999726  0.0
H  H61  1  0.47873820  0.99805605  0.35180728  1  0.050985  0.000858  0.107223  0.116302  0.000534  0.999546  0.0
H  H62  1  0.48108195  0.00237592  0.64809221  1  0.044188  -0.000869  0.10697  0.115477  -0.000544  0.9999  0.0
H  H63  1  0.51900614  0.99764417  0.14808401  1  0.044388  -0.000859  0.107053  0.115653  -0.000539  0.999881  0.0
H  H64  1  0.22598022  0.61875970  0.00320613  1  0.121696  -0.001938  0.121621  0.093019  -0.001225  1.011175  -0.001
H  H65  1  0.77400332  0.38123021  0.50323344  1  0.121505  0.001781  0.121487  0.092836  0.00105  1.011341  0.001
H  H66  1  0.39307522  0.61871347  0.49707406  1  0.112321  -0.001793  0.121722  0.093234  -0.001059  1.011489  -0.001
H  H67  1  0.60686999  0.38122096  0.99704002  1  0.113058  -0.001949  0.121647  0.093296  -0.001227  1.011613  -0.001
H  H68  1  0.50206188  0.59689448  0.86341273  1  0.114309  0.001215  0.110583  0.122322  0.000919  1.004826  0.0
H  H69  1  0.49799903  0.40308337  0.36339069  1  0.113619  0.001377  0.110659  0.122358  0.001059  1.004728  0.0
H  H70  1  0.09505830  0.59672800  0.63666833  1  0.112136  -0.000354  0.1107  0.122506  -7.4e-05  1.00485  0.0
H  H71  1  0.90477456  0.40319689  0.13664828  1  0.113382  0.000194  0.110694  0.122702  -6.7e-05  1.004382  0.0
C  C72  1  0.96321139  0.36306097  0.82842294  1  1.56726  -0.000386  0.202915  0.560605  -0.000301  4.220844  0.0
C  C73  1  0.03684036  0.63695017  0.32839260  1  1.566233  0.000408  0.203071  0.560924  0.000322  4.219968  0.0
C  C74  1  0.40017433  0.36318131  0.67150268  1  1.567332  -0.000416  0.202629  0.559709  -0.000306  4.22198  0.0
C  C75  1  0.59975158  0.63680646  0.17156478  1  1.566077  -0.00035  0.202201  0.559343  -0.000295  4.221531  0.0
C  C76  1  0.96376345  0.23156636  0.82621917  1  0.005533  0.000384  -0.01237  -0.072901  0.000313  3.929937  0.0
C  C77  1  0.03633002  0.76846030  0.32620707  1  0.006117  0.000395  -0.012687  -0.073126  0.000333  3.930543  0.0
C  C78  1  0.26824610  0.23160108  0.67362368  1  -0.02899  -0.000402  -0.012997  -0.073994  -0.000319  3.930377  0.0
C  C79  1  0.73166101  0.76839571  0.17366542  1  -0.029049  0.000438  -0.012734  -0.073969  0.000334  3.930351  0.0
C  C80  1  0.84932422  0.12890657  0.78969104  1  -0.086268  -0.000531  -0.08698  -0.10213  -0.000409  3.997131  0.0
C  C81  1  0.15075071  0.87112674  0.28968131  1  -0.086842  0.000409  -0.087055  -0.102408  0.000324  3.997108  0.0
C  C82  1  0.28002068  0.12903852  0.71029430  1  -0.01944  -0.000419  -0.086069  -0.100289  -0.000321  3.995568  0.0
C  C83  1  0.71992125  0.87099776  0.21033487  1  -0.019701  -0.000494  -0.086425  -0.101098  -0.000391  3.996122  0.0
C  C84  1  0.82946938  0.00040368  0.79496244  1  -0.045858  0.000473  -0.083855  -0.096891  0.000376  3.994244  0.0
C  C85  1  0.17058032  0.99961635  0.29495252  1  -0.045069  0.000146  -0.083693  -0.096761  0.000123  3.993821  0.0
C  C86  1  0.17142460  0.00051333  0.70509640  1  -0.076944  -0.000233  -0.083915  -0.097589  -0.000193  3.995014  0.0
C  C87  1  0.82852005  0.99949894  0.20512068  1  -0.078656  0.00057  -0.084059  -0.09753  0.00045  3.994967  0.0
C  C88  1  0.04563415  0.07605335  0.86905528  1  -0.064706  0.000394  -0.079927  -0.140081  0.000298  3.934088  0.0
C  C89  1  0.95442112  0.92394461  0.36904278  1  -0.066831  0.000247  -0.0798  -0.140161  0.000192  3.934148  0.0
C  C90  1  0.03098700  0.07598116  0.63081008  1  -0.071499  -0.000282  -0.080421  -0.14032  -0.000217  3.934104  0.0
C  C91  1  0.96892452  0.92398837  0.13083505  1  -0.070949  0.000432  -0.080309  -0.140082  0.000327  3.933786  0.0
C  C92  1  0.19922901  0.31048261  0.89824916  1  0.036637  0.003876  0.003703  0.04503  0.003217  3.990991  0.003
C  C93  1  0.80084736  0.68953456  0.39822374  1  0.033463  0.004007  0.003623  0.044609  0.003326  3.991036  0.003
C  C94  1  0.11161092  0.31038702  0.60155049  1  0.084655  -0.003907  0.003919  0.044707  -0.003336  3.990389  -0.003
C  C95  1  0.88828786  0.68958195  0.10159364  1  0.084694  0.003799  0.003787  0.044274  0.003233  3.990715  0.003
C  C96  1  0.90478756  0.83450015  0.84593089  1  1.581673  -0.000499  0.209773  0.568332  -0.000366  4.207587  -0.001
C  C97  1  0.09521960  0.16548502  0.34590508  1  1.58055  0.000573  0.21  0.568716  0.00046  4.207214  0.001
C  C98  1  0.93024228  0.83445392  0.65408074  1  1.5653  -0.000509  0.208876  0.56742  -0.000376  4.207046  -0.001
C  C99  1  0.06972220  0.16552842  0.15407990  1  1.565308  -0.000564  0.208995  0.567579  -0.000451  4.206934  -0.001
C  C100  1  0.23367149  0.29847115  0.97072422  1  0.446993  -0.000265  0.046517  0.027916  0.000564  3.885068  0.0
C  C101  1  0.76640956  0.70153560  0.47071449  1  0.448253  -0.000207  0.0463  0.027657  0.000604  3.885671  0.0
C  C102  1  0.06500444  0.29849127  0.52911825  1  0.395454  0.000127  0.046032  0.027962  -0.000613  3.886265  0.0
C  C103  1  0.93493588  0.70152445  0.02915838  1  0.395494  -0.000183  0.046228  0.028438  0.000571  3.885013  0.0
C  C104  1  0.44809509  0.49287627  0.96551966  1  0.43894  3.1e-05  0.046144  0.068248  0.000723  3.936095  0.0
C  C105  1  0.55200061  0.50715359  0.46550533  1  0.497699  -6.4e-05  0.046061  0.068418  0.000769  3.935362  0.0
C  C106  1  0.04464616  0.49276651  0.53453618  1  0.496933  0.000143  0.046858  0.0698  -0.000745  3.935905  0.0
C  C107  1  0.95529328  0.50725752  0.03454301  1  0.498024  -0.000143  0.046642  0.069592  0.00069  3.935761  0.0
C  C108  1  0.29759206  0.42006468  0.85893453  1  0.018487  -0.002234  -0.057502  -0.050104  -0.001814  3.90257  -0.001
C  C109  1  0.70250640  0.57995891  0.35891007  1  0.018924  -0.002069  -0.057575  -0.049886  -0.001713  3.902262  -0.001
C  C110  1  0.12282871  0.41995055  0.64094729  1  -0.079592  0.002207  -0.057497  -0.050036  0.001874  3.902211  0.001
C  C111  1  0.87705102  0.58003164  0.14096714  1  -0.08099  -0.00236  -0.057381  -0.049554  -0.001969  3.901748  -0.002
C  C112  1  0.92647186  0.97285649  0.83602185  1  -0.010471  -6e-06  -0.018737  -0.034279  4e-06  3.996605  0.0
C  C113  1  0.07354505  0.02714746  0.33601122  1  -0.008715  -0.000152  -0.018747  -0.034013  -0.000148  3.996306  0.0
C  C114  1  0.04693434  0.97285104  0.66397277  1  -0.004426  0.000159  -0.017805  -0.03314  0.000139  3.995297  0.0
C  C115  1  0.95300320  0.02714590  0.16399622  1  -0.004755  1.6e-05  -0.017612  -0.033254  3.7e-05  3.995299  0.0
C  C116  1  0.52668805  0.88820101  0.94540138  1  0.023362  0.002121  0.012013  0.169388  0.001775  3.946423  0.001
C  C117  1  0.47331194  0.11178884  0.44540889  1  0.031684  -0.002108  0.011997  0.169858  -0.001749  3.947019  -0.001
C  C118  1  0.36163822  0.88819953  0.55468543  1  -0.000381  0.002119  0.01182  0.168584  0.001747  3.949404  0.001
C  C119  1  0.63841587  0.11180562  0.05465929  1  -0.001593  0.002112  0.011894  0.168912  0.001767  3.949587  0.001
C  C120  1  0.31273121  0.83982419  0.87317513  1  0.454292  0.000322  0.051539  0.109169  -0.000238  3.9269  0.0
C  C121  1  0.68725999  0.16021046  0.37316358  1  0.454706  -0.000352  0.051519  0.109089  0.000215  3.927073  0.0
C  C122  1  0.52768971  0.84028480  0.62683718  1  0.482695  0.00041  0.051037  0.107395  -0.000221  3.928734  0.0
C  C123  1  0.47236674  0.15972463  0.12682999  1  0.483859  0.000351  0.051153  0.10787  -0.000278  3.928788  0.0
C  C124  1  0.43956728  0.77911902  0.98816587  1  0.012472  -0.003971  -0.083814  -0.184913  -0.00345  3.936026  -0.003
C  C125  1  0.56043624  0.22085784  0.48818350  1  -0.035788  0.004  -0.083856  -0.185172  0.003359  3.936198  0.003
C  C126  1  0.33966611  0.77899780  0.51201190  1  -0.01569  -0.004003  -0.083716  -0.184456  -0.003385  3.936965  -0.003
C  C127  1  0.66032168  0.22097029  0.01199251  1  -0.01557  -0.004041  -0.083841  -0.18446  -0.003434  3.93731  -0.003
C  C128  1  0.68496681  0.97052722  0.96145036  1  -0.027232  -1.8e-05  -0.157016  -0.19827  -1.2e-05  3.943009  0.0
C  C129  1  0.31506380  0.02946892  0.46145305  1  -0.026328  0.000189  -0.157201  -0.198928  0.000158  3.943839  0.0
C  C130  1  0.28542315  0.97029878  0.53855076  1  0.014893  -0.00019  -0.15714  -0.198577  -0.000159  3.944761  0.0
C  C131  1  0.71461944  0.02973443  0.03854299  1  0.014506  -1.8e-05  -0.157256  -0.198716  -1.2e-05  3.945216  0.0
C  C132  1  0.45932009  0.91771989  0.88686536  1  0.007556  -0.003751  -0.086433  -0.192858  -0.003156  3.954374  -0.003
C  C133  1  0.54066857  0.08228747  0.38686917  1  0.00742  0.003813  -0.086419  -0.192967  0.003208  3.954469  0.003
C  C134  1  0.45877816  0.91802909  0.61312450  1  -0.001368  -0.003823  -0.086181  -0.190748  -0.003194  3.95424  -0.003
C  C135  1  0.54128745  0.08198602  0.11311518  1  -0.001042  -0.003834  -0.086515  -0.191556  -0.003193  3.954028  -0.003
C  C136  1  0.29392471  0.70499753  0.97099244  1  0.378959  -0.000191  0.050603  0.093552  -0.000705  3.940761  0.0
C  C137  1  0.70605904  0.29500238  0.47100606  1  0.418138  2.6e-05  0.050727  0.093804  0.00057  3.940551  0.0
C  C138  1  0.41139029  0.70504459  0.52920843  1  0.442707  3e-05  0.050807  0.093837  -0.000574  3.943256  0.0
C  C139  1  0.58860096  0.29492008  0.02918070  1  0.442073  -7.1e-05  0.050865  0.09371  -0.000679  3.943361  0.0
C  C140  1  0.06683376  0.20581958  0.86469757  1  -0.003789  0.0001  0.001029  0.053814  9.5e-05  3.967613  0.0
C  C141  1  0.93325838  0.79419568  0.36466777  1  -0.00245  0.001049  0.001115  0.054163  0.000863  3.967991  0.001
C  C142  1  0.13948698  0.20577166  0.63508831  1  0.040565  -0.001033  0.00065  0.053765  -0.000868  3.967637  -0.001
C  C143  1  0.86040524  0.79420217  0.13513498  1  0.042475  9.9e-05  0.000742  0.054208  0.000109  3.967463  0.0
C  C144  1  0.42320223  0.51135519  0.89272460  1  -0.014642  0.004428  -0.078662  -0.106579  0.003737  3.960355  0.004
C  C145  1  0.57687746  0.48865660  0.39269396  1  -0.069167  0.004958  -0.078365  -0.106497  0.004186  3.959018  0.004
C  C146  1  0.08829196  0.51119827  0.60728696  1  -0.02865  -0.004115  -0.078784  -0.107042  -0.00342  3.961762  -0.003
C  C147  1  0.91159185  0.48877021  0.10729490  1  -0.028782  0.003712  -0.078663  -0.107066  0.002982  3.959976  0.003
N  N148  1  0.35410021  0.38822958  0.00375820  1  -1.221087  0.061203  -0.330414  -0.196938  0.050722  3.652265  0.05
N  N149  1  0.64596148  0.61179473  0.50374416  1  -1.220118  0.061461  -0.330389  -0.196728  0.050916  3.652649  0.05
N  N150  1  0.03404411  0.38820153  0.49622518  1  -1.220315  -0.061264  -0.330629  -0.197574  -0.050907  3.652845  -0.05
N  N151  1  0.96593522  0.61183786  0.99625049  1  -1.222396  0.061283  -0.330738  -0.197776  0.050795  3.652501  0.05
N  N152  1  0.23046015  0.73447895  0.91437988  1  -1.200027  -0.059767  -0.32657  -0.205585  -0.049787  3.597671  -0.048
N  N153  1  0.76952144  0.26553374  0.41438222  1  -1.20026  0.05986  -0.326523  -0.205628  0.049743  3.597585  0.048
N  N154  1  0.50453803  0.73480560  0.58572240  1  -1.215054  -0.059867  -0.325909  -0.205348  -0.049808  3.599387  -0.048
N  N155  1  0.49546422  0.26516591  0.08571307  1  -1.214679  -0.059936  -0.325841  -0.205479  -0.049846  3.599185  -0.048
O  O156  1  0.02050017  0.43518798  0.88382105  1  -1.149842  0.000306  -0.304936  -0.546549  0.000128  2.277904  0.0
O  O157  1  0.97956456  0.56483580  0.38379293  1  -1.150112  -0.000565  -0.304956  -0.546736  -0.000328  2.278007  0.0
O  O158  1  0.41497999  0.43542224  0.61614966  1  -1.152947  0.000492  -0.304366  -0.545786  0.000295  2.278486  0.0
O  O159  1  0.58495055  0.56458038  0.11620183  1  -1.151981  0.00071  -0.30437  -0.545787  0.000446  2.278246  0.0
O  O160  1  0.00624365  0.82078719  0.87778652  1  -1.170893  0.002204  -0.308472  -0.555728  0.001738  2.312532  0.002
O  O161  1  0.99377601  0.17923116  0.37775075  1  -1.170402  -0.002015  -0.30852  -0.555981  -0.001608  2.312648  -0.002
O  O162  1  0.81520708  0.82075705  0.62208927  1  -1.161259  0.00225  -0.30775  -0.55516  0.001766  2.312588  0.002
O  O163  1  0.18474642  0.17920289  0.12211500  1  -1.161574  0.002027  -0.30784  -0.554988  0.001592  2.312915  0.002
O  O164  1  0.06943548  0.64674673  0.77882370  1  -1.246188  0.048769  -0.577022  -0.744128  0.039961  2.158125  0.04
O  O165  1  0.93058119  0.35326798  0.27881298  1  -1.246465  -0.048971  -0.577044  -0.744252  -0.040194  2.158272  -0.041
O  O166  1  0.57787301  0.64691115  0.72121776  1  -1.234474  0.04879  -0.576357  -0.743424  0.040016  2.158875  0.04
O  O167  1  0.42211698  0.35306913  0.22120333  1  -1.234526  0.048994  -0.576348  -0.743373  0.040139  2.159156  0.04
O  O168  1  0.90080320  0.39118290  0.77567426  1  -1.185082  -6.3e-05  -0.333389  -0.576601  -3.5e-05  2.164551  0.0
O  O169  1  0.09926085  0.60882957  0.27563543  1  -1.184237  -0.000647  -0.333401  -0.576729  -0.000649  2.164059  0.0
O  O170  1  0.49064025  0.39131182  0.72428490  1  -1.195264  -0.0002  -0.332992  -0.576218  -0.000159  2.165738  0.0
O  O171  1  0.50931642  0.60867561  0.22436269  1  -1.195009  0.000686  -0.332711  -0.57582  0.000675  2.165209  0.001
O  O172  1  0.78578513  0.74008809  0.82381983  1  -1.201382  0.001489  -0.318677  -0.567785  0.001339  2.238691  0.002
O  O173  1  0.21421625  0.25991873  0.32380423  1  -1.20133  0.000365  -0.318861  -0.568064  9.8e-05  2.238664  0.0
O  O174  1  0.95470577  0.74003072  0.67633614  1  -1.197197  0.001433  -0.31842  -0.567242  0.001295  2.23812  0.002
O  O175  1  0.04521972  0.25996434  0.17632039  1  -1.197013  -0.0003  -0.318488  -0.567505  -5.2e-05  2.237356  0.0
O  O176  1  0.79871196  0.52595569  0.86605253  1  -1.217985  -0.057219  -0.572211  -0.717427  -0.046765  2.127979  -0.046
O  O177  1  0.20134549  0.47407932  0.36603803  1  -1.217905  0.057163  -0.572343  -0.717639  0.046607  2.12787  0.046
O  O178  1  0.72758324  0.52603166  0.63394743  1  -1.237294  -0.057162  -0.572062  -0.71762  -0.046701  2.128387  -0.046
O  O179  1  0.27238843  0.47395777  0.13397499  1  -1.237366  -0.05725  -0.572169  -0.717612  -0.046805  2.128474  -0.046
