# generated using pymatgen
data_SnH8C4(SBr2)2
_symmetry_space_group_name_H-M   'P 1'
_cell_length_a   6.79790350
_cell_length_b   7.95401212
_cell_length_c   12.07404575
_cell_angle_alpha   89.99919057
_cell_angle_beta   89.99411929
_cell_angle_gamma   113.74784107
_symmetry_Int_Tables_number   1
_chemical_formula_structural   SnH8C4(SBr2)2
_chemical_formula_sum   'Sn2 H16 C8 S4 Br8'
_cell_volume   597.57189911
_cell_formula_units_Z   2
loop_
 _symmetry_equiv_pos_site_id
 _symmetry_equiv_pos_as_xyz
  1  'x, y, z'
loop_
 _atom_site_type_symbol
 _atom_site_label
 _atom_site_symmetry_multiplicity
 _atom_site_fract_x
 _atom_site_fract_y
 _atom_site_fract_z
 _atom_site_occupancy
 _atom_site_hle17_bader_spin_density
 _atom_site_hle17_ddec_charge
 _atom_site_hle17_ddec_spin_density
 _atom_site_hle17_ddec_sum_bond_order
 _atom_site_hle17_magmom
 _atom_site_hse06_10hf_bader_spin_density
 _atom_site_hse06_10hf_ddec_charge
 _atom_site_hse06_10hf_ddec_spin_density
 _atom_site_hse06_10hf_ddec_sum_bond_order
 _atom_site_hse06_10hf_magmom
 _atom_site_hse06_bader_spin_density
 _atom_site_hse06_ddec_charge
 _atom_site_hse06_ddec_spin_density
 _atom_site_hse06_ddec_sum_bond_order
 _atom_site_hse06_magmom
 _atom_site_pbe_bader_spin_density
 _atom_site_pbe_cm5_charge
 _atom_site_pbe_ddec_charge
 _atom_site_pbe_ddec_spin_density
 _atom_site_pbe_ddec_sum_bond_order
 _atom_site_pbe_magmom
Sn  Sn0  1  0.00012146  0.49995392  0.99994895  1  0  0.851826  0  3.407624  0  0  0.717477  0  3.939719  0  0  0.762965  0  3.927976  0  0  0.30809  0.686328  0  3.945815  0
Sn  Sn1  1  0.49996230  0.99996803  0.50003881  1  0  0.851788  0  3.407596  0  0  0.7174  0  3.939789  0  0  0.762891  0  3.928036  0  0  0.308027  0.686253  0  3.945871  0
H  H2  1  0.79645711  0.05279793  0.85145702  1  0  0.117741  0  0.941948  0  0  0.129599  0  1.007965  0  0  0.13151  0  1.006815  0  0  0.095146  0.128075  0  1.008909  0
H  H3  1  0.70351204  0.44717677  0.35144528  1  0  0.117766  0  0.941832  0  0  0.129718  0  1.007819  0  0  0.131652  0  1.006658  0  0  0.095096  0.128167  0  1.008784  0
H  H4  1  0.20345943  0.94716308  0.14857763  1  0  0.117834  0  0.941476  0  0  0.129787  0  1.007417  0  0  0.131708  0  1.006255  0  0  0.095056  0.128234  0  1.008383  0
H  H5  1  0.29634393  0.55276334  0.64851567  1  0  0.117698  0  0.942368  0  0  0.129616  0  1.00835  0  0  0.13154  0  1.007193  0  0  0.09512  0.128079  0  1.009297  0
H  H6  1  0.81557769  0.02645208  0.99773330  1  0  0.105955  0  0.943204  0  0  0.116029  0  1.013036  0  0  0.117702  0  1.012492  0  0  0.092396  0.114722  0  1.01366  0
H  H7  1  0.68445297  0.47361802  0.49773953  1  0  0.10595  0  0.943314  0  0  0.116049  0  1.013147  0  0  0.117733  0  1.012593  0  0  0.092341  0.114747  0  1.013767  0
H  H8  1  0.18441511  0.97363050  0.00228230  1  0  0.105891  0  0.943077  0  0  0.115965  0  1.012958  0  0  0.11764  0  1.012411  0  0  0.092248  0.114648  0  1.013587  0
H  H9  1  0.31559066  0.52641206  0.50229678  1  0  0.105898  0  0.942997  0  0  0.115957  0  1.012959  0  0  0.117669  0  1.012375  0  0  0.092349  0.114615  0  1.013618  0
H  H10  1  0.56501634  0.73460139  0.90286505  1  0  0.115674  0  0.960366  0  0  0.124578  0  1.032661  0  0  0.126675  0  1.031292  0  0  0.08969  0.123084  0  1.033297  0
H  H11  1  0.93500584  0.76534507  0.40279145  1  0  0.115365  0  0.961364  0  0  0.124515  0  1.03345  0  0  0.126619  0  1.032071  0  0  0.089679  0.123012  0  1.034102  0
H  H12  1  0.43489042  0.26532006  0.09709673  1  0  0.115692  0  0.960471  0  0  0.124634  0  1.032702  0  0  0.126731  0  1.031367  0  0  0.089633  0.123133  0  1.033328  0
H  H13  1  0.06494746  0.23460901  0.59710655  1  0  0.115432  0  0.960823  0  0  0.124604  0  1.03288  0  0  0.126716  0  1.031503  0  0  0.089737  0.123103  0  1.033523  0
H  H14  1  0.40009013  0.84801031  0.85623357  1  0  0.105563  0  0.957046  0  0  0.114215  0  1.029732  0  0  0.116148  0  1.028895  0  0  0.088089  0.112834  0  1.029893  0
H  H15  1  0.09994971  0.65200065  0.35616874  1  0  0.105668  0  0.956762  0  0  0.114435  0  1.029309  0  0  0.116365  0  1.028518  0  0  0.08812  0.11304  0  1.029479  0
H  H16  1  0.59995979  0.15201727  0.14373980  1  0  0.105668  0  0.957006  0  0  0.114362  0  1.029635  0  0  0.116302  0  1.028786  0  0  0.088174  0.112976  0  1.029799  0
H  H17  1  0.89989840  0.34800959  0.64374417  1  0  0.105604  0  0.956874  0  0  0.114223  0  1.029612  0  0  0.116151  0  1.028806  0  0  0.088037  0.112843  0  1.029777  0
C  C18  1  0.70753133  0.02636203  0.92995419  1  0  -0.151194  0  3.625849  0  0  -0.186283  0  3.879345  0  0  -0.186137  0  3.891233  0  0  -0.151432  -0.186191  0  3.871148  0
C  C19  1  0.79243272  0.47365669  0.42993775  1  0  -0.150912  0  3.625199  0  0  -0.186144  0  3.878822  0  0  -0.186032  0  3.890752  0  0  -0.15133  -0.186035  0  3.870603  0
C  C20  1  0.29242884  0.97357738  0.07006805  1  0  -0.151049  0  3.624752  0  0  -0.186296  0  3.878509  0  0  -0.186164  0  3.890412  0  0  -0.151208  -0.186167  0  3.870271  0
C  C21  1  0.20748994  0.52641686  0.57003976  1  0  -0.151021  0  3.625292  0  0  -0.186292  0  3.87909  0  0  -0.186197  0  3.891007  0  0  -0.151476  -0.186151  0  3.870893  0
C  C22  1  0.51192975  0.84507489  0.92118506  1  0  -0.159141  0  3.633434  0  0  -0.192893  0  3.883542  0  0  -0.192905  0  3.895165  0  0  -0.15576  -0.192163  0  3.87457  0
C  C23  1  0.98808346  0.65490748  0.42113851  1  0  -0.159085  0  3.634154  0  0  -0.193155  0  3.88442  0  0  -0.193253  0  3.896212  0  0  -0.155758  -0.192362  0  3.875311  0
C  C24  1  0.48803372  0.15485515  0.07881978  1  0  -0.159266  0  3.633461  0  0  -0.193138  0  3.883808  0  0  -0.19317  0  3.895438  0  0  -0.15576  -0.192357  0  3.874721  0
C  C25  1  0.01187630  0.34511584  0.57883734  1  0  -0.158968  0  3.633219  0  0  -0.192915  0  3.883519  0  0  -0.193029  0  3.895374  0  0  -0.155674  -0.192127  0  3.874403  0
S  S26  1  0.62964836  0.21773992  0.94785601  1  0  0.131548  0  2.631092  0  0  0.161468  0  2.997985  0  0  0.155448  0  3.001033  0  0  0.080352  0.164188  0  2.996208  0
S  S27  1  0.87049841  0.28239674  0.44781846  1  0  0.131295  0  2.630866  0  0  0.161309  0  2.997652  0  0  0.155317  0  3.000732  0  0  0.080334  0.16403  0  2.995864  0
S  S28  1  0.37044490  0.78225522  0.05219438  1  0  0.131712  0  2.63129  0  0  0.161732  0  2.997791  0  0  0.155724  0  3.00082  0  0  0.080614  0.164441  0  2.996013  0
S  S29  1  0.12956324  0.71778011  0.55211763  1  0  0.131853  0  2.631366  0  0  0.161844  0  2.998353  0  0  0.15588  0  3.001416  0  0  0.080573  0.164545  0  2.996569  0
Br  Br30  1  0.78276817  0.63129998  0.12624419  1  0  -0.339557  0  1.082061  0  0  -0.301582  0  1.367638  0  0  -0.314241  0  1.355147  0  0  -0.14257  -0.292521  0  1.376246  0
Br  Br31  1  0.71716393  0.86863123  0.62609156  1  0  -0.339081  0  1.083912  0  0  -0.301102  0  1.369727  0  0  -0.313728  0  1.357233  0  0  -0.142057  -0.292056  0  1.378331  0
Br  Br32  1  0.21713358  0.36855226  0.87397599  1  0  -0.338593  0  1.085168  0  0  -0.300588  0  1.371024  0  0  -0.313198  0  1.358519  0  0  -0.141661  -0.291576  0  1.379654  0
Br  Br33  1  0.28293194  0.13141408  0.37390002  1  0  -0.338877  0  1.083515  0  0  -0.300957  0  1.369366  0  0  -0.31358  0  1.356868  0  0  -0.141992  -0.291931  0  1.377981  0
Br  Br34  1  0.94145122  0.67822478  0.83153632  1  0  -0.353091  0  1.107888  0  0  -0.324474  0  1.39931  0  0  -0.336299  0  1.386287  0  0  -0.1505  -0.315799  0  1.408396  0
Br  Br35  1  0.55891813  0.82191002  0.33152588  1  0  -0.353266  0  1.107702  0  0  -0.324688  0  1.399215  0  0  -0.336514  0  1.38619  0  0  -0.150679  -0.315995  0  1.408281  0
Br  Br36  1  0.05874473  0.32198347  0.16847928  1  0  -0.35315  0  1.108649  0  0  -0.324526  0  1.400128  0  0  -0.336343  0  1.387088  0  0  -0.150536  -0.315857  0  1.409205  0
Br  Br37  1  0.44126664  0.17798386  0.66850712  1  0  -0.353173  0  1.108671  0  0  -0.324482  0  1.400116  0  0  -0.336294  0  1.387087  0  0  -0.150508  -0.315809  0  1.409204  0
