# generated using pymatgen
data_ZnH24C22(NO)4
_symmetry_space_group_name_H-M   'P 1'
_cell_length_a   6.82375254
_cell_length_b   8.38150019
_cell_length_c   9.85336215
_cell_angle_alpha   81.76276418
_cell_angle_beta   74.11571479
_cell_angle_gamma   75.34133116
_symmetry_Int_Tables_number   1
_chemical_formula_structural   ZnH24C22(NO)4
_chemical_formula_sum   'Zn1 H24 C22 N4 O4'
_cell_volume   522.72387795
_cell_formula_units_Z   1
loop_
 _symmetry_equiv_pos_site_id
 _symmetry_equiv_pos_as_xyz
  1  'x, y, z'
loop_
 _atom_site_type_symbol
 _atom_site_label
 _atom_site_symmetry_multiplicity
 _atom_site_fract_x
 _atom_site_fract_y
 _atom_site_fract_z
 _atom_site_occupancy
 _atom_site_hle17_bader_spin_density
 _atom_site_hle17_ddec_charge
 _atom_site_hle17_ddec_spin_density
 _atom_site_hle17_ddec_sum_bond_order
 _atom_site_hle17_magmom
 _atom_site_hse06_10hf_bader_spin_density
 _atom_site_hse06_10hf_ddec_charge
 _atom_site_hse06_10hf_ddec_spin_density
 _atom_site_hse06_10hf_ddec_sum_bond_order
 _atom_site_hse06_10hf_magmom
 _atom_site_hse06_bader_spin_density
 _atom_site_hse06_ddec_charge
 _atom_site_hse06_ddec_spin_density
 _atom_site_hse06_ddec_sum_bond_order
 _atom_site_hse06_magmom
 _atom_site_pbe_bader_spin_density
 _atom_site_pbe_cm5_charge
 _atom_site_pbe_ddec_charge
 _atom_site_pbe_ddec_spin_density
 _atom_site_pbe_ddec_sum_bond_order
 _atom_site_pbe_magmom
Zn  Zn0  1  0.50000011  0.49999804  0.49999910  1  0  1.018023  0  1.869445  0  0  0.834555  0  2.316506  0  0  0.88419  0  2.262943  0  0  0.667452  0.800013  0  2.353099  0
H  H1  1  0.96980942  0.52379718  0.35680365  1  0  0.090887  0  0.946025  0  0  0.098135  0  1.011084  0  0  0.100739  0  1.00911  0  0  0.121788  0.096013  0  1.013006  0
H  H2  1  0.03019661  0.47620006  0.64319429  1  0  0.090871  0  0.946009  0  0  0.098125  0  1.011076  0  0  0.10073  0  1.0091  0  0  0.12177  0.096002  0  1.013001  0
H  H3  1  0.59377433  0.25104384  0.27651954  1  0  0.080302  0  0.960399  0  0  0.087495  0  1.026024  0  0  0.090162  0  1.023861  0  0  0.115588  0.08553  0  1.027593  0
H  H4  1  0.40622551  0.74895971  0.72348281  1  0  0.08028  0  0.960399  0  0  0.087474  0  1.026025  0  0  0.090134  0  1.023879  0  0  0.115587  0.085506  0  1.027597  0
H  H5  1  0.86083516  0.15246036  0.05554159  1  0  0.097976  0  0.946489  0  0  0.114214  0  0.996771  0  0  0.116894  0  0.996706  0  0  0.106691  0.112105  0  0.997328  0
H  H6  1  0.13916750  0.84753820  0.94445986  1  0  0.097978  0  0.946479  0  0  0.114223  0  0.996753  0  0  0.116904  0  0.996687  0  0  0.106706  0.112116  0  0.997313  0
H  H7  1  0.19121264  0.25943072  0.97947914  1  0  0.101668  0  0.945335  0  0  0.111336  0  1.009407  0  0  0.113685  0  1.00821  0  0  0.109959  0.109579  0  1.010245  0
H  H8  1  0.80879001  0.74056782  0.02052029  1  0  0.101629  0  0.945308  0  0  0.111287  0  1.009395  0  0  0.113646  0  1.008186  0  0  0.109937  0.109523  0  1.010241  0
H  H9  1  0.29986109  0.55059445  0.20669038  1  0  0.095527  0  0.96301  0  0  0.10088  0  1.032903  0  0  0.10523  0  1.028139  0  0  0.119485  0.097789  0  1.036155  0
H  H10  1  0.70013576  0.44940295  0.79331032  1  0  0.095515  0  0.962986  0  0  0.10086  0  1.032898  0  0  0.105209  0  1.028134  0  0  0.119481  0.097771  0  1.036143  0
H  H11  1  0.42236435  0.81662228  0.08626500  1  0  0.120085  0  0.981999  0  0  0.130984  0  1.059935  0  0  0.134756  0  1.057307  0  0  0.090492  0.128223  0  1.061914  0
H  H12  1  0.57763764  0.18337869  0.91373119  1  0  0.120125  0  0.981989  0  0  0.131035  0  1.059902  0  0  0.134808  0  1.057273  0  0  0.090505  0.128276  0  1.061877  0
H  H13  1  0.41837651  0.01345747  0.14006661  1  0  0.111391  0  0.960354  0  0  0.133513  0  1.017569  0  0  0.135337  0  1.01738  0  0  0.085643  0.132148  0  1.017826  0
H  H14  1  0.58163162  0.98654346  0.85993246  1  0  0.111419  0  0.960379  0  0  0.133542  0  1.01757  0  0  0.135366  0  1.017383  0  0  0.085668  0.132177  0  1.017829  0
H  H15  1  0.19722069  0.92144342  0.20627556  1  0  0.121652  0  0.952105  0  0  0.142104  0  1.013121  0  0  0.144359  0  1.012704  0  0  0.092396  0.140442  0  1.013567  0
H  H16  1  0.80278196  0.07855511  0.79372286  1  0  0.12175  0  0.951992  0  0  0.142165  0  1.013049  0  0  0.14442  0  1.012633  0  0  0.092427  0.140502  0  1.013498  0
H  H17  1  0.65926998  0.96460862  0.27362748  1  0  0.102087  0  1.012182  0  0  0.110632  0  1.079306  0  0  0.113523  0  1.081734  0  0  0.082979  0.108616  0  1.077809  0
H  H18  1  0.34073486  0.03538747  0.72637591  1  0  0.102079  0  1.012214  0  0  0.110626  0  1.07934  0  0  0.113519  0  1.081765  0  0  0.082962  0.108618  0  1.077837  0
H  H19  1  0.82189257  0.88611639  0.59075704  1  0  0.124186  0  0.949943  0  0  0.1461  0  1.009019  0  0  0.147604  0  1.009899  0  0  0.092978  0.145036  0  1.008438  0
H  H20  1  0.17810235  0.11388844  0.40924407  1  0  0.124147  0  0.949986  0  0  0.146069  0  1.009059  0  0  0.147573  0  1.009938  0  0  0.092958  0.145006  0  1.00847  0
H  H21  1  0.85438224  0.99533913  0.41953489  1  0  0.113486  0  0.965619  0  0  0.134913  0  1.025347  0  0  0.13645  0  1.025986  0  0  0.087233  0.133791  0  1.024947  0
H  H22  1  0.14560051  0.00465970  0.58046732  1  0  0.113431  0  0.965672  0  0  0.134853  0  1.025408  0  0  0.136389  0  1.02605  0  0  0.087229  0.133733  0  1.025008  0
H  H23  1  0.01610177  0.79516793  0.44630298  1  0  0.138965  0  0.955011  0  0  0.15494  0  1.020633  0  0  0.158027  0  1.019213  0  0  0.096281  0.152673  0  1.021762  0
H  H24  1  0.98389646  0.20484179  0.55369785  1  0  0.138952  0  0.955076  0  0  0.154944  0  1.020671  0  0  0.158033  0  1.01925  0  0  0.096278  0.152677  0  1.021802  0
C  C25  1  0.10617566  0.40022919  0.16311173  1  0  -0.005321  0  3.800148  0  0  0.016972  0  4.035332  0  0  0.010378  0  4.059822  0  0  -0.004288  0.02087  0  4.018925  0
C  C26  1  0.89382175  0.59977187  0.83688737  1  0  -0.005323  0  3.80014  0  0  0.017014  0  4.035285  0  0  0.010422  0  4.059776  0  0  -0.004285  0.020911  0  4.018878  0
C  C27  1  0.94934639  0.44380870  0.28624373  1  0  0.109249  0  3.642593  0  0  0.072662  0  3.892887  0  0  0.078335  0  3.911504  0  0  0.065223  0.068867  0  3.880554  0
C  C28  1  0.05065562  0.55619234  0.71375752  1  0  0.109277  0  3.642576  0  0  0.072646  0  3.892889  0  0  0.078318  0  3.911508  0  0  0.065213  0.068848  0  3.880556  0
C  C29  1  0.74267230  0.28854119  0.24179658  1  0  0.136174  0  3.685128  0  0  0.101335  0  3.946744  0  0  0.109177  0  3.962921  0  0  0.052513  0.09618  0  3.935707  0
C  C30  1  0.25732753  0.71146232  0.75820274  1  0  0.136195  0  3.685016  0  0  0.10134  0  3.946656  0  0  0.10918  0  3.962829  0  0  0.052499  0.096192  0  3.935613  0
C  C31  1  0.89203543  0.23501719  0.11914174  1  0  -0.126641  0  3.761093  0  0  -0.138182  0  4.013649  0  0  -0.146349  0  4.035816  0  0  -0.085445  -0.133074  0  3.998824  0
C  C32  1  0.10796537  0.76498262  0.88085889  1  0  -0.126616  0  3.761064  0  0  -0.138161  0  4.013629  0  0  -0.146329  0  4.035797  0  0  -0.085449  -0.133064  0  3.998811  0
C  C33  1  0.07463789  0.29315953  0.07750484  1  0  -0.033452  0  3.686121  0  0  -0.059325  0  3.930647  0  0  -0.055573  0  3.949792  0  0  -0.058465  -0.060857  0  3.917232  0
C  C34  1  0.92536596  0.70684022  0.92249420  1  0  -0.033415  0  3.686107  0  0  -0.059288  0  3.930628  0  0  -0.055544  0  3.949767  0  0  -0.058418  -0.060809  0  3.917213  0
C  C35  1  0.28637979  0.47470507  0.12876400  1  0  0.084607  0  3.664391  0  0  0.049111  0  3.92898  0  0  0.056621  0  3.941991  0  0  0.071962  0.044451  0  3.91981  0
C  C36  1  0.71361882  0.52529719  0.87123368  1  0  0.084573  0  3.664432  0  0  0.049064  0  3.929016  0  0  0.056572  0  3.942028  0  0  0.071953  0.044401  0  3.919848  0
C  C37  1  0.36879218  0.89653411  0.17493701  1  0  -0.42081  0  3.693114  0  0  -0.498644  0  3.930048  0  0  -0.504438  0  3.931715  0  0  -0.253472  -0.494647  0  3.928978  0
C  C38  1  0.63121167  0.10346563  0.82506102  1  0  -0.420996  0  3.693119  0  0  -0.498809  0  3.930095  0  0  -0.504599  0  3.931746  0  0  -0.253552  -0.494815  0  3.929027  0
C  C39  1  0.45634328  0.80138309  0.29557476  1  0  0.520495  0  3.772946  0  0  0.506618  0  4.037594  0  0  0.534169  0  4.041851  0  0  0.117371  0.488315  0  4.033778  0
C  C40  1  0.54365663  0.19861427  0.70442636  1  0  0.520442  0  3.77272  0  0  0.506553  0  4.037386  0  0  0.534104  0  4.041643  0  0  0.117287  0.488256  0  4.033561  0
C  C41  1  0.61234185  0.85514903  0.33370121  1  0  -0.482714  0  3.732023  0  0  -0.500726  0  3.990053  0  0  -0.527355  0  4.011513  0  0  -0.170955  -0.483215  0  3.975129  0
C  C42  1  0.38765469  0.14484962  0.66630040  1  0  -0.482754  0  3.731987  0  0  -0.500774  0  3.990023  0  0  -0.527404  0  4.01148  0  0  -0.17093  -0.483265  0  3.975107  0
C  C43  1  0.70311929  0.78955537  0.44808899  1  0  0.515925  0  3.78662  0  0  0.502231  0  4.052119  0  0  0.529638  0  4.056561  0  0  0.116674  0.484021  0  4.048273  0
C  C44  1  0.29687846  0.21044452  0.55191425  1  0  0.516085  0  3.786506  0  0  0.502418  0  4.051988  0  0  0.529825  0  4.056427  0  0  0.116764  0.48418  0  4.04818  0
C  C45  1  0.85702297  0.87313532  0.47682012  1  0  -0.414988  0  3.677054  0  0  -0.492938  0  3.910311  0  0  -0.499166  0  3.914289  0  0  -0.252436  -0.488434  0  3.907385  0
C  C46  1  0.14297139  0.12686584  0.52318259  1  0  -0.41493  0  3.677131  0  0  -0.492885  0  3.910364  0  0  -0.499117  0  3.914346  0  0  -0.252409  -0.488378  0  3.907443  0
N  N47  1  0.77000106  0.39230846  0.32360308  1  0  -0.304307  0  3.224995  0  0  -0.236632  0  3.496558  0  0  -0.253308  0  3.51288  0  0  -0.310972  -0.225384  0  3.485423  0
N  N48  1  0.23000247  0.60769251  0.67639484  1  0  -0.304331  0  3.224935  0  0  -0.236612  0  3.49646  0  0  -0.253288  0  3.512784  0  0  -0.310948  -0.225355  0  3.48531  0
N  N49  1  0.42299955  0.45622290  0.00797139  1  0  -0.218986  0  3.062275  0  0  -0.184075  0  3.350358  0  0  -0.19536  0  3.370733  0  0  -0.215448  -0.176048  0  3.335772  0
N  N50  1  0.57700179  0.54378053  0.99202359  1  0  -0.218946  0  3.062299  0  0  -0.184029  0  3.350378  0  0  -0.195313  0  3.370752  0  0  -0.215468  -0.176007  0  3.335799  0
O  O51  1  0.66817089  0.66170704  0.53108263  1  0  -0.58768  0  2.044059  0  0  -0.514888  0  2.294285  0  0  -0.542073  0  2.284813  0  0  -0.3074  -0.496288  0  2.300283  0
O  O52  1  0.33183152  0.33828657  0.46891750  1  0  -0.587723  0  2.043915  0  0  -0.514993  0  2.294199  0  0  -0.542177  0  2.284724  0  0  -0.307475  -0.496371  0  2.300204  0
O  O53  1  0.37947907  0.67685739  0.35432664  1  0  -0.578763  0  2.066058  0  0  -0.506031  0  2.313779  0  0  -0.533546  0  2.304259  0  0  -0.300092  -0.486699  0  2.319501  0
O  O54  1  0.62052140  0.32314363  0.64567187  1  0  -0.57874  0  2.065944  0  0  -0.505977  0  2.313656  0  0  -0.533487  0  2.304121  0  0  -0.300025  -0.486645  0  2.319369  0
