# generated using pymatgen
data_TbH12C12N3O11
_symmetry_space_group_name_H-M   'P 1'
_cell_length_a   7.85405633
_cell_length_b   10.29822666
_cell_length_c   10.29600157
_cell_angle_alpha   85.25926978
_cell_angle_beta   82.22195885
_cell_angle_gamma   73.35562937
_symmetry_Int_Tables_number   1
_chemical_formula_structural   TbH12C12N3O11
_chemical_formula_sum   'Tb2 H24 C24 N6 O22'
_cell_volume   789.69201831
_cell_formula_units_Z   2
loop_
 _symmetry_equiv_pos_site_id
 _symmetry_equiv_pos_as_xyz
  1  'x, y, z'
loop_
 _atom_site_type_symbol
 _atom_site_label
 _atom_site_symmetry_multiplicity
 _atom_site_fract_x
 _atom_site_fract_y
 _atom_site_fract_z
 _atom_site_occupancy
 _atom_site_hle17_bader_spin_density
 _atom_site_hle17_ddec_charge
 _atom_site_hle17_ddec_spin_density
 _atom_site_hle17_ddec_sum_bond_order
 _atom_site_hle17_magmom
 _atom_site_hse06_10hf_bader_spin_density
 _atom_site_hse06_10hf_ddec_charge
 _atom_site_hse06_10hf_ddec_spin_density
 _atom_site_hse06_10hf_ddec_sum_bond_order
 _atom_site_hse06_10hf_magmom
 _atom_site_hse06_bader_spin_density
 _atom_site_hse06_ddec_charge
 _atom_site_hse06_ddec_spin_density
 _atom_site_hse06_ddec_sum_bond_order
 _atom_site_hse06_magmom
 _atom_site_pbe_bader_spin_density
 _atom_site_pbe_cm5_charge
 _atom_site_pbe_ddec_charge
 _atom_site_pbe_ddec_spin_density
 _atom_site_pbe_ddec_sum_bond_order
 _atom_site_pbe_magmom
Tb  Tb0  1  0.28792403  0.97234111  0.77750278  1  0  2.257908  0  1.628096  0  0  2.106128  0  2.10395  0  0  2.226404  0  1.921777  0  0  1.496526  2.072283  0  2.134915  0
Tb  Tb1  1  0.71207192  0.02766020  0.22250292  1  0  2.257951  0  1.627981  0  0  2.106241  0  2.103724  0  0  2.226444  0  1.921652  0  0  1.496615  2.072399  0  2.134683  0
H  H2  1  0.00737535  0.05251318  0.58272510  1  0  0.440287  0  0.820867  0  0  0.418303  0  0.881576  0  0  0.427228  0  0.868711  0  0  0.326771  0.412087  0  0.88992  0
H  H3  1  0.99262356  0.94749984  0.41729690  1  0  0.440289  0  0.820903  0  0  0.418304  0  0.881579  0  0  0.42723  0  0.868714  0  0  0.326749  0.41209  0  0.889951  0
H  H4  1  0.99606477  0.93509931  0.69092602  1  0  0.451919  0  0.820297  0  0  0.4261  0  0.88024  0  0  0.437211  0  0.863925  0  0  0.317675  0.41781  0  0.892663  0
H  H5  1  0.00394220  0.06489582  0.30907588  1  0  0.451951  0  0.820246  0  0  0.426139  0  0.880184  0  0  0.437249  0  0.863869  0  0  0.317685  0.417852  0  0.892605  0
H  H6  1  0.89832930  0.98314713  0.90903412  1  0  0.452135  0  0.841608  0  0  0.420609  0  0.905203  0  0  0.43212  0  0.888522  0  0  0.310173  0.412605  0  0.917008  0
H  H7  1  0.10166915  0.01685817  0.09097101  1  0  0.452162  0  0.841588  0  0  0.420623  0  0.905195  0  0  0.432133  0  0.888518  0  0  0.310195  0.412619  0  0.917001  0
H  H8  1  0.02278675  0.83255689  0.91867644  1  0  0.443308  0  0.848079  0  0  0.409099  0  0.919419  0  0  0.420086  0  0.90362  0  0  0.309081  0.401317  0  0.930809  0
H  H9  1  0.97721358  0.16744642  0.08132568  1  0  0.443257  0  0.848143  0  0  0.409049  0  0.919486  0  0  0.420034  0  0.90369  0  0  0.309063  0.401271  0  0.930868  0
H  H10  1  0.21933719  0.30693712  0.63183521  1  0  0.323537  0  0.895309  0  0  0.302819  0  0.960696  0  0  0.312327  0  0.952275  0  0  0.318435  0.296078  0  0.966793  0
H  H11  1  0.78066611  0.69305714  0.36816331  1  0  0.323542  0  0.895139  0  0  0.302811  0  0.960559  0  0  0.312316  0  0.952139  0  0  0.318433  0.296071  0  0.966654  0
H  H12  1  0.81105561  0.46600468  0.98275798  1  0  0.379269  0  0.932056  0  0  0.346888  0  1.013733  0  0  0.359047  0  0.997754  0  0  0.294746  0.338572  0  1.021782  0
H  H13  1  0.18894467  0.53399783  0.01723352  1  0  0.379268  0  0.932149  0  0  0.34688  0  1.013841  0  0  0.359039  0  0.997784  0  0  0.294728  0.338565  0  1.021886  0
H  H14  1  0.29224556  0.71208323  0.90853318  1  0  0.441562  0  0.843573  0  0  0.416169  0  0.895856  0  0  0.426132  0  0.88144  0  0  0.312885  0.40921  0  0.906077  0
H  H15  1  0.70775681  0.28791401  0.09146816  1  0  0.441604  0  0.843517  0  0  0.416216  0  0.895787  0  0  0.426177  0  0.881375  0  0  0.312922  0.40926  0  0.906005  0
H  H16  1  0.43262288  0.65692598  0.77880938  1  0  0.405908  0  0.910469  0  0  0.361667  0  0.993359  0  0  0.374555  0  0.975512  0  0  0.286783  0.35295  0  1.005448  0
H  H17  1  0.56737800  0.34307537  0.22118893  1  0  0.406027  0  0.910332  0  0  0.361768  0  0.993249  0  0  0.374654  0  0.975403  0  0  0.286816  0.35305  0  1.00534  0
H  H18  1  0.52524302  0.61392957  0.16559700  1  0  0.094312  0  0.941183  0  0  0.102567  0  1.003493  0  0  0.106481  0  0.999099  0  0  0.116593  0.099633  0  1.006682  0
H  H19  1  0.47475271  0.38606787  0.83440026  1  0  0.094335  0  0.941114  0  0  0.102567  0  1.003462  0  0  0.106484  0  0.999065  0  0  0.11659  0.099633  0  1.006649  0
H  H20  1  0.35198716  0.34284923  0.43085521  1  0  0.096825  0  0.97418  0  0  0.103156  0  1.040961  0  0  0.107384  0  1.036643  0  0  0.119071  0.100424  0  1.043292  0
H  H21  1  0.64801754  0.65714810  0.56913904  1  0  0.096908  0  0.974155  0  0  0.103156  0  1.041031  0  0  0.107378  0  1.036722  0  0  0.119077  0.100423  0  1.043362  0
H  H22  1  0.16608466  0.76895016  0.51022911  1  0  0.101504  0  0.97747  0  0  0.110608  0  1.043413  0  0  0.114535  0  1.038988  0  0  0.108002  0.107872  0  1.046409  0
H  H23  1  0.83392584  0.23104592  0.48977230  1  0  0.101625  0  0.977345  0  0  0.110701  0  1.043289  0  0  0.114638  0  1.038864  0  0  0.107994  0.107965  0  1.046286  0
H  H24  1  0.34784390  0.81239548  0.29537321  1  0  0.120138  0  0.966742  0  0  0.129619  0  1.023441  0  0  0.134104  0  1.020815  0  0  0.108172  0.126657  0  1.02495  0
H  H25  1  0.65216002  0.18760477  0.70462772  1  0  0.120156  0  0.966709  0  0  0.129601  0  1.023455  0  0  0.134085  0  1.020832  0  0  0.108177  0.126669  0  1.024925  0
C  C26  1  0.94439708  0.55695721  0.78384512  1  0  -0.001213  0  3.759613  0  0  -0.00414  0  4.025072  0  0  -0.005683  0  4.04475  0  0  0.085539  -0.003015  0  4.010959  0
C  C27  1  0.05560127  0.44304017  0.21615280  1  0  -0.001361  0  3.759473  0  0  -0.004162  0  4.024843  0  0  -0.005709  0  4.044509  0  0  0.085533  -0.003021  0  4.01071  0
C  C28  1  0.24061059  0.55339950  0.48706445  1  0  -0.054287  0  3.800791  0  0  -0.032731  0  4.042824  0  0  -0.039429  0  4.066548  0  0  -0.003317  -0.028579  0  4.02631  0
C  C29  1  0.75938897  0.44659790  0.51293138  1  0  -0.054001  0  3.800745  0  0  -0.032526  0  4.042778  0  0  -0.039216  0  4.066502  0  0  -0.003323  -0.028373  0  4.026263  0
C  C30  1  0.54350114  0.92251515  0.50459848  1  0  0.567436  0  3.918159  0  0  0.524571  0  4.212959  0  0  0.55432  0  4.210334  0  0  0.224815  0.504388  0  4.218564  0
C  C31  1  0.45650776  0.07748511  0.49539700  1  0  0.567548  0  3.91799  0  0  0.524619  0  4.212867  0  0  0.554367  0  4.21024  0  0  0.224803  0.504438  0  4.218475  0
C  C32  1  0.43697773  0.97236216  0.05176348  1  0  0.591969  0  3.904886  0  0  0.542325  0  4.208279  0  0  0.573227  0  4.204022  0  0  0.230606  0.520719  0  4.216763  0
C  C33  1  0.56302669  0.02763782  0.94825102  1  0  0.591837  0  3.905082  0  0  0.542131  0  4.208574  0  0  0.573035  0  4.204317  0  0  0.23051  0.520529  0  4.217054  0
C  C34  1  0.00734856  0.29703152  0.86243977  1  0  0.693958  0  3.895567  0  0  0.640739  0  4.195383  0  0  0.676969  0  4.18521  0  0  0.234595  0.616974  0  4.201817  0
C  C35  1  0.99264451  0.70297397  0.13756016  1  0  0.694179  0  3.895297  0  0  0.640765  0  4.195436  0  0  0.676984  0  4.18526  0  0  0.234607  0.616989  0  4.201884  0
C  C36  1  0.44276066  0.60039595  0.25717406  1  0  0.128552  0  3.671941  0  0  0.090219  0  3.935527  0  0  0.098176  0  3.950815  0  0  0.046617  0.085283  0  3.924709  0
C  C37  1  0.55723767  0.39960543  0.74282552  1  0  0.128586  0  3.671964  0  0  0.090262  0  3.935574  0  0  0.098218  0  3.950859  0  0  0.04665  0.085327  0  3.924761  0
C  C38  1  0.80327521  0.63692108  0.88121570  1  0  0.633921  0  3.852271  0  0  0.582627  0  4.163067  0  0  0.615695  0  4.152689  0  0  0.223137  0.560538  0  4.168472  0
C  C39  1  0.19672894  0.36306708  0.11878509  1  0  0.633955  0  3.852583  0  0  0.58255  0  4.163487  0  0  0.615605  0  4.153104  0  0  0.223159  0.560461  0  4.168888  0
C  C40  1  0.34536039  0.44916571  0.40741887  1  0  0.091496  0  3.666873  0  0  0.046996  0  3.926774  0  0  0.053729  0  3.942642  0  0  0.047379  0.043388  0  3.914728  0
C  C41  1  0.65463621  0.55083276  0.59257627  1  0  0.091291  0  3.666874  0  0  0.046859  0  3.92682  0  0  0.053594  0  3.942681  0  0  0.047345  0.043248  0  3.914776  0
C  C42  1  0.13352429  0.52647873  0.60780546  1  0  0.332572  0  3.755591  0  0  0.296705  0  4.035059  0  0  0.310144  0  4.050493  0  0  0.221111  0.288414  0  4.023731  0
C  C43  1  0.86647597  0.47351664  0.39219043  1  0  0.332222  0  3.755678  0  0  0.296475  0  4.034987  0  0  0.309908  0  4.050424  0  0  0.220996  0.288182  0  4.023661  0
C  C44  1  0.02282700  0.41593682  0.77688083  1  0  -0.013463  0  3.701753  0  0  -0.028125  0  3.961618  0  0  -0.031519  0  3.981987  0  0  0.084033  -0.026412  0  3.947321  0
C  C45  1  0.97717637  0.58406056  0.22311260  1  0  -0.01359  0  3.701702  0  0  -0.028248  0  3.961635  0  0  -0.031601  0  3.981948  0  0  0.083929  -0.026544  0  3.947341  0
C  C46  1  0.24162318  0.68691698  0.44708695  1  0  -0.033432  0  3.68314  0  0  -0.063829  0  3.935593  0  0  -0.059921  0  3.952233  0  0  -0.064682  -0.066044  0  3.923699  0
C  C47  1  0.75838886  0.31308211  0.55291406  1  0  -0.033718  0  3.683251  0  0  -0.06406  0  3.935684  0  0  -0.060173  0  3.952342  0  0  -0.064693  -0.06627  0  3.923789  0
C  C48  1  0.34216545  0.71071690  0.33037956  1  0  -0.123102  0  3.723708  0  0  -0.13489  0  3.982791  0  0  -0.142441  0  4.003036  0  0  -0.088426  -0.129875  0  3.968394  0
C  C49  1  0.65784270  0.28928624  0.66962357  1  0  -0.123122  0  3.723883  0  0  -0.134878  0  3.982954  0  0  -0.142427  0  4.003205  0  0  -0.088446  -0.129885  0  3.968544  0
N  N50  1  0.14062948  0.40025506  0.66406988  1  0  -0.330665  0  3.395336  0  0  -0.271525  0  3.626349  0  0  -0.288145  0  3.641675  0  0  -0.360642  -0.260441  0  3.615726  0
N  N51  1  0.85937717  0.59974024  0.33592330  1  0  -0.330552  0  3.395285  0  0  -0.271389  0  3.626213  0  0  -0.288028  0  3.641555  0  0  -0.36052  -0.260306  0  3.615594  0
N  N52  1  0.01483832  0.62278031  0.67860172  1  0  -0.375223  0  2.937948  0  0  -0.355702  0  3.212623  0  0  -0.366715  0  3.224453  0  0  -0.322972  -0.348123  0  3.20405  0
N  N53  1  0.98515705  0.37721416  0.32139288  1  0  -0.375037  0  2.937874  0  0  -0.355564  0  3.212474  0  0  -0.366579  0  3.224311  0  0  -0.322932  -0.347988  0  3.203895  0
N  N54  1  0.44490744  0.47218092  0.29620175  1  0  -0.301833  0  3.204568  0  0  -0.232803  0  3.452537  0  0  -0.248272  0  3.468842  0  0  -0.304131  -0.22237  0  3.44046  0
N  N55  1  0.55508816  0.52782058  0.70379427  1  0  -0.301751  0  3.204487  0  0  -0.232735  0  3.452431  0  0  -0.248203  0  3.468735  0  0  -0.304131  -0.222304  0  3.440353  0
O  O56  1  0.07577870  0.96592962  0.61941026  1  0  -0.875207  0  1.848252  0  0  -0.826574  0  2.034322  0  0  -0.854028  0  1.998345  0  0  -0.604007  -0.813209  0  2.055343  0
O  O57  1  0.92422028  0.03406975  0.38058841  1  0  -0.875245  0  1.848223  0  0  -0.826641  0  2.034295  0  0  -0.85409  0  1.99832  0  0  -0.604015  -0.813277  0  2.055336  0
O  O58  1  0.65709138  0.87261854  0.40890619  1  0  -0.66714  0  2.067295  0  0  -0.619134  0  2.310911  0  0  -0.650885  0  2.299413  0  0  -0.35009  -0.603111  0  2.316968  0
O  O59  1  0.34290194  0.12738682  0.59110051  1  0  -0.667325  0  2.066742  0  0  -0.619295  0  2.310382  0  0  -0.651063  0  2.298884  0  0  -0.350177  -0.603269  0  2.316443  0
O  O60  1  0.47486371  0.95452625  0.16830918  1  0  -0.653296  0  2.050398  0  0  -0.608795  0  2.297616  0  0  -0.642171  0  2.285444  0  0  -0.370306  -0.592879  0  2.30412  0
O  O61  1  0.52513267  0.04547716  0.83169146  1  0  -0.653222  0  2.049966  0  0  -0.608697  0  2.297214  0  0  -0.64209  0  2.285043  0  0  -0.370261  -0.592785  0  2.303722  0
O  O62  1  0.01179024  0.92064311  0.86903987  1  0  -0.927556  0  1.927022  0  0  -0.87234  0  2.132278  0  0  -0.901278  0  2.093052  0  0  -0.631432  -0.857955  0  2.156971  0
O  O63  1  0.98820809  0.07935826  0.13095972  1  0  -0.927562  0  1.927034  0  0  -0.872342  0  2.132325  0  0  -0.901264  0  2.0931  0  0  -0.631441  -0.857982  0  2.157067  0
O  O64  1  0.30421787  0.94854034  0.00998568  1  0  -0.676351  0  2.107288  0  0  -0.620539  0  2.350257  0  0  -0.653328  0  2.336985  0  0  -0.359757  -0.603479  0  2.357694  0
O  O65  1  0.69577538  0.05145393  0.99002182  1  0  -0.676334  0  2.107836  0  0  -0.620536  0  2.350864  0  0  -0.65331  0  2.337587  0  0  -0.359812  -0.603482  0  2.358302  0
O  O66  1  0.49401760  0.85895587  0.60592866  1  0  -0.634181  0  2.067207  0  0  -0.583561  0  2.31035  0  0  -0.617233  0  2.300851  0  0  -0.361336  -0.567242  0  2.314756  0
O  O67  1  0.50597799  0.14103931  0.39408140  1  0  -0.634131  0  2.067662  0  0  -0.583503  0  2.310821  0  0  -0.617157  0  2.301318  0  0  -0.361302  -0.567187  0  2.315229  0
O  O68  1  0.90669995  0.31672519  0.97194242  1  0  -0.630976  0  2.046069  0  0  -0.560471  0  2.255322  0  0  -0.586644  0  2.243754  0  0  -0.291794  -0.542547  0  2.261276  0
O  O69  1  0.09329729  0.68328641  0.02805074  1  0  -0.631023  0  2.045716  0  0  -0.560488  0  2.255096  0  0  -0.586671  0  2.243525  0  0  -0.291739  -0.542536  0  2.261034  0
O  O70  1  0.74342567  0.76038367  0.86766420  1  0  -0.522825  0  1.939497  0  0  -0.490997  0  2.170388  0  0  -0.510908  0  2.162875  0  0  -0.277294  -0.477316  0  2.176121  0
O  O71  1  0.25656368  0.23963210  0.13232864  1  0  -0.522508  0  1.940047  0  0  -0.49076  0  2.171171  0  0  -0.510662  0  2.163658  0  0  -0.277188  -0.477081  0  2.176904  0
O  O72  1  0.09746912  0.18043452  0.82469494  1  0  -0.743594  0  2.057339  0  0  -0.690154  0  2.323832  0  0  -0.726472  0  2.305989  0  0  -0.419606  -0.673123  0  2.331867  0
O  O73  1  0.90252350  0.81956092  0.17530477  1  0  -0.743645  0  2.057571  0  0  -0.690109  0  2.324077  0  0  -0.726409  0  2.306238  0  0  -0.419615  -0.673083  0  2.332123  0
O  O74  1  0.74448125  0.56779015  0.98525898  1  0  -0.558236  0  2.090599  0  0  -0.512444  0  2.316261  0  0  -0.534059  0  2.298276  0  0  -0.343095  -0.49728  0  2.325033  0
O  O75  1  0.25551009  0.43221244  0.01473650  1  0  -0.55843  0  2.090422  0  0  -0.512555  0  2.316053  0  0  -0.534198  0  2.298075  0  0  -0.343192  -0.497399  0  2.324827  0
O  O76  1  0.34920044  0.74189583  0.82559383  1  0  -0.925968  0  1.902239  0  0  -0.869118  0  2.115102  0  0  -0.900658  0  2.076588  0  0  -0.669796  -0.854156  0  2.137275  0
O  O77  1  0.65079796  0.25810550  0.17440769  1  0  -0.926109  0  1.902084  0  0  -0.869278  0  2.114994  0  0  -0.900806  0  2.076489  0  0  -0.669851  -0.854316  0  2.13717  0
