# generated using pymatgen
data_CdH6C9N3Cl2
_symmetry_space_group_name_H-M   'P 1'
_cell_length_a   7.16381234
_cell_length_b   9.05680671
_cell_length_c   8.56357405
_cell_angle_alpha   112.51635167
_cell_angle_beta   95.05554238
_cell_angle_gamma   95.55655820
_symmetry_Int_Tables_number   1
_chemical_formula_structural   CdH6C9N3Cl2
_chemical_formula_sum   'Cd2 H12 C18 N6 Cl4'
_cell_volume   506.09080315
_cell_formula_units_Z   2
loop_
 _symmetry_equiv_pos_site_id
 _symmetry_equiv_pos_as_xyz
  1  'x, y, z'
loop_
 _atom_site_type_symbol
 _atom_site_label
 _atom_site_symmetry_multiplicity
 _atom_site_fract_x
 _atom_site_fract_y
 _atom_site_fract_z
 _atom_site_occupancy
 _atom_site_pbe_bader_spin_density
 _atom_site_pbe_cm5_charge
 _atom_site_pbe_ddec_charge
 _atom_site_pbe_ddec_spin_density
 _atom_site_pbe_ddec_sum_bond_order
 _atom_site_pbe_magmom
Cd  Cd0  1  0.23168547  0.40842999  0.97631324  1  0  0.605325  0.771926  0  2.40747  0
Cd  Cd1  1  0.76831375  0.59157327  0.02368297  1  0  0.605288  0.771859  0  2.407552  0
H  H2  1  0.02428179  0.74589950  0.76501739  1  0  0.113799  0.102459  0  1.00619  0
H  H3  1  0.97571702  0.25409322  0.23497885  1  0  0.113747  0.102373  0  1.006188  0
H  H4  1  0.38097903  0.40881065  0.61106804  1  0  0.094109  0.115697  0  1.037938  0
H  H5  1  0.61902252  0.59118895  0.38894118  1  0  0.094123  0.115684  0  1.037869  0
H  H6  1  0.47552924  0.31072672  0.31592641  1  0  0.081974  0.099874  0  1.066624  0
H  H7  1  0.52447184  0.68927852  0.68407994  1  0  0.081952  0.099897  0  1.06663  0
H  H8  1  0.43640552  0.02037878  0.13414493  1  0  0.090022  0.092826  0  1.021725  0
H  H9  1  0.56359005  0.97962732  0.86585666  1  0  0.089976  0.092817  0  1.021672  0
H  H10  1  0.29724059  0.81344761  0.23101859  1  0  0.086833  0.115153  0  1.065009  0
H  H11  1  0.70276444  0.18655682  0.76897837  1  0  0.086819  0.115144  0  1.064966  0
H  H12  1  0.14453752  0.79745805  0.52668807  1  0  0.322129  0.304269  0  0.916539  0
H  H13  1  0.85546772  0.20253944  0.47331014  1  0  0.322091  0.304194  0  0.916668  0
C  C14  1  0.01445219  0.86079119  0.86863798  1  0  0.068148  0.050735  0  3.897706  0
C  C15  1  0.98554365  0.13920106  0.13135205  1  0  0.068245  0.050855  0  3.897605  0
C  C16  1  0.08096011  0.01171707  0.86722878  1  0  0.12952  0.105215  0  3.99897  0
C  C17  1  0.91903708  0.98827445  0.13276696  1  0  0.129526  0.105124  0  3.999128  0
C  C18  1  0.16265983  0.03489176  0.72710581  1  0  0.227325  0.269409  0  4.016546  0
C  C19  1  0.83734112  0.96510546  0.27288853  1  0  0.227312  0.269529  0  4.016459  0
C  C20  1  0.28619074  0.16418614  0.58345497  1  0  0.089159  0.145486  0  4.061167  0
C  C21  1  0.71381159  0.83581046  0.41654628  1  0  0.089175  0.145534  0  4.060932  0
C  C22  1  0.36323304  0.28093400  0.52810948  1  0  -0.095658  -0.14954  0  3.96059  0
C  C23  1  0.63676901  0.71906882  0.47189614  1  0  -0.095615  -0.149384  0  3.960536  0
C  C24  1  0.41546516  0.22526269  0.36560743  1  0  -0.106111  -0.097152  0  4.017688  0
C  C25  1  0.58453565  0.77474115  0.63439610  1  0  -0.10618  -0.097355  0  4.017638  0
C  C26  1  0.39231952  0.05858790  0.26075541  1  0  -0.101459  -0.078471  0  4.009203  0
C  C27  1  0.60767866  0.94141707  0.73924715  1  0  -0.10134  -0.078411  0  4.009012  0
C  C28  1  0.31479498  0.94118396  0.31312791  1  0  -0.102675  -0.171433  0  3.978374  0
C  C29  1  0.68520423  0.05881931  0.68686830  1  0  -0.102671  -0.171373  0  3.978252  0
C  C30  1  0.26104425  0.99709840  0.47658679  1  0  0.098585  0.154023  0  3.994172  0
C  C31  1  0.73895424  0.00290044  0.52341261  1  0  0.098557  0.154008  0  3.994013  0
N  N32  1  0.22440838  0.18225293  0.73616102  1  0  -0.350015  -0.355989  0  3.483715  0
N  N33  1  0.77559224  0.81774218  0.26383612  1  0  -0.35  -0.356035  0  3.483554  0
N  N34  1  0.18149570  0.91952674  0.57122258  1  0  -0.365104  -0.290429  0  3.574058  0
N  N35  1  0.81850449  0.08046597  0.42877374  1  0  -0.365084  -0.29043  0  3.574105  0
N  N36  1  0.93441169  0.85089759  0.99909112  1  0  -0.291801  -0.218568  0  3.422532  0
N  N37  1  0.06558294  0.14909526  0.00090606  1  0  -0.291839  -0.218634  0  3.42238  0
Cl  Cl38  1  0.42039083  0.64427735  0.92941351  1  0  -0.286712  -0.472762  0  1.308991  0
Cl  Cl39  1  0.57960437  0.35573468  0.07058883  1  0  -0.286688  -0.472721  0  1.308997  0
Cl  Cl40  1  0.07912642  0.55271871  0.23733464  1  0  -0.307398  -0.492701  0  1.222307  0
Cl  Cl41  1  0.92087709  0.44728481  0.76266544  1  0  -0.307388  -0.492705  0  1.222382  0
