# generated using pymatgen
data_KH6C6S2NO5
_symmetry_space_group_name_H-M   'P 1'
_cell_length_a   6.87114645
_cell_length_b   11.49606280
_cell_length_c   13.03014498
_cell_angle_alpha   90.00009197
_cell_angle_beta   89.99990194
_cell_angle_gamma   106.47440762
_symmetry_Int_Tables_number   1
_chemical_formula_structural   KH6C6S2NO5
_chemical_formula_sum   'K4 H24 C24 S8 N4 O20'
_cell_volume   987.01092458
_cell_formula_units_Z   4
loop_
 _symmetry_equiv_pos_site_id
 _symmetry_equiv_pos_as_xyz
  1  'x, y, z'
loop_
 _atom_site_type_symbol
 _atom_site_label
 _atom_site_symmetry_multiplicity
 _atom_site_fract_x
 _atom_site_fract_y
 _atom_site_fract_z
 _atom_site_occupancy
 _atom_site_hle17_bader_spin_density
 _atom_site_hle17_ddec_charge
 _atom_site_hle17_ddec_spin_density
 _atom_site_hle17_ddec_sum_bond_order
 _atom_site_hle17_magmom
 _atom_site_hse06_10hf_bader_spin_density
 _atom_site_hse06_10hf_ddec_charge
 _atom_site_hse06_10hf_ddec_spin_density
 _atom_site_hse06_10hf_ddec_sum_bond_order
 _atom_site_hse06_10hf_magmom
 _atom_site_hse06_bader_spin_density
 _atom_site_hse06_ddec_charge
 _atom_site_hse06_ddec_spin_density
 _atom_site_hse06_ddec_sum_bond_order
 _atom_site_hse06_magmom
 _atom_site_pbe_bader_spin_density
 _atom_site_pbe_cm5_charge
 _atom_site_pbe_ddec_charge
 _atom_site_pbe_ddec_spin_density
 _atom_site_pbe_ddec_sum_bond_order
 _atom_site_pbe_magmom
K  K0  1  0.18616434  0.49162848  0.64073373  1  0  0.937684  0  0.449859  0  0  0.89523  0  0.632974  0  0  0.907636  0  0.610944  0  0  0.789559  0.885823  0  0.648807  0
K  K1  1  0.68616648  0.49162806  0.85926523  1  0  0.937682  0  0.449854  0  0  0.895213  0  0.632997  0  0  0.907619  0  0.610968  0  0  0.78955  0.885805  0  0.648831  0
K  K2  1  0.81383747  0.50837079  0.35926767  1  0  0.937675  0  0.449854  0  0  0.895208  0  0.632987  0  0  0.90761  0  0.610958  0  0  0.789545  0.885801  0  0.648823  0
K  K3  1  0.31383679  0.50837121  0.14073388  1  0  0.93769  0  0.44984  0  0  0.895231  0  0.632966  0  0  0.907634  0  0.610938  0  0  0.789558  0.885823  0  0.6488  0
H  H4  1  0.22399271  0.28237132  0.81059660  1  0  0.412834  0  0.887929  0  0  0.386801  0  0.944388  0  0  0.395913  0  0.930874  0  0  0.292569  0.380382  0  0.953898  0
H  H5  1  0.72399281  0.28237157  0.68940356  1  0  0.412804  0  0.88798  0  0  0.386782  0  0.944417  0  0  0.395891  0  0.930908  0  0  0.292571  0.380367  0  0.953924  0
H  H6  1  0.77600909  0.71762794  0.18940327  1  0  0.412788  0  0.887999  0  0  0.386762  0  0.944444  0  0  0.39587  0  0.930935  0  0  0.292558  0.380346  0  0.953951  0
H  H7  1  0.27600797  0.71762860  0.31059631  1  0  0.412819  0  0.887952  0  0  0.386782  0  0.944418  0  0  0.395891  0  0.930908  0  0  0.292559  0.380363  0  0.953927  0
H  H8  1  0.37468711  0.28155319  0.72000046  1  0  0.409752  0  0.895887  0  0  0.381902  0  0.956375  0  0  0.391075  0  0.942777  0  0  0.289409  0.375436  0  0.965953  0
H  H9  1  0.87468654  0.28155266  0.77999957  1  0  0.409653  0  0.895987  0  0  0.381805  0  0.956476  0  0  0.39098  0  0.942875  0  0  0.289343  0.375339  0  0.966055  0
H  H10  1  0.62531513  0.71844698  0.27999941  1  0  0.409661  0  0.895976  0  0  0.381809  0  0.95647  0  0  0.390982  0  0.942874  0  0  0.289342  0.375343  0  0.96605  0
H  H11  1  0.12531527  0.71844661  0.22000031  1  0  0.409673  0  0.895953  0  0  0.381821  0  0.956449  0  0  0.390994  0  0.942851  0  0  0.289344  0.375355  0  0.966028  0
H  H12  1  0.31787304  0.95635130  0.48484241  1  0  0.108268  0  0.967001  0  0  0.115801  0  1.032536  0  0  0.119196  0  1.030511  0  0  0.106452  0.113262  0  1.03414  0
H  H13  1  0.81787546  0.95635222  0.01515747  1  0  0.108259  0  0.967003  0  0  0.115794  0  1.032542  0  0  0.119189  0  1.030515  0  0  0.106447  0.113255  0  1.034146  0
H  H14  1  0.68212440  0.04364796  0.51515669  1  0  0.108249  0  0.966988  0  0  0.115787  0  1.032523  0  0  0.119189  0  1.030487  0  0  0.106438  0.113237  0  1.034139  0
H  H15  1  0.18212532  0.04364795  0.98484241  1  0  0.108258  0  0.967001  0  0  0.115791  0  1.032543  0  0  0.119186  0  1.030515  0  0  0.106455  0.113252  0  1.034148  0
H  H16  1  0.03596743  0.84694367  0.37176084  1  0  0.09832  0  0.941318  0  0  0.108649  0  1.001024  0  0  0.112535  0  0.998162  0  0  0.111392  0.105772  0  1.003316  0
H  H17  1  0.53596957  0.84694474  0.12823914  1  0  0.098318  0  0.941338  0  0  0.108644  0  1.001045  0  0  0.11253  0  0.998187  0  0  0.111395  0.105768  0  1.003337  0
H  H18  1  0.96403146  0.15305560  0.62823903  1  0  0.098319  0  0.941321  0  0  0.108648  0  1.001024  0  0  0.112536  0  0.99816  0  0  0.111395  0.105772  0  1.003316  0
H  H19  1  0.46403121  0.15305543  0.87176073  1  0  0.098314  0  0.941337  0  0  0.108645  0  1.001036  0  0  0.112534  0  0.998173  0  0  0.111395  0.105769  0  1.003328  0
H  H20  1  0.83769544  0.95900175  0.27289673  1  0  0.093335  0  0.973868  0  0  0.102096  0  1.037975  0  0  0.104524  0  1.037741  0  0  0.101985  0.100315  0  1.038289  0
H  H21  1  0.33769411  0.95900138  0.22710314  1  0  0.093326  0  0.9738  0  0  0.102095  0  1.0379  0  0  0.104523  0  1.037667  0  0  0.101998  0.100315  0  1.038213  0
H  H22  1  0.16230242  0.04099842  0.72710315  1  0  0.093304  0  0.973898  0  0  0.102074  0  1.037995  0  0  0.1045  0  1.037763  0  0  0.101996  0.100293  0  1.038308  0
H  H23  1  0.66230376  0.04099879  0.77289673  1  0  0.093331  0  0.973867  0  0  0.102092  0  1.037971  0  0  0.104521  0  1.037734  0  0  0.101987  0.100311  0  1.038284  0
H  H24  1  0.92139270  0.18491878  0.28460437  1  0  0.114672  0  0.940887  0  0  0.123147  0  1.001924  0  0  0.126367  0  1.000553  0  0  0.115703  0.120786  0  1.003097  0
H  H25  1  0.42139183  0.18491931  0.21539509  1  0  0.114652  0  0.940981  0  0  0.123136  0  1.002011  0  0  0.126348  0  1.00065  0  0  0.115693  0.120774  0  1.003183  0
H  H26  1  0.07860808  0.81508139  0.71539473  1  0  0.114653  0  0.940908  0  0  0.123128  0  1.00195  0  0  0.126348  0  1.000578  0  0  0.115694  0.120766  0  1.003123  0
H  H27  1  0.57860895  0.81508087  0.78460478  1  0  0.114669  0  0.940889  0  0  0.123134  0  1.001942  0  0  0.126338  0  1.00059  0  0  0.115683  0.120772  0  1.003114  0
C  C28  1  0.16803344  0.19524197  0.39058589  1  0  -0.121501  0  3.756226  0  0  -0.103819  0  3.997449  0  0  -0.108248  0  4.018684  0  0  -0.007263  -0.100903  0  3.983329  0
C  C29  1  0.66803416  0.19524302  0.10941458  1  0  -0.121533  0  3.756243  0  0  -0.103849  0  3.997464  0  0  -0.108277  0  4.018697  0  0  -0.007272  -0.100932  0  3.983343  0
C  C30  1  0.83196546  0.80475729  0.60941398  1  0  -0.121524  0  3.756229  0  0  -0.103834  0  3.997441  0  0  -0.108263  0  4.018674  0  0  -0.007244  -0.100916  0  3.983319  0
C  C31  1  0.33196516  0.80475715  0.89058529  1  0  -0.121512  0  3.756253  0  0  -0.103824  0  3.997478  0  0  -0.10825  0  4.018705  0  0  -0.007264  -0.100908  0  3.983358  0
C  C32  1  0.27927472  0.13224311  0.44590905  1  0  -0.138022  0  3.792027  0  0  -0.118746  0  4.035914  0  0  -0.124607  0  4.059652  0  0  -0.014731  -0.114976  0  4.020141  0
C  C33  1  0.77927559  0.13224408  0.05409123  1  0  -0.137972  0  3.791975  0  0  -0.11868  0  4.03584  0  0  -0.124537  0  4.059574  0  0  -0.014729  -0.11491  0  4.020068  0
C  C34  1  0.72072460  0.86775706  0.55409082  1  0  -0.137989  0  3.792007  0  0  -0.118713  0  4.035893  0  0  -0.12457  0  4.059627  0  0  -0.014724  -0.114942  0  4.020114  0
C  C35  1  0.22072519  0.86775609  0.94590864  1  0  -0.137967  0  3.791997  0  0  -0.118696  0  4.035896  0  0  -0.124555  0  4.059632  0  0  -0.014709  -0.114927  0  4.020123  0
C  C36  1  0.23528760  0.00669697  0.44008633  1  0  -0.045067  0  3.716224  0  0  -0.070874  0  3.967937  0  0  -0.071134  0  3.988011  0  0  -0.075254  -0.070556  0  3.954463  0
C  C37  1  0.73528991  0.00669795  0.05991382  1  0  -0.04507  0  3.716168  0  0  -0.070889  0  3.967885  0  0  -0.071151  0  3.98796  0  0  -0.075257  -0.070571  0  3.95441  0
C  C38  1  0.76470984  0.99330230  0.55991354  1  0  -0.045065  0  3.716179  0  0  -0.070884  0  3.967894  0  0  -0.071149  0  3.987961  0  0  -0.075266  -0.070559  0  3.954425  0
C  C39  1  0.26471087  0.99330222  0.94008606  1  0  -0.045073  0  3.716185  0  0  -0.070885  0  3.967909  0  0  -0.071146  0  3.987982  0  0  -0.075304  -0.070568  0  3.954434  0
C  C40  1  0.07482157  0.94555085  0.37670328  1  0  -0.046353  0  3.702022  0  0  -0.062126  0  3.957544  0  0  -0.063237  0  3.975914  0  0  -0.075565  -0.061382  0  3.945185  0
C  C41  1  0.57482183  0.94555101  0.12329681  1  0  -0.046344  0  3.701955  0  0  -0.062109  0  3.957475  0  0  -0.06322  0  3.975842  0  0  -0.07555  -0.061365  0  3.945116  0
C  C42  1  0.92517775  0.05444932  0.62329660  1  0  -0.046353  0  3.701986  0  0  -0.06212  0  3.957506  0  0  -0.063232  0  3.975876  0  0  -0.075567  -0.061377  0  3.945145  0
C  C43  1  0.42517749  0.05444916  0.87670306  1  0  -0.046341  0  3.702011  0  0  -0.062114  0  3.957535  0  0  -0.063224  0  3.975902  0  0  -0.075551  -0.061371  0  3.945176  0
C  C44  1  0.96329133  0.00873639  0.32084865  1  0  -0.040847  0  3.690957  0  0  -0.058303  0  3.945229  0  0  -0.058917  0  3.964185  0  0  -0.075261  -0.057865  0  3.932427  0
C  C45  1  0.46329055  0.00873687  0.17915129  1  0  -0.040863  0  3.690889  0  0  -0.058328  0  3.945186  0  0  -0.05894  0  3.964138  0  0  -0.075327  -0.057889  0  3.932384  0
C  C46  1  0.03670799  0.99126378  0.67915046  1  0  -0.040834  0  3.691024  0  0  -0.058299  0  3.945309  0  0  -0.058914  0  3.964267  0  0  -0.075285  -0.057862  0  3.932508  0
C  C47  1  0.53670920  0.99126421  0.82084858  1  0  -0.040842  0  3.691049  0  0  -0.058289  0  3.945317  0  0  -0.058903  0  3.964269  0  0  -0.075268  -0.057852  0  3.932514  0
C  C48  1  0.00874405  0.13508804  0.32684373  1  0  -0.03029  0  3.673203  0  0  -0.052834  0  3.920142  0  0  -0.052138  0  3.937426  0  0  -0.066431  -0.053311  0  3.908554  0
C  C49  1  0.50874272  0.13508827  0.17315680  1  0  -0.030249  0  3.673285  0  0  -0.052805  0  3.920233  0  0  -0.052105  0  3.937521  0  0  -0.066372  -0.053286  0  3.908653  0
C  C50  1  0.99125528  0.86491213  0.67315614  1  0  -0.030238  0  3.673202  0  0  -0.052786  0  3.920138  0  0  -0.052092  0  3.937424  0  0  -0.066409  -0.053264  0  3.908548  0
C  C51  1  0.49125703  0.86491281  0.82684307  1  0  -0.03031  0  3.673285  0  0  -0.052851  0  3.920228  0  0  -0.052144  0  3.937519  0  0  -0.066403  -0.053328  0  3.908638  0
S  S52  1  0.27178150  0.35494939  0.40698102  1  0  1.247209  0  5.515233  0  0  1.167668  0  6.02297  0  0  1.212003  0  6.005335  0  0  0.543192  1.137053  0  6.034332  0
S  S53  1  0.77178227  0.35495041  0.09301882  1  0  1.247248  0  5.515337  0  0  1.167711  0  6.023065  0  0  1.212038  0  6.005436  0  0  0.543203  1.137091  0  6.034433  0
S  S54  1  0.72821637  0.64505079  0.59301885  1  0  1.247218  0  5.515294  0  0  1.16767  0  6.023035  0  0  1.212002  0  6.005401  0  0  0.543169  1.137052  0  6.034395  0
S  S55  1  0.22821851  0.64504976  0.90698105  1  0  1.247237  0  5.51534  0  0  1.167697  0  6.023066  0  0  1.212029  0  6.005433  0  0  0.543189  1.13708  0  6.034433  0
S  S56  1  0.48222667  0.23417121  0.51407711  1  0  1.230409  0  5.488085  0  0  1.144671  0  5.994561  0  0  1.189182  0  5.977518  0  0  0.558376  1.114042  0  6.005418  0
S  S57  1  0.98222601  0.23417187  0.98592275  1  0  1.230267  0  5.488056  0  0  1.144534  0  5.99454  0  0  1.189046  0  5.977496  0  0  0.558283  1.113903  0  6.005399  0
S  S58  1  0.51777222  0.76582806  0.48592276  1  0  1.230419  0  5.488033  0  0  1.144669  0  5.994514  0  0  1.189177  0  5.977476  0  0  0.558377  1.114039  0  6.005366  0
S  S59  1  0.01777332  0.76582830  0.01407712  1  0  1.230253  0  5.488114  0  0  1.1445  0  5.994605  0  0  1.18901  0  5.977567  0  0  0.558315  1.113872  0  6.00546  0
N  N60  1  0.41316388  0.35529090  0.50534057  1  0  -0.787151  0  2.889848  0  0  -0.749134  0  3.212406  0  0  -0.770219  0  3.205604  0  0  -0.462311  -0.734436  0  3.216395  0
N  N61  1  0.91316610  0.35529158  0.99465953  1  0  -0.787106  0  2.889833  0  0  -0.749089  0  3.212389  0  0  -0.770163  0  3.20558  0  0  -0.462301  -0.734394  0  3.216395  0
N  N62  1  0.58683502  0.64470836  0.49465931  1  0  -0.787127  0  2.889859  0  0  -0.749071  0  3.212356  0  0  -0.770153  0  3.205552  0  0  -0.462293  -0.734395  0  3.2164  0
N  N63  1  0.08683468  0.64470860  0.00533958  1  0  -0.787118  0  2.889796  0  0  -0.7491  0  3.212368  0  0  -0.770188  0  3.205577  0  0  -0.462317  -0.734403  0  3.21636  0
O  O64  1  0.11862757  0.41444373  0.43405374  1  0  -0.640147  0  1.961834  0  0  -0.598597  0  2.210389  0  0  -0.618327  0  2.197406  0  0  -0.398305  -0.584738  0  2.218965  0
O  O65  1  0.61862755  0.41444290  0.06594556  1  0  -0.640158  0  1.961915  0  0  -0.598607  0  2.210462  0  0  -0.618337  0  2.197482  0  0  -0.398288  -0.584746  0  2.21904  0
O  O66  1  0.88137175  0.58555644  0.56594690  1  0  -0.640141  0  1.961841  0  0  -0.598595  0  2.210387  0  0  -0.618323  0  2.197406  0  0  -0.398286  -0.584733  0  2.218963  0
O  O67  1  0.38137323  0.58555727  0.93405432  1  0  -0.640144  0  1.961929  0  0  -0.598586  0  2.210478  0  0  -0.618315  0  2.197496  0  0  -0.398272  -0.584726  0  2.219055  0
O  O68  1  0.38766252  0.39971270  0.31391143  1  0  -0.677752  0  1.957814  0  0  -0.633665  0  2.209448  0  0  -0.654563  0  2.196817  0  0  -0.421287  -0.618812  0  2.217668  0
O  O69  1  0.88765868  0.39971385  0.18608837  1  0  -0.677774  0  1.95785  0  0  -0.633688  0  2.20948  0  0  -0.654584  0  2.196851  0  0  -0.421298  -0.618841  0  2.217722  0
O  O70  1  0.61233783  0.60028656  0.68608921  1  0  -0.677765  0  1.957807  0  0  -0.63368  0  2.209443  0  0  -0.654576  0  2.19681  0  0  -0.421295  -0.618822  0  2.217658  0
O  O71  1  0.11234065  0.60028632  0.81391150  1  0  -0.677779  0  1.957851  0  0  -0.633694  0  2.20948  0  0  -0.654591  0  2.196852  0  0  -0.421308  -0.618849  0  2.217722  0
O  O72  1  0.48006436  0.19915426  0.62280420  1  0  -0.635777  0  1.979306  0  0  -0.570527  0  2.208286  0  0  -0.592982  0  2.196471  0  0  -0.30693  -0.554733  0  2.216  0
O  O73  1  0.98006355  0.19915386  0.87719485  1  0  -0.635726  0  1.979295  0  0  -0.570493  0  2.208292  0  0  -0.592959  0  2.196488  0  0  -0.306854  -0.554696  0  2.216001  0
O  O74  1  0.51993453  0.80084501  0.37719567  1  0  -0.635827  0  1.979284  0  0  -0.570551  0  2.208255  0  0  -0.593009  0  2.196443  0  0  -0.306946  -0.554755  0  2.215966  0
O  O75  1  0.01993535  0.80084540  0.12280502  1  0  -0.635716  0  1.979268  0  0  -0.570441  0  2.208251  0  0  -0.592899  0  2.196442  0  0  -0.306862  -0.554646  0  2.215961  0
O  O76  1  0.67094795  0.23874784  0.46132397  1  0  -0.608282  0  1.911408  0  0  -0.566579  0  2.15044  0  0  -0.587378  0  2.140346  0  0  -0.318692  -0.551818  0  2.156826  0
O  O77  1  0.17094856  0.23874721  0.03867503  1  0  -0.608251  0  1.911345  0  0  -0.566541  0  2.150369  0  0  -0.58734  0  2.140271  0  0  -0.318687  -0.551782  0  2.156758  0
O  O78  1  0.32905095  0.76125143  0.53867590  1  0  -0.608282  0  1.911435  0  0  -0.566581  0  2.150468  0  0  -0.587381  0  2.140374  0  0  -0.318683  -0.551821  0  2.156853  0
O  O79  1  0.82905180  0.76125205  0.96132408  1  0  -0.608229  0  1.911411  0  0  -0.56653  0  2.150454  0  0  -0.587328  0  2.140359  0  0  -0.318689  -0.551771  0  2.156842  0
O  O80  1  0.33922373  0.33391923  0.77211198  1  0  -0.88129  0  1.773015  0  0  -0.840758  0  1.927602  0  0  -0.856677  0  1.898952  0  0  -0.686603  -0.829325  0  1.947618  0
O  O81  1  0.83922329  0.33391863  0.72788738  1  0  -0.881174  0  1.773149  0  0  -0.840649  0  1.927734  0  0  -0.856566  0  1.899082  0  0  -0.686548  -0.82922  0  1.94774  0
O  O82  1  0.66077808  0.66608004  0.22788712  1  0  -0.881154  0  1.773126  0  0  -0.840634  0  1.927733  0  0  -0.856543  0  1.899072  0  0  -0.686526  -0.829205  0  1.947739  0
O  O83  1  0.16077851  0.66608064  0.27211249  1  0  -0.881199  0  1.773066  0  0  -0.84068  0  1.927681  0  0  -0.856588  0  1.899014  0  0  -0.68653  -0.829246  0  1.947698  0
