# generated using pymatgen
data_AlC21N3(OF2)6
_symmetry_space_group_name_H-M   'P 1'
_cell_length_a   3.97415590
_cell_length_b   28.14152379
_cell_length_c   28.14177739
_cell_angle_alpha   120.00003971
_cell_angle_beta   89.99983486
_cell_angle_gamma   89.99982857
_symmetry_Int_Tables_number   1
_chemical_formula_structural   AlC21N3(OF2)6
_chemical_formula_sum   'Al2 C42 N6 O12 F24'
_cell_volume   2725.67763397
_cell_formula_units_Z   2
loop_
 _symmetry_equiv_pos_site_id
 _symmetry_equiv_pos_as_xyz
  1  'x, y, z'
loop_
 _atom_site_type_symbol
 _atom_site_label
 _atom_site_symmetry_multiplicity
 _atom_site_fract_x
 _atom_site_fract_y
 _atom_site_fract_z
 _atom_site_occupancy
 _atom_site_pbe_bader_charge
 _atom_site_pbe_bader_spin_density
 _atom_site_pbe_cm5_charge
 _atom_site_pbe_ddec_charge
 _atom_site_pbe_ddec_spin_density
 _atom_site_pbe_ddec_sum_bond_order
 _atom_site_pbe_magmom
Al  Al0  1  0.99795765  0.49999594  0.49999989  1  2.504767  0  0.431927  1.592557  0  2.583604  0
Al  Al1  1  0.99796329  0.16666611  0.83333580  1  2.504729  0  0.431895  1.592626  0  2.583566  0
C  C2  1  0.49876606  0.46250836  0.41627076  1  1.69562  0  0.287582  0.701354  0  4.042296  0
C  C3  1  0.49879019  0.45375114  0.53748651  1  1.62097  0  0.287804  0.701641  0  4.042209  0
C  C4  1  0.49877607  0.58372730  0.54624184  1  1.61595  0  0.287846  0.701881  0  4.042085  0
C  C5  1  0.49878794  0.21290943  0.79584936  1  1.62145  0  0.287907  0.701966  0  4.041994  0
C  C6  1  0.49875928  0.08293414  0.78709245  1  1.616303  0  0.287795  0.70186  0  4.041795  0
C  C7  1  0.49877684  0.20415431  0.91706516  1  1.695622  0  0.287835  0.70179  0  4.041909  0
C  C8  1  0.50076310  0.24600468  0.76762147  1  0.024543  0  -0.018279  -0.214391  0  4.000986  0
C  C9  1  0.49453870  0.22014454  0.71027137  1  0.644871  0  0.094813  0.159966  0  4.094731  0
C  C10  1  0.49784247  0.25002921  0.68302388  1  0.569431  0  0.10122  0.122787  0  4.056987  0
C  C11  1  0.50027476  0.30824792  0.71298296  1  0.615001  0  0.07937  -0.01459  0  4.079958  0
C  C12  1  0.50314750  0.33386436  0.77099820  1  0.543322  0  0.103912  0.122728  0  4.06714  0
C  C13  1  0.50719877  0.30332852  0.79753872  1  0.531767  0  0.094906  0.159372  0  4.099902  0
C  C14  1  0.50316204  0.33280180  0.56234203  1  0.543188  0  0.103892  0.122789  0  4.067302  0
C  C15  1  0.50028010  0.35841569  0.62035555  1  0.614627  0  0.079579  -0.014438  0  4.079768  0
C  C16  1  0.49783085  0.41663326  0.65030938  1  0.568932  0  0.101125  0.122673  0  4.056645  0
C  C17  1  0.49453448  0.44651844  0.62306281  1  0.644921  0  0.094864  0.159952  0  4.094809  0
C  C18  1  0.50076807  0.42065792  0.56571521  1  0.025008  0  -0.018298  -0.214203  0  4.001419  0
C  C19  1  0.50721061  0.36333642  0.53579988  1  0.53158  0  0.094993  0.15936  0  4.10007  0
C  C20  1  0.50077327  0.02161274  0.75399335  1  -2.6e-05  0  -0.018271  -0.214344  0  4.001197  0
C  C21  1  0.49453450  0.99012346  0.77985273  1  0.558703  0  0.094763  0.159913  0  4.094849  0
C  C22  1  0.49782165  0.93299508  0.74996886  1  0.659196  0  0.101089  0.122616  0  4.056813  0
C  C23  1  0.50027586  0.90472886  0.69175138  1  0.476118  0  0.079491  -0.014525  0  4.079744  0
C  C24  1  0.50315685  0.93712833  0.66613526  1  0.731684  0  0.103958  0.122877  0  4.067168  0
C  C25  1  0.50720207  0.99420370  0.69666982  1  0.550569  0  0.094919  0.159336  0  4.100008  0
C  C26  1  0.50314406  0.72953528  0.66719898  1  0.732181  0  0.103881  0.122729  0  4.067359  0
C  C27  1  0.50026785  0.76193431  0.64158118  1  0.475806  0  0.079447  -0.014566  0  4.079913  0
C  C28  1  0.49783549  0.73367091  0.58336160  1  0.658793  0  0.101172  0.122682  0  4.056929  0
C  C29  1  0.49453759  0.67654156  0.55347799  1  0.558696  0  0.094855  0.160027  0  4.094669  0
C  C30  1  0.50077299  0.64505056  0.57933909  1  0.000244  0  -0.018293  -0.214453  0  4.000972  0
C  C31  1  0.50720119  0.67246144  0.63666430  1  0.550389  0  0.094913  0.159413  0  4.100065  0
C  C32  1  0.50076631  0.23238150  0.97838826  1  0.014796  0  -0.018275  -0.21434  0  4.001514  0
C  C33  1  0.49453188  0.28972805  0.00987358  1  0.684711  0  0.094766  0.159823  0  4.094939  0
C  C34  1  0.49782231  0.31697465  0.06700702  1  0.536888  0  0.101243  0.122939  0  4.056777  0
C  C35  1  0.50027070  0.28702061  0.09526838  1  0.432219  0  0.079422  -0.014653  0  4.080171  0
C  C36  1  0.50315276  0.22900887  0.06287220  1  0.636241  0  0.103937  0.122838  0  4.067312  0
C  C37  1  0.50720225  0.20246619  0.00579314  1  0.550199  0  0.094858  0.159364  0  4.099935  0
C  C38  1  0.50316360  0.43766003  0.27046554  1  0.63643  0  0.103978  0.122999  0  4.067107  0
C  C39  1  0.50028343  0.37964876  0.23806818  1  0.43202  0  0.07937  -0.014841  0  4.08034  0
C  C40  1  0.49783015  0.34969142  0.26632788  1  0.536891  0  0.10123  0.122919  0  4.056734  0
C  C41  1  0.49454308  0.37693838  0.32346168  1  0.684423  0  0.094947  0.160004  0  4.09474  0
C  C42  1  0.50077240  0.43428499  0.35494738  1  0.014723  0  -0.018317  -0.21439  0  4.001297  0
C  C43  1  0.50720891  0.46420108  0.32754338  1  0.549952  0  0.094878  0.159398  0  4.099775  0
N  N44  1  0.50010596  0.34458499  0.69274995  1  -0.38619  0  -0.145217  -0.083125  0  3.262852  0
N  N45  1  0.50010166  0.32207858  0.64058932  1  -0.469317  0  -0.145178  -0.083034  0  3.262811  0
N  N46  1  0.50009817  0.84815867  0.65541421  1  -0.484602  0  -0.145129  -0.082971  0  3.26293  0
N  N47  1  0.50009830  0.81850317  0.67791826  1  -0.455298  0  -0.145198  -0.083089  0  3.263034  0
N  N48  1  0.50009884  0.30725221  0.15183868  1  -0.465239  0  -0.145191  -0.083044  0  3.26256  0
N  N49  1  0.50010553  0.35941716  0.18149789  1  -0.399853  0  -0.145129  -0.082982  0  3.262668  0
O  O50  1  0.73428037  0.55854902  0.55494226  1  -1.241901  0  -0.224756  -0.579798  0  2.354706  0
O  O51  1  0.73428716  0.49639097  0.44145282  1  -1.242538  0  -0.224736  -0.579709  0  2.354256  0
O  O52  1  0.73428463  0.44505594  0.50360781  1  -1.24134  0  -0.22483  -0.57982  0  2.354914  0
O  O53  1  0.26124192  0.56175112  0.51186481  1  -1.23433  0  -0.223861  -0.578729  0  2.359138  0
O  O54  1  0.26123232  0.48813470  0.54988883  1  -1.230917  0  -0.223753  -0.578636  0  2.358918  0
O  O55  1  0.26124134  0.45010815  0.43824813  1  -1.233406  0  -0.223583  -0.578348  0  2.359435  0
O  O56  1  0.73428658  0.17027359  0.89188293  1  -1.242555  0  -0.224752  -0.579815  0  2.354708  0
O  O57  1  0.73428156  0.22160766  0.82972535  1  -1.241407  0  -0.224798  -0.579879  0  2.354779  0
O  O58  1  0.73429085  0.10811799  0.77839389  1  -1.241827  0  -0.22479  -0.579851  0  2.354078  0
O  O59  1  0.26123716  0.21655564  0.89508564  1  -1.233285  0  -0.223808  -0.57869  0  2.359008  0
O  O60  1  0.26123657  0.10491276  0.82147028  1  -1.234686  0  -0.223752  -0.578727  0  2.359397  0
O  O61  1  0.26124366  0.17852862  0.78344611  1  -1.230924  0  -0.223869  -0.578796  0  2.359118  0
F  F62  1  0.50644308  0.32982273  0.85278649  1  -0.63001  0  -0.077026  -0.083381  0  1.356044  0
F  F63  1  0.50085681  0.38872408  0.80158576  1  -0.623061  0  -0.070233  -0.078446  0  1.381927  0
F  F64  1  0.49566688  0.16491925  0.68023202  1  -0.602775  0  -0.076973  -0.083426  0  1.357261  0
F  F65  1  0.49961223  0.22177504  0.62805995  1  -0.628615  0  -0.069782  -0.081749  0  1.413737  0
F  F66  1  0.50086559  0.27794173  0.53175412  1  -0.622971  0  -0.070338  -0.07857  0  1.38204  0
F  F67  1  0.50644144  0.33684241  0.48055191  1  -0.629744  0  -0.076998  -0.083374  0  1.356047  0
F  F68  1  0.49960147  0.44488569  0.70527362  1  -0.628534  0  -0.069773  -0.081718  0  1.413473  0
F  F69  1  0.49565835  0.50174333  0.65309971  1  -0.602603  0  -0.07697  -0.08341  0  1.357087  0
F  F70  1  0.50644317  0.02295771  0.67017560  1  -0.622579  0  -0.076991  -0.08337  0  1.356049  0
F  F71  1  0.50086532  0.91285484  0.61127574  1  -0.629762  0  -0.070321  -0.078549  0  1.381944  0
F  F72  1  0.49565704  0.01531415  0.83507857  1  -0.605763  0  -0.076948  -0.083382  0  1.357145  0
F  F73  1  0.49960068  0.90628147  0.77822133  1  -0.622574  0  -0.069777  -0.08174  0  1.413449  0
F  F74  1  0.50084845  0.75380892  0.72205906  1  -0.629808  0  -0.070255  -0.078462  0  1.382066  0
F  F75  1  0.50644135  0.64370709  0.66315958  1  -0.62256  0  -0.077022  -0.083419  0  1.356005  0
F  F76  1  0.49961445  0.76038233  0.55510776  1  -0.62217  0  -0.06981  -0.081752  0  1.413608  0
F  F77  1  0.49567322  0.65135394  0.49825334  1  -0.605868  0  -0.076967  -0.083384  0  1.357229  0
F  F78  1  0.50644144  0.14721867  0.97704078  1  -0.629942  0  -0.076958  -0.083379  0  1.356055  0
F  F79  1  0.50086057  0.19842030  0.08714224  1  -0.618348  0  -0.07028  -0.078517  0  1.382014  0
F  F80  1  0.49566231  0.31976554  0.98468678  1  -0.602222  0  -0.076964  -0.083379  0  1.357244  0
F  F81  1  0.49960044  0.37193922  0.09371814  1  -0.62749  0  -0.069771  -0.081774  0  1.413604  0
F  F82  1  0.50087369  0.46824993  0.24619560  1  -0.618222  0  -0.07033  -0.078603  0  1.381744  0
F  F83  1  0.50644812  0.51944924  0.35629628  1  -0.6297  0  -0.07702  -0.083435  0  1.356036  0
F  F84  1  0.49960749  0.29472761  0.23961671  1  -0.627434  0  -0.069817  -0.081779  0  1.41369  0
F  F85  1  0.49567801  0.34690065  0.34864773  1  -0.602066  0  -0.076998  -0.083404  0  1.357261  0
