# generated using pymatgen
data_ZnH22C24NO10
_symmetry_space_group_name_H-M   'P 1'
_cell_length_a   13.94710162
_cell_length_b   15.13064030
_cell_length_c   15.87406340
_cell_angle_alpha   89.70708238
_cell_angle_beta   89.91463493
_cell_angle_gamma   89.29225384
_symmetry_Int_Tables_number   1
_chemical_formula_structural   ZnH22C24NO10
_chemical_formula_sum   'Zn2 H44 C48 N2 O20'
_cell_volume   3349.57827542
_cell_formula_units_Z   2
loop_
 _symmetry_equiv_pos_site_id
 _symmetry_equiv_pos_as_xyz
  1  'x, y, z'
loop_
 _atom_site_type_symbol
 _atom_site_label
 _atom_site_symmetry_multiplicity
 _atom_site_fract_x
 _atom_site_fract_y
 _atom_site_fract_z
 _atom_site_occupancy
 _atom_site_pbe_bader_charge
 _atom_site_pbe_bader_spin_density
 _atom_site_pbe_cm5_charge
 _atom_site_pbe_ddec_charge
 _atom_site_pbe_ddec_spin_density
 _atom_site_pbe_ddec_sum_bond_order
 _atom_site_pbe_magmom
Zn  Zn0  1  0.39020992  0.50262032  0.51184612  1  1.294444  0  0.673869  0.825842  0  2.40522  0
Zn  Zn1  1  0.59447508  0.51040915  0.50258617  1  1.287236  0  0.676701  0.828077  0  2.39896  0
H  H2  1  0.35762914  0.06607737  0.41374630  1  0.085345  0  0.102151  0.120248  0  1.006467  0
H  H3  1  0.53588465  0.96588399  0.62776459  1  0.078798  0  0.104666  0.12465  0  1.002245  0
H  H4  1  0.43359088  0.92720169  0.37362921  1  0.079488  0  0.103251  0.12308  0  1.006412  0
H  H5  1  0.62893718  0.06759955  0.54513899  1  0.080729  0  0.104651  0.12392  0  1.003118  0
H  H6  1  0.74468176  0.58556522  0.39352137  1  0.125569  0  0.124592  0.116777  0  1.01802  0
H  H7  1  0.23814271  0.63043719  0.54314614  1  0.14231  0  0.119413  0.108263  0  1.048837  0
H  H8  1  0.74137287  0.42866145  0.60692609  1  0.144945  0  0.122852  0.115033  0  1.033277  0
H  H9  1  0.24549165  0.36730162  0.47560792  1  0.134469  0  0.123493  0.116246  0  1.035126  0
H  H10  1  0.25100547  0.45915121  0.03240068  1  0.055441  0  0.096408  0.096524  0  1.007287  0
H  H11  1  0.29209772  0.51876937  0.12362574  1  0.061001  0  0.095256  0.092808  0  0.992998  0
H  H12  1  0.22211867  0.42095990  0.13677130  1  0.051239  0  0.105111  0.10975  0  0.976567  0
H  H13  1  0.69267082  0.43559035  0.80851373  1  0.078  0  0.092325  0.093698  0  1.039262  0
H  H14  1  0.73986704  0.37609894  0.89799548  1  0.059954  0  0.094784  0.08992  0  0.991459  0
H  H15  1  0.80242630  0.47002922  0.85708479  1  0.068829  0  0.105237  0.108671  0  0.980202  0
H  H16  1  0.39207488  0.24421530  0.93213234  1  0.033284  0  0.096036  0.092757  0  0.987022  0
H  H17  1  0.43063085  0.30082703  0.83785159  1  0.051946  0  0.095609  0.096667  0  1.020551  0
H  H18  1  0.30574826  0.28330097  0.85615681  1  0.054156  0  0.10975  0.116473  0  0.967898  0
H  H19  1  0.74774554  0.41006970  0.12662039  1  0.050025  0  0.093123  0.087393  0  0.991212  0
H  H20  1  0.67773917  0.46157330  0.20894467  1  0.091263  0  0.095457  0.100561  0  1.022689  0
H  H21  1  0.78629023  0.51160981  0.17260192  1  0.043623  0  0.101681  0.103482  0  0.99545  0
H  H22  1  0.38858940  0.35706397  0.34516040  1  0.096963  0  0.094787  0.105833  0  1.044799  0
H  H23  1  0.29960848  0.30126564  0.28572493  1  0.052894  0  0.100678  0.104474  0  0.986031  0
H  H24  1  0.42203679  0.26573243  0.27830992  1  0.052445  0  0.097027  0.098921  0  0.98625  0
H  H25  1  0.51547359  0.73317429  0.77655783  1  0.047818  0  0.107474  0.111578  0  0.972871  0
H  H26  1  0.55139149  0.66997382  0.68637317  1  0.088782  0  0.099364  0.112491  0  1.004968  0
H  H27  1  0.43118951  0.71341920  0.69372187  1  0.073172  0  0.098974  0.10153  0  0.990904  0
H  H28  1  0.28919325  0.72278447  0.41588616  1  0.053402  0  0.086622  0.079809  0  1.035327  0
H  H29  1  0.32813592  0.70335734  0.30997390  1  0.070421  0  0.105566  0.114366  0  0.974664  0
H  H30  1  0.30304637  0.81454078  0.34400134  1  0.05043  0  0.086891  0.075759  0  1.00862  0
H  H31  1  0.78896442  0.27807996  0.50547595  1  0.038115  0  0.094436  0.095106  0  1.013253  0
H  H32  1  0.70393263  0.29245368  0.42188863  1  0.084448  0  0.093698  0.102367  0  1.011792  0
H  H33  1  0.75265933  0.18382636  0.44566086  1  0.018857  0  0.087426  0.078593  0  1.001554  0
H  H34  1  0.85263321  0.69749931  0.34850370  1  0.054526  0  0.108775  0.109202  0  0.973309  0
H  H35  1  0.84299663  0.60465312  0.27905500  1  0.054056  0  0.104328  0.101671  0  1.00369  0
H  H36  1  0.94854106  0.67122387  0.27685235  1  0.063942  0  0.11531  0.122134  0  0.963908  0
H  H37  1  0.13735299  0.74988994  0.51233967  1  0.072315  0  0.10391  0.102015  0  0.99255  0
H  H38  1  0.13436445  0.71690087  0.62125936  1  0.062026  0  0.106909  0.107274  0  0.976345  0
H  H39  1  0.03494010  0.77704061  0.57641089  1  0.077182  0  0.116113  0.123705  0  0.962954  0
H  H40  1  0.83770018  0.31212012  0.65372757  1  0.068339  0  0.107268  0.109867  0  0.986331  0
H  H41  1  0.84095611  0.40712268  0.72090972  1  0.047724  0  0.103376  0.102054  0  1.011941  0
H  H42  1  0.93841191  0.32847490  0.72212289  1  0.080309  0  0.115135  0.122255  0  0.963839  0
H  H43  1  0.14373632  0.24931662  0.50203378  1  0.092437  0  0.107593  0.110483  0  0.975041  0
H  H44  1  0.15242780  0.27721823  0.39252141  1  0.077354  0  0.104502  0.107763  0  0.999925  0
H  H45  1  0.04909507  0.21986076  0.43114129  1  0.070518  0  0.11251  0.119221  0  0.9673  0
C  C46  1  0.49496695  0.33923666  0.47240398  1  1.58926  0  0.215309  0.620138  0  4.179529  0
C  C47  1  0.48137669  0.67509793  0.53298095  1  1.555199  0  0.219524  0.628709  0  4.1917  0
C  C48  1  0.49072215  0.05474708  0.48408125  1  0.047776  0  -0.006074  0.11883  0  4.035376  0
C  C49  1  0.48472317  0.95860725  0.49913595  1  -0.004656  0  -0.012049  0.106775  0  4.053906  0
C  C50  1  0.88883865  0.54808962  0.43741225  1  0.504308  0  0.095352  0.187123  0  4.064142  0
C  C51  1  0.09500922  0.57586949  0.52328250  1  0.515961  0  0.094748  0.188803  0  4.064296  0
C  C52  1  0.88683246  0.45470930  0.56095563  1  0.53885  0  0.094868  0.184423  0  4.067769  0
C  C53  1  0.09920976  0.42229686  0.48329640  1  0.551182  0  0.095618  0.189928  0  4.062211  0
C  C54  1  0.78841758  0.55042169  0.43981334  1  0.53612  0  0.022776  -0.074575  0  3.944926  0
C  C55  1  0.19518996  0.57355645  0.52671078  1  0.452007  0  0.017877  -0.082799  0  3.960945  0
C  C56  1  0.78659945  0.46047355  0.56014879  1  0.466071  0  0.021891  -0.076505  0  3.953168  0
C  C57  1  0.19951436  0.42444253  0.48817875  1  0.481259  0  0.023183  -0.071097  0  3.928074  0
C  C58  1  0.93961741  0.49984402  0.49914605  1  0.046205  0  -0.006263  -0.075513  0  3.976161  0
C  C59  1  0.04539935  0.49910890  0.50117245  1  0.111  0  -0.007022  -0.07776  0  3.974953  0
C  C60  1  0.49431402  0.52942949  0.34510513  1  1.685074  0  0.216849  0.660267  0  4.264073  0
C  C61  1  0.50282353  0.46897056  0.66751352  1  1.673115  0  0.216899  0.656648  0  4.269525  0
C  C62  1  0.44091389  0.41279311  0.96834182  1  0.510367  0  0.077567  0.104887  0  4.061136  0
C  C63  1  0.59875935  0.48804555  0.05245042  1  0.508462  0  0.078937  0.10979  0  4.049923  0
C  C64  1  0.43706397  0.42571878  0.05536866  1  0.57514  0  0.074841  0.103945  0  4.069495  0
C  C65  1  0.60331916  0.47444800  0.96498588  1  0.589801  0  0.081144  0.110293  0  4.050378  0
C  C66  1  0.52233208  0.44105541  0.92179005  1  0.133994  0  -0.019885  -0.06686  0  4.143217  0
C  C67  1  0.51380713  0.46754476  0.09706996  1  0.168975  0  -0.014624  -0.051435  0  4.14738  0
C  C68  1  0.51784210  0.44438111  0.83314693  1  -0.49519  0  -0.029891  -0.012119  0  4.143385  0
C  C69  1  0.50370233  0.49070081  0.18246641  1  -0.185025  0  -0.03084  -0.012791  0  4.140672  0
C  C70  1  0.49585851  0.51419371  0.25549514  1  -0.11219  0  -0.03969  -0.184598  0  3.933845  0
C  C71  1  0.51062731  0.45264325  0.75696227  1  0.183302  0  -0.038224  -0.183736  0  3.925135  0
C  C72  1  0.41907268  0.10064081  0.43948761  1  -0.049686  0  -0.110454  -0.269458  0  3.976266  0
C  C73  1  0.51294171  0.92305460  0.57683215  1  0.021009  0  -0.112771  -0.273282  0  3.978778  0
C  C74  1  0.45208738  0.90185192  0.43597204  1  -0.108616  0  -0.118773  -0.288096  0  4.007684  0
C  C75  1  0.56986451  0.10168117  0.51334850  1  -0.041728  0  -0.1113  -0.276002  0  3.988831  0
C  C76  1  0.42276409  0.19222412  0.42907479  1  0.460355  0  0.08484  0.259924  0  4.049703  0
C  C77  1  0.50966732  0.83191349  0.59281561  1  0.471819  0  0.084902  0.254718  0  4.068201  0
C  C78  1  0.45083012  0.81124947  0.45100562  1  0.542496  0  0.079241  0.252946  0  4.062017  0
C  C79  1  0.57530743  0.19264862  0.50140310  1  0.467183  0  0.083888  0.263491  0  4.038974  0
C  C80  1  0.49967807  0.24093841  0.46270499  1  0.017718  0  -0.035347  -0.251741  0  3.913883  0
C  C81  1  0.47909184  0.77431996  0.52896716  1  0.034755  0  -0.037609  -0.254011  0  3.938501  0
C  C82  1  0.27657278  0.45306886  0.09772493  1  0.385339  0  -0.136961  -0.168607  0  3.916207  0
C  C83  1  0.73151682  0.44172159  0.86832494  1  0.342792  0  -0.140013  -0.174339  0  3.924805  0
C  C84  1  0.37453573  0.29692089  0.88637374  1  0.408805  0  -0.134812  -0.167108  0  3.906252  0
C  C85  1  0.72360165  0.47347259  0.15375851  1  0.361492  0  -0.137627  -0.165827  0  3.913046  0
C  C86  1  0.36676553  0.29264050  0.32085647  1  0.356565  0  -0.144052  -0.175455  0  3.906523  0
C  C87  1  0.50695626  0.72561166  0.70836051  1  0.360306  0  -0.138988  -0.17073  0  3.902287  0
C  C88  1  0.33169743  0.74918559  0.36307580  1  0.36144  0  -0.139854  -0.158048  0  3.938519  0
C  C89  1  0.72896085  0.24769651  0.47226457  1  0.395402  0  -0.146307  -0.164532  0  3.934677  0
C  C90  1  0.89261673  0.64370163  0.31730848  1  0.403822  0  -0.126666  -0.172307  0  3.903899  0
C  C91  1  0.09090200  0.72737824  0.56414691  1  0.361078  0  -0.126993  -0.173027  0  3.903782  0
C  C92  1  0.88457516  0.36152570  0.68252456  1  0.379322  0  -0.128067  -0.174884  0  3.897088  0
C  C93  1  0.10275266  0.26966811  0.44587324  1  0.337636  0  -0.129562  -0.17561  0  3.896741  0
N  N94  1  0.74058184  0.50757997  0.50059627  1  -1.232749  0  -0.324728  -0.146347  0  3.623068  0
N  N95  1  0.24421109  0.49905426  0.50937532  1  -1.24669  0  -0.324902  -0.143139  0  3.618374  0
O  O96  1  0.41468586  0.37018871  0.49818855  1  -1.157649  0  -0.31251  -0.540031  0  2.336767  0
O  O97  1  0.56344769  0.63807659  0.53771863  1  -1.151537  0  -0.312892  -0.540952  0  2.301392  0
O  O98  1  0.40119882  0.63628849  0.52823454  1  -1.168617  0  -0.31034  -0.551104  0  2.36723  0
O  O99  1  0.56967444  0.38401609  0.45828130  1  -1.160791  0  -0.307571  -0.543309  0  2.358564  0
O  O100  1  0.41456839  0.51753508  0.38249313  1  -1.159456  0  -0.311263  -0.549194  0  2.274889  0
O  O101  1  0.58106580  0.46573144  0.62564619  1  -1.155844  0  -0.311603  -0.548433  0  2.28675  0
O  O102  1  0.41949443  0.48633289  0.63954645  1  -1.13666  0  -0.310351  -0.528612  0  2.249929  0
O  O103  1  0.57398696  0.54964275  0.37856369  1  -1.147551  0  -0.313178  -0.538746  0  2.263814  0
O  O104  1  0.36063487  0.39703909  0.10227802  1  -1.076997  0  -0.208142  -0.179655  0  2.553111  0
O  O105  1  0.68439280  0.50207669  0.92496984  1  -1.071587  0  -0.19683  -0.15482  0  2.568614  0
O  O106  1  0.36151018  0.37997892  0.92921308  1  -1.067675  0  -0.200823  -0.171455  0  2.567016  0
O  O107  1  0.67545312  0.52644899  0.09076811  1  -1.078708  0  -0.204723  -0.169972  0  2.554561  0
O  O108  1  0.34605726  0.23001237  0.38712488  1  -1.081275  0  -0.209273  -0.206732  0  2.551129  0
O  O109  1  0.53753050  0.80785108  0.67231928  1  -1.077989  0  -0.198471  -0.175626  0  2.548143  0
O  O110  1  0.43065673  0.75371969  0.38602137  1  -1.065646  0  -0.209671  -0.187511  0  2.516395  0
O  O111  1  0.65476968  0.23452044  0.53388844  1  -1.081551  0  -0.221105  -0.210384  0  2.504801  0
O  O112  1  0.94221320  0.58933673  0.37774472  1  -1.072571  0  -0.181761  -0.151268  0  2.588817  0
O  O113  1  0.04109919  0.64859383  0.54165750  1  -1.066397  0  -0.180721  -0.148968  0  2.584674  0
O  O114  1  0.93777209  0.40874997  0.61979481  1  -1.068677  0  -0.180942  -0.148391  0  2.586708  0
O  O115  1  0.04916624  0.34973180  0.46110565  1  -1.06962  0  -0.182826  -0.15345  0  2.585466  0
