# generated using pymatgen
data_Zn2H24C37N10O
_symmetry_space_group_name_H-M   'P 1'
_cell_length_a   19.80830323
_cell_length_b   19.88741385
_cell_length_c   20.61492003
_cell_angle_alpha   108.61220932
_cell_angle_beta   105.57683353
_cell_angle_gamma   112.33120312
_symmetry_Int_Tables_number   1
_chemical_formula_structural   Zn2H24C37N10O
_chemical_formula_sum   'Zn4 H48 C74 N20 O2'
_cell_volume   6376.52604615
_cell_formula_units_Z   2
loop_
 _symmetry_equiv_pos_site_id
 _symmetry_equiv_pos_as_xyz
  1  'x, y, z'
loop_
 _atom_site_type_symbol
 _atom_site_label
 _atom_site_symmetry_multiplicity
 _atom_site_fract_x
 _atom_site_fract_y
 _atom_site_fract_z
 _atom_site_occupancy
 _atom_site_pbe_bader_charge
 _atom_site_pbe_bader_spin_density
 _atom_site_pbe_cm5_charge
 _atom_site_pbe_ddec_charge
 _atom_site_pbe_ddec_spin_density
 _atom_site_pbe_ddec_sum_bond_order
 _atom_site_pbe_magmom
Zn  Zn0  1  0.60506977  0.60216291  0.50235149  1  1.188277  0  0.745437  0.602278  0  2.476526  0
Zn  Zn1  1  0.38781646  0.39234030  0.49368889  1  1.202454  0  0.74621  0.639443  0  2.40257  0
Zn  Zn2  1  0.50073974  0.59482876  0.60322739  1  1.19071  0  0.747264  0.607256  0  2.479273  0
Zn  Zn3  1  0.49374156  0.40163214  0.39692341  1  1.193211  0  0.743888  0.615545  0  2.423679  0
H  H4  1  0.76275164  0.79375797  0.61862193  1  0.072844  0  0.118504  0.10495  0  1.000215  0
H  H5  1  0.37040210  0.63171768  0.51322451  1  0.100633  0  0.12007  0.11029  0  0.99476  0
H  H6  1  0.37051796  0.39136566  0.24799488  1  0.087761  0  0.117718  0.103434  0  1.006825  0
H  H7  1  0.23042682  0.37994984  0.37798133  1  0.084373  0  0.117143  0.10424  0  1.014246  0
H  H8  1  0.50482123  0.63489258  0.37813540  1  0.101691  0  0.12158  0.113339  0  0.991386  0
H  H9  1  0.53243004  0.38426117  0.24716549  1  0.10037  0  0.117886  0.103582  0  1.00203  0
H  H10  1  0.36948962  0.62405762  0.67345250  1  0.105222  0  0.121743  0.112605  0  0.985101  0
H  H11  1  0.02828933  0.60194031  0.73677713  1  0.039874  0  0.098336  0.085534  0  0.993286  0
H  H12  1  0.07160528  0.48158459  0.73700670  1  0.065509  0  0.098542  0.086003  0  0.993879  0
H  H13  1  0.08293269  0.61314113  0.62443426  1  0.04352  0  0.097068  0.083356  0  0.994889  0
H  H14  1  0.33155521  0.20075418  0.47135524  1  0.095875  0  0.122492  0.113491  0  0.985311  0
H  H15  1  0.92345700  0.48733464  0.50806949  1  0.055576  0  0.099534  0.087283  0  0.991593  0
H  H16  1  0.96698474  0.36680858  0.50834125  1  0.031497  0  0.095153  0.080054  0  0.99863  0
H  H17  1  0.91264650  0.35579089  0.62086179  1  0.074329  0  0.097513  0.084434  0  0.996973  0
H  H18  1  0.43229921  0.99311483  0.52811085  1  0.062938  0  0.099142  0.098753  0  0.994212  0
H  H19  1  0.29232228  0.83267411  0.44186087  1  0.072303  0  0.099413  0.087648  0  0.993494  0
H  H20  1  0.48627201  0.95563744  0.34944117  1  0.073155  0  0.098684  0.097427  0  0.995732  0
H  H21  1  0.34590135  0.79559537  0.26444738  1  0.067368  0  0.099942  0.088841  0  0.991386  0
H  H22  1  0.25455115  0.86246798  0.31451841  1  0.065137  0  0.099809  0.087747  0  0.990332  0
H  H23  1  0.70693181  0.58903030  0.83694314  1  0.041428  0  0.100345  0.100893  0  0.999165  0
H  H24  1  0.63247642  0.60546080  0.74154500  1  0.10351  0  0.117856  0.103457  0  1.005284  0
H  H25  1  0.73684235  0.58815545  0.96144142  1  0.099467  0  0.104153  0.105564  0  1.012727  0
H  H26  1  0.73141684  0.65215858  0.16288384  1  0.065404  0  0.104731  0.107345  0  0.996378  0
H  H27  1  0.70492844  0.65388000  0.27469007  1  0.049257  0  0.09834  0.098917  0  1.001179  0
H  H28  1  0.52021855  0.33177180  0.72113717  1  0.051955  0  0.099551  0.101545  0  1.000467  0
H  H29  1  0.61330691  0.38797754  0.05496946  1  0.097238  0  0.103748  0.103928  0  1.019823  0
H  H30  1  0.55433775  0.33109771  0.84615852  1  0.09627  0  0.104836  0.106596  0  0.997524  0
H  H31  1  0.58884322  0.38839528  0.16678070  1  0.046397  0  0.09779  0.096097  0  1.008133  0
H  H32  1  0.25618652  0.34849304  0.14101533  1  0.050489  0  0.099998  0.100225  0  1.000646  0
H  H33  1  0.12935951  0.25682567  0.01946273  1  0.084696  0  0.103565  0.104644  0  1.015961  0
H  H34  1  0.98541058  0.05395469  0.82953007  1  0.08234  0  0.104306  0.106472  0  0.997312  0
H  H35  1  0.61397981  0.35131518  0.48528950  1  0.0809  0  0.118793  0.108717  0  1.005157  0
H  H36  1  0.87404703  0.91500088  0.72400513  1  0.018844  0  0.098226  0.098291  0  1.004937  0
H  H37  1  0.11380698  0.32424969  0.26711483  1  0.041543  0  0.098026  0.098746  0  1.004583  0
H  H38  1  0.83092864  0.06348200  0.93951956  1  0.108062  0  0.103203  0.103421  0  1.017368  0
H  H39  1  0.98722930  0.23435114  0.14441049  1  0.07708  0  0.104164  0.105574  0  0.998319  0
H  H40  1  0.71817455  0.92587885  0.83369238  1  0.051473  0  0.098796  0.097916  0  1.003055  0
H  H41  1  0.48540003  0.33933061  0.60287734  1  0.115162  0  0.116668  0.102162  0  1.013088  0
H  H42  1  0.47555805  0.21446594  0.34579032  1  0.088529  0  0.120555  0.110628  0  0.988524  0
H  H43  1  0.62927303  0.78327587  0.75400772  1  0.085138  0  0.119419  0.106769  0  0.99851  0
H  H44  1  0.68738341  0.64918530  0.38620870  1  0.07067  0  0.118085  0.105549  0  0.998785  0
H  H45  1  0.11413822  0.36040585  0.46213878  1  0.04231  0  0.102422  0.102189  0  0.989213  0
H  H46  1  0.11738371  0.32003217  0.52841966  1  0.059905  0  0.103865  0.108576  0  0.983465  0
H  H47  1  0.09679889  0.25743142  0.43247091  1  0.081316  0  0.111409  0.116039  0  0.969664  0
H  H48  1  0.58914236  0.04655288  0.56615642  1  0.045459  0  0.094622  0.087209  0  0.996369  0
H  H49  1  0.61412594  0.03161264  0.48712235  1  0.032887  0  0.092867  0.0843  0  0.999972  0
H  H50  1  0.65660256  0.00773639  0.55920641  1  0.073167  0  0.107178  0.111838  0  0.972658  0
H  H51  1  0.75907606  0.61714627  0.62662062  1  0.074619  0  0.120288  0.111073  0  0.992262  0
C  C52  1  0.72028991  0.77809689  0.64284034  1  0.410371  0  0.008512  -0.054965  0  3.995404  0
C  C53  1  0.40168854  0.17459245  0.40658354  1  0.116202  0  -0.033319  0.041944  0  4.219686  0
C  C54  1  0.57676404  0.46829291  0.70107770  1  -0.029191  0  -0.033581  -0.042091  0  4.064207  0
C  C55  1  0.71695772  0.48131741  0.57107258  1  0.05783  0  -0.029982  0.043201  0  4.190902  0
C  C56  1  0.64551493  0.58343158  0.36129944  1  0.400294  0  0.00748  -0.056227  0  3.991714  0
C  C57  1  0.27026726  0.42770493  0.54956397  1  1.033834  0  0.188252  0.289464  0  4.087391  0
C  C58  1  0.40924815  0.62622505  0.48589700  1  0.4333  0  0.015881  -0.043525  0  3.927993  0
C  C59  1  0.34693308  0.39226142  0.28992178  1  0.399638  0  0.011586  -0.041611  0  3.955368  0
C  C60  1  0.27543222  0.38658695  0.35616668  1  0.406978  0  0.013619  -0.037497  0  3.945725  0
C  C61  1  0.47801804  0.62786036  0.41679124  1  0.44641  0  0.015882  -0.044284  0  3.92642  0
C  C62  1  0.56715868  0.44841012  0.29085671  1  0.394624  0  0.006913  -0.055583  0  4.002813  0
C  C63  1  0.36793369  0.21709460  0.44182948  1  0.425683  0  0.01343  -0.054845  0  3.968697  0
C  C64  1  0.34560587  0.56075326  0.63223296  1  0.436739  0  0.014254  -0.038355  0  4.00501  0
C  C65  1  0.62124619  0.51867636  0.29023609  1  0.056193  0  -0.037471  -0.044221  0  4.098441  0
C  C66  1  0.26550016  0.49307574  0.59812035  1  0.081224  0  -0.04574  -0.084209  0  4.227009  0
C  C67  1  0.42220155  0.65069698  0.43111706  1  0.097493  0  -0.026152  0.052134  0  4.184622  0
C  C68  1  0.26879548  0.37557635  0.28319472  1  0.061335  0  -0.034576  -0.046157  0  4.065951  0
C  C69  1  0.03811667  0.48277028  0.68607518  1  -0.027031  0  -0.074184  -0.081944  0  3.635556  0
C  C70  1  0.01515074  0.54979588  0.68591689  1  -0.015856  0  -0.073764  -0.080172  0  3.63776  0
C  C71  1  0.78768249  0.47696210  0.59824744  1  0.104017  0  -0.063942  -0.108992  0  4.209618  0
C  C72  1  0.19893375  0.49271153  0.61043764  1  -0.49647  0  -0.071663  -0.106146  0  4.27216  0
C  C73  1  0.95079050  0.41296871  0.62150107  1  -0.04453  0  -0.075142  -0.082664  0  3.642456  0
C  C74  1  0.59072278  0.54173221  0.69763836  1  0.413847  0  0.011695  -0.043806  0  3.964457  0
C  C75  1  0.92607838  0.47993005  0.62110317  1  0.11932  0  0.003988  0.138127  0  3.795879  0
C  C76  1  0.97980180  0.41897847  0.55902766  1  -0.006626  0  -0.076065  -0.0813  0  3.648588  0
C  C77  1  0.06898327  0.48895042  0.62351248  1  0.105185  0  0.002356  0.135729  0  3.810369  0
C  C78  1  0.95745244  0.48617276  0.55878777  1  -0.019493  0  -0.074308  -0.078319  0  3.636858  0
C  C79  1  0.04426476  0.55600503  0.62355805  1  -0.0177  0  -0.073912  -0.079328  0  3.64176  0
C  C80  1  0.85163831  0.47679286  0.61461395  1  -0.45212  0  -0.068748  -0.150507  0  4.14286  0
C  C81  1  0.14060501  0.49225868  0.62017306  1  0.151379  0  -0.068057  -0.153626  0  4.151461  0
C  C82  1  0.33549603  0.86074426  0.42161099  1  -0.04536  0  -0.073245  -0.068216  0  3.656052  0
C  C83  1  0.41339978  0.94872120  0.46971906  1  -0.05224  0  -0.082977  -0.16464  0  3.627789  0
C  C84  1  0.39816291  0.10134536  0.40288508  1  -0.331697  0  -0.071017  -0.123835  0  4.230605  0
C  C85  1  0.63827670  0.41738992  0.51353201  1  0.463562  0  0.014888  -0.044568  0  3.927408  0
C  C86  1  0.39770946  0.70016709  0.40746165  1  -0.398208  0  -0.063069  -0.115575  0  4.203722  0
C  C87  1  0.31442455  0.87570332  0.35074163  1  -0.024618  0  -0.073993  -0.078396  0  3.631835  0
C  C88  1  0.39292635  0.96535324  0.39863029  1  0.115521  0  0.001441  0.147848  0  3.821373  0
C  C89  1  0.36529773  0.83992332  0.32296464  1  -0.031304  0  -0.073135  -0.069117  0  3.648958  0
C  C90  1  0.38586055  0.82261416  0.39359488  1  0.082298  0  0.000566  0.076255  0  3.807502  0
C  C91  1  0.44347102  0.92782586  0.37019090  1  -0.065743  0  -0.082832  -0.163207  0  3.633348  0
C  C92  1  0.46423238  0.91223698  0.44136530  1  0.578325  0  0.089151  0.22681  0  3.711447  0
C  C93  1  0.39639363  0.03871267  0.40113639  1  -0.064899  0  -0.066113  -0.140693  0  4.154718  0
C  C94  1  0.38666826  0.75242841  0.39573343  1  0.063632  0  -0.064652  -0.124505  0  4.145533  0
C  C95  1  0.64328095  0.52102115  0.22864154  1  0.0127  0  -0.00816  0.08926  0  4.043935  0
C  C96  1  0.51489802  0.40598307  0.62737763  1  0.421864  0  0.012368  -0.03864  0  3.941363  0
C  C97  1  0.61970263  0.44663649  0.16623083  1  -0.047921  0  -0.093882  -0.126213  0  3.997629  0
C  C98  1  0.63372430  0.44567348  0.10385445  1  -0.003329  0  -0.088418  -0.136573  0  3.977278  0
C  C99  1  0.67313962  0.52017763  0.10182062  1  0.296502  0  0.0789  0.165843  0  4.059252  0
C  C100  1  0.70069669  0.59496404  0.16516866  1  0.006761  0  -0.085493  -0.139454  0  3.979993  0
C  C101  1  0.68562159  0.59532119  0.22736938  1  -0.072897  0  -0.097942  -0.135974  0  3.994323  0
C  C102  1  0.69015781  0.53237029  0.90828435  1  -0.023792  0  -0.086113  -0.134153  0  3.972336  0
C  C103  1  0.67242738  0.53237998  0.83861355  1  -0.00625  0  -0.092112  -0.126861  0  3.984246  0
C  C104  1  0.64477565  0.46008856  0.91142877  1  0.305882  0  0.078836  0.160878  0  4.069802  0
C  C105  1  0.60809058  0.46164532  0.76995438  1  -0.007633  0  -0.001822  0.098619  0  4.024289  0
C  C106  1  0.56897099  0.38785089  0.77319696  1  -0.057056  0  -0.096444  -0.13519  0  3.992538  0
C  C107  1  0.71248098  0.55342910  0.58588933  1  0.470018  0  0.0154  -0.046317  0  3.937745  0
C  C108  1  0.58746829  0.38694637  0.84274475  1  -0.030456  0  -0.085125  -0.138293  0  3.9864  0
C  C109  1  0.78794273  0.90927060  0.77137738  1  0.024901  0  -0.006441  0.090331  0  4.043557  0
C  C110  1  0.77684164  0.95342828  0.83253170  1  -0.046826  0  -0.094112  -0.127183  0  3.991675  0
C  C111  1  0.83905627  0.03054724  0.89149392  1  -0.035721  0  -0.086411  -0.133203  0  3.968012  0
C  C112  1  0.91535259  0.06686414  0.89107293  1  0.317155  0  0.079348  0.164203  0  4.063432  0
C  C113  1  0.92599188  0.02505261  0.82892846  1  -0.039869  0  -0.085401  -0.138243  0  3.989227  0
C  C114  1  0.86348515  0.94754106  0.77031623  1  -0.004978  0  -0.099127  -0.137802  0  4.004777  0
C  C115  1  0.12695566  0.27274455  0.07417749  1  -0.053947  0  -0.086338  -0.134754  0  3.971124  0
C  C116  1  0.19743728  0.32340167  0.14241781  1  -0.068011  0  -0.091629  -0.12509  0  3.981195  0
C  C117  1  0.05060434  0.23712812  0.07471766  1  0.363702  0  0.078563  0.161161  0  4.061524  0
C  C118  1  0.44142896  0.22409990  0.37758016  1  0.434147  0  0.011179  -0.057638  0  3.976962  0
C  C119  1  0.19509577  0.33962010  0.21358870  1  0.065052  0  -0.001551  0.099682  0  4.022853  0
C  C120  1  0.11801295  0.31074563  0.21323562  1  -0.094754  0  -0.097615  -0.136955  0  3.992899  0
C  C121  1  0.04693449  0.26064646  0.14502559  1  -0.015893  0  -0.084926  -0.136701  0  3.98448  0
C  C122  1  0.65192560  0.77302980  0.71144429  1  0.404472  0  0.008333  -0.05619  0  3.995074  0
C  C123  1  0.72403336  0.82593434  0.71229866  1  0.046617  0  -0.03727  -0.042922  0  4.098638  0
C  C124  1  0.13072494  0.32016840  0.48009470  1  0.394539  0  -0.1303  -0.163363  0  3.897522  0
C  C125  1  0.60249789  0.00716322  0.52652105  1  0.383091  0  -0.138653  -0.165797  0  3.965705  0
N  N126  1  0.65185490  0.70367256  0.60419731  1  -0.789002  0  -0.269022  -0.167172  0  3.542852  0
N  N127  1  0.34595483  0.45451325  0.55579749  1  -0.79492  0  -0.281368  -0.282883  0  3.514537  0
N  N128  1  0.45540122  0.59361884  0.50346670  1  -0.782228  0  -0.282592  -0.184169  0  3.639793  0
N  N129  1  0.39448908  0.40991440  0.36038300  1  -0.840635  0  -0.279998  -0.179582  0  3.635778  0
N  N130  1  0.35054626  0.40647135  0.40107736  1  -0.733083  0  -0.278755  -0.176256  0  3.619241  0
N  N131  1  0.49758562  0.59461805  0.46109911  1  -0.807918  0  -0.285591  -0.189594  0  3.648568  0
N  N132  1  0.56038746  0.46956279  0.35645335  1  -0.799215  0  -0.269598  -0.173069  0  3.550529  0
N  N133  1  0.39303333  0.53764392  0.60727954  1  -0.802601  0  -0.275269  -0.173776  0  3.571664  0
N  N134  1  0.68188112  0.52536137  0.03771782  1  -0.501957  0  -0.166243  -0.161513  0  3.293289  0
N  N135  1  0.64601131  0.45576372  0.97833907  1  -0.490131  0  -0.163049  -0.152243  0  3.313434  0
N  N136  1  0.98576261  0.13965830  0.95162297  1  -0.503394  0  -0.166186  -0.160053  0  3.308013  0
N  N137  1  0.38636490  0.28577040  0.43440958  1  -0.821511  0  -0.268032  -0.179781  0  3.533789  0
N  N138  1  0.97726582  0.17245238  0.01066553  1  -0.490659  0  -0.164121  -0.154535  0  3.301697  0
N  N139  1  0.54010602  0.52387356  0.62843435  1  -0.778194  0  -0.284283  -0.17978  0  3.648571  0
N  N140  1  0.59232785  0.44996269  0.49514267  1  -0.780391  0  -0.279012  -0.181494  0  3.631441  0
N  N141  1  0.49354195  0.44045058  0.58506748  1  -0.802186  0  -0.27841  -0.182423  0  3.610787  0
N  N142  1  0.63784282  0.53323314  0.53943738  1  -0.804872  0  -0.284146  -0.182661  0  3.658622  0
N  N143  1  0.43206860  0.29012744  0.39443294  1  -0.762459  0  -0.268728  -0.178747  0  3.542631  0
N  N144  1  0.60923573  0.70040278  0.64702877  1  -0.818243  0  -0.268836  -0.169721  0  3.545373  0
N  N145  1  0.60926293  0.55374124  0.40054323  1  -0.794095  0  -0.267518  -0.169826  0  3.539356  0
O  O146  1  0.21531408  0.34692967  0.50027751  1  -1.10234  0  -0.191163  -0.188716  0  2.566861  0
O  O147  1  0.53736206  0.92311268  0.48556112  1  -1.060328  0  -0.214856  -0.209077  0  2.527391  0
