# generated using pymatgen
data_ZnH13C23N2O9
_symmetry_space_group_name_H-M   'P 1'
_cell_length_a   9.80194199
_cell_length_b   10.95466588
_cell_length_c   15.26029537
_cell_angle_alpha   87.97952237
_cell_angle_beta   88.91387671
_cell_angle_gamma   89.93327219
_symmetry_Int_Tables_number   1
_chemical_formula_structural   ZnH13C23N2O9
_chemical_formula_sum   'Zn2 H26 C46 N4 O18'
_cell_volume   1637.29156914
_cell_formula_units_Z   2
loop_
 _symmetry_equiv_pos_site_id
 _symmetry_equiv_pos_as_xyz
  1  'x, y, z'
loop_
 _atom_site_type_symbol
 _atom_site_label
 _atom_site_symmetry_multiplicity
 _atom_site_fract_x
 _atom_site_fract_y
 _atom_site_fract_z
 _atom_site_occupancy
 _atom_site_pbe_bader_charge
 _atom_site_pbe_bader_spin_density
 _atom_site_pbe_cm5_charge
 _atom_site_pbe_ddec_charge
 _atom_site_pbe_ddec_spin_density
 _atom_site_pbe_ddec_sum_bond_order
 _atom_site_pbe_magmom
Zn  Zn0  1  0.36576064  0.51150586  0.50930945  1  1.291772  0  0.676879  0.832678  0  2.413038  0
Zn  Zn1  1  0.65366898  0.51445247  0.49437590  1  1.295032  0  0.683516  0.853904  0  2.338199  0
H  H2  1  0.40838690  0.34159189  0.23991996  1  0.099426  0  0.105281  0.107382  0  1.025523  0
H  H3  1  0.19342589  0.88227005  0.51513407  1  0.06738  0  0.09771  0.116866  0  0.99776  0
H  H4  1  0.24757779  0.90001623  0.40210652  1  0.068042  0  0.101457  0.121068  0  0.992224  0
H  H5  1  0.86137334  0.39208595  0.68488773  1  0.184646  0  0.133897  0.158108  0  0.944048  0
H  H6  1  0.55093524  0.70989956  0.21753431  1  0.097725  0  0.10929  0.112516  0  1.010748  0
H  H7  1  0.56580324  0.80835783  0.90784832  1  0.186205  0  0.118018  0.134905  0  1.022283  0
H  H8  1  0.41042477  0.20153235  0.94599357  1  0.099845  0  0.116382  0.118442  0  1.014617  0
H  H9  1  0.73996398  0.90271655  0.54441877  1  0.096672  0  0.108583  0.1215  0  0.998059  0
H  H10  1  0.83008438  0.08800005  0.58031827  1  0.427842  0  0.297083  0.248711  0  0.955192  0
H  H11  1  0.89453082  0.09050390  0.42824067  1  0.0112  0  0.083879  0.082074  0  1.00277  0
H  H12  1  0.93199112  0.23459404  0.47408349  1  0.001693  0  0.084419  0.084884  0  1.02361  0
H  H13  1  0.78258198  0.21743310  0.41196201  1  0.039205  0  0.096411  0.105589  0  1.041715  0
H  H14  1  0.18405723  0.21612596  0.56547618  1  0.11714  0  0.102248  0.040693  0  1.014059  0
H  H15  1  0.24545152  0.24889088  0.39555688  1  0.104721  0  0.104205  0.051085  0  0.982382  0
H  H16  1  0.99182491  0.52320667  0.28580934  1  0.519354  0  0.314781  0.269277  0  0.986533  0
H  H17  1  0.74457353  0.48104399  0.25292808  1  0.096041  0  0.108848  0.125811  0  1.004154  0
H  H18  1  0.73934066  0.38541817  0.34971899  1  0.138721  0  0.110535  0.126099  0  1.045333  0
H  H19  1  0.84759678  0.34645195  0.25938977  1  0.075602  0  0.116736  0.127785  0  0.952483  0
H  H20  1  0.25639951  0.67054385  0.37574281  1  0.128644  0  0.117234  0.072572  0  0.989688  0
H  H21  1  0.23539927  0.34766778  0.69889955  1  0.120239  0  0.115893  0.069895  0  1.007123  0
H  H22  1  0.12830609  0.67529626  0.69192018  1  0.087907  0  0.113297  0.054648  0  0.932821  0
H  H23  1  0.78584743  0.65536750  0.65259159  1  0.095902  0  0.106773  0.051001  0  0.993635  0
H  H24  1  0.53674130  0.86834205  0.14257606  1  0.052699  0  0.101565  0.035011  0  0.970341  0
H  H25  1  0.54136721  0.69555775  0.68322987  1  0.065794  0  0.097323  0.02998  0  1.033078  0
H  H26  1  0.49412894  0.18471763  0.82643381  1  0.057809  0  0.117842  0.062418  0  0.955463  0
H  H27  1  0.34983086  0.19050561  0.18399547  1  0.084261  0  0.098544  0.035556  0  1.00942  0
C  C28  1  0.53373704  0.74482831  0.51196870  1  1.571847  0  0.218588  0.602602  0  4.161491  0
C  C29  1  0.44549702  0.40868767  0.10578902  1  -0.026355  0  0.002246  0.04607  0  4.002805  0
C  C30  1  0.54437687  0.73300857  0.03736966  1  -0.005942  0  -0.003913  -0.006557  0  3.942101  0
C  C31  1  0.54395325  0.72619373  0.94761292  1  -0.063037  0  -0.054596  -0.110466  0  3.863378  0
C  C32  1  0.51423314  0.61539883  0.90592857  1  0.059293  0  0.024413  0.088718  0  3.93239  0
C  C33  1  0.48831174  0.50768587  0.95931475  1  -0.022063  0  0.017347  0.010239  0  3.895189  0
C  C34  1  0.46906134  0.39292939  0.91919326  1  -0.006314  0  0.018581  0.073733  0  3.974957  0
C  C35  1  0.43228531  0.28959864  0.97366056  1  0.012869  0  -0.060065  -0.122066  0  3.905292  0
C  C36  1  0.41750374  0.29609387  0.06311528  1  -0.050977  0  -0.008166  -0.010156  0  3.954734  0
C  C37  1  0.51111871  0.60847527  0.81296755  1  -0.017655  0  -0.002595  -0.033073  0  3.903683  0
C  C38  1  0.49838177  0.49435719  0.77448626  1  0.012228  0  0.015729  -0.040764  0  3.883709  0
C  C39  1  0.49741940  0.49178235  0.67523988  1  1.576802  0  0.21882  0.58338  0  4.217068  0
C  C40  1  0.48201385  0.38645259  0.82635824  1  0.022089  0  -0.009792  -0.051982  0  3.942854  0
C  C41  1  0.40942098  0.94385165  0.49526949  1  0.033125  0  -0.00425  0.071444  0  3.907722  0
C  C42  1  0.52869551  0.87986320  0.51384261  1  -0.013835  0  -0.011985  -0.054191  0  3.990407  0
C  C43  1  0.64455417  0.95029388  0.53033507  1  -0.033842  0  -0.080956  -0.185833  0  3.914912  0
C  C44  1  0.64589643  0.07874952  0.52532679  1  0.440666  0  0.106217  0.225479  0  3.953942  0
C  C45  1  0.52178685  0.14355452  0.50729681  1  0.018652  0  -0.005562  -0.132828  0  3.898512  0
C  C46  1  0.40772379  0.07055292  0.49588087  1  -0.135735  0  0.001744  0.009674  0  3.869999  0
C  C47  1  0.25382998  0.07408329  0.47389407  1  -0.033387  0  -0.009596  -0.022448  0  3.820999  0
C  C48  1  0.26210496  0.93166364  0.46875812  1  -0.013389  0  -0.14941  -0.242288  0  3.855911  0
C  C49  1  0.93218425  0.48722125  0.56055904  1  0.563813  0  0.144135  0.203394  0  3.920651  0
C  C50  1  0.50787537  0.27870705  0.50150179  1  1.590686  0  0.224982  0.623676  0  4.138448  0
C  C51  1  0.95433764  0.50962615  0.41248444  1  1.031476  0  0.259485  0.318744  0  3.972301  0
C  C52  1  0.09325495  0.55147662  0.42492463  1  0.456886  0  0.10326  0.012527  0  3.905733  0
C  C53  1  0.07245687  0.50004589  0.56969074  1  0.530496  0  0.105084  0.071728  0  3.951763  0
C  C54  1  0.06811805  0.48076731  0.66891378  1  -0.034516  0  -0.001221  -0.063342  0  3.759701  0
C  C55  1  0.90452363  0.47881599  0.65830602  1  -0.048108  0  -0.060755  -0.168086  0  3.756554  0
C  C56  1  0.48681940  0.52777438  0.33370693  1  1.5894  0  0.218425  0.588287  0  4.165223  0
C  C57  1  0.44000689  0.41849697  0.19727580  1  -0.057648  0  -0.077714  -0.138988  0  3.927231  0
C  C58  1  0.48045049  0.52584368  0.23601195  1  -0.019547  0  -0.015226  -0.017478  0  4.017215  0
C  C59  1  0.51818551  0.62859461  0.18474488  1  -0.042576  0  -0.074147  -0.140547  0  3.93305  0
C  C60  1  0.51301633  0.62713477  0.09284911  1  -0.009674  0  0.004713  0.049619  0  3.997619  0
C  C61  1  0.48185203  0.51451007  0.05247650  1  0.047543  0  0.010222  0.009766  0  3.899631  0
C  C62  1  0.84934413  0.17138110  0.45909385  1  0.302068  0  -0.154118  -0.212866  0  3.993828  0
C  C63  1  0.16464735  0.11987420  0.54844928  1  0.931253  0  0.117399  0.291698  0  3.874125  0
C  C64  1  0.23083051  0.14866318  0.38963931  1  0.926297  0  0.109037  0.275369  0  3.90349  0
C  C65  1  0.80519551  0.42225235  0.29675446  1  0.212602  0  -0.127925  -0.215728  0  3.891997  0
C  C66  1  0.16918522  0.61634847  0.35362341  1  0.92676  0  0.090756  0.238758  0  3.97742  0
C  C67  1  0.12265602  0.35651277  0.70320661  1  0.984196  0  0.114567  0.277149  0  3.876557  0
C  C68  1  0.12620460  0.58210730  0.72402622  1  0.990447  0  0.115609  0.295874  0  3.89746  0
C  C69  1  0.82909699  0.58584018  0.69914365  1  0.959919  0  0.106361  0.307822  0  3.907142  0
C  C70  1  0.57299008  0.85460215  0.07401051  1  0.970515  0  0.105583  0.281546  0  3.945021  0
C  C71  1  0.52147293  0.71757141  0.75292145  1  0.934654  0  0.095038  0.271352  0  3.958175  0
C  C72  1  0.47916180  0.26770205  0.78381658  1  0.914642  0  0.10419  0.265992  0  3.942642  0
C  C73  1  0.37088901  0.18331327  0.11252029  1  0.950109  0  0.102369  0.27268  0  3.934462  0
N  N74  1  0.86686817  0.49227961  0.48489803  1  -1.199834  0  -0.302427  -0.305073  0  3.348837  0
N  N75  1  0.15417037  0.53889566  0.50387788  1  -1.196559  0  -0.295097  -0.211814  0  3.52148  0
N  N76  1  0.77048611  0.14009232  0.53943410  1  -1.06756  0  -0.468622  -0.337828  0  3.419539  0
N  N77  1  0.91845737  0.49038476  0.33058648  1  -1.247234  0  -0.389351  -0.221128  0  3.57596  0
O  O78  1  0.42140875  0.69124518  0.49743052  1  -1.17019  0  -0.312149  -0.553911  0  2.370857  0
O  O79  1  0.64861517  0.69176238  0.52417634  1  -1.164417  0  -0.319216  -0.552087  0  2.341256  0
O  O80  1  0.38151192  0.51474341  0.64153584  1  -1.159004  0  -0.307765  -0.54049  0  2.380856  0
O  O81  1  0.60933009  0.47819338  0.63368798  1  -1.163234  0  -0.293764  -0.536005  0  2.330257  0
O  O82  1  0.39188968  0.32380041  0.52084250  1  -1.158036  0  -0.308072  -0.54701  0  2.35411  0
O  O83  1  0.61223523  0.34019590  0.47478493  1  -1.169131  0  -0.311741  -0.552642  0  2.434393  0
O  O84  1  0.38509297  0.48169852  0.37673296  1  -1.159874  0  -0.310167  -0.556153  0  2.381079  0
O  O85  1  0.59228344  0.57259668  0.36727485  1  -1.167377  0  -0.3104  -0.54264  0  2.312496  0
O  O86  1  0.07883700  0.05685681  0.58708146  1  -1.071135  0  -0.241213  -0.329348  0  2.143243  0
O  O87  1  0.20434650  0.10457730  0.31964911  1  -1.072903  0  -0.249115  -0.337972  0  2.131989  0
O  O88  1  0.13449197  0.61936409  0.27599462  1  -1.075455  0  -0.255105  -0.342026  0  2.135346  0
O  O89  1  0.04866140  0.27506234  0.73167326  1  -1.050832  0  -0.223854  -0.296676  0  2.130672  0
O  O90  1  0.16570444  0.56282497  0.79814254  1  -1.058178  0  -0.231552  -0.309868  0  2.130918  0
O  O91  1  0.82110835  0.59580683  0.77822965  1  -1.045213  0  -0.241526  -0.324583  0  2.127883  0
O  O92  1  0.63016778  0.93776017  0.03226735  1  -1.062291  0  -0.259234  -0.344591  0  2.090721  0
O  O93  1  0.50872254  0.82463146  0.77248833  1  -1.063042  0  -0.25402  -0.337135  0  2.11058  0
O  O94  1  0.46424704  0.25782034  0.70452139  1  -1.056074  0  -0.244205  -0.329943  0  2.193013  0
O  O95  1  0.35322950  0.08559504  0.07777093  1  -1.060682  0  -0.252939  -0.339165  0  2.111663  0
