# generated using pymatgen
data_Cd3H18C14N10(Cl3O)2
_symmetry_space_group_name_H-M   'P 1'
_cell_length_a   8.40613656
_cell_length_b   8.24388115
_cell_length_c   10.65004204
_cell_angle_alpha   90.47580357
_cell_angle_beta   92.67990864
_cell_angle_gamma   106.46818278
_symmetry_Int_Tables_number   1
_chemical_formula_structural   Cd3H18C14N10(Cl3O)2
_chemical_formula_sum   'Cd3 H18 C14 N10 Cl6 O2'
_cell_volume   706.80980688
_cell_formula_units_Z   1
loop_
 _symmetry_equiv_pos_site_id
 _symmetry_equiv_pos_as_xyz
  1  'x, y, z'
loop_
 _atom_site_type_symbol
 _atom_site_label
 _atom_site_symmetry_multiplicity
 _atom_site_fract_x
 _atom_site_fract_y
 _atom_site_fract_z
 _atom_site_occupancy
 _atom_site_hle17_bader_spin_density
 _atom_site_hle17_ddec_charge
 _atom_site_hle17_ddec_spin_density
 _atom_site_hle17_ddec_sum_bond_order
 _atom_site_hle17_magmom
 _atom_site_hse06_10hf_bader_spin_density
 _atom_site_hse06_10hf_ddec_charge
 _atom_site_hse06_10hf_ddec_spin_density
 _atom_site_hse06_10hf_ddec_sum_bond_order
 _atom_site_hse06_10hf_magmom
 _atom_site_hse06_bader_spin_density
 _atom_site_hse06_ddec_charge
 _atom_site_hse06_ddec_spin_density
 _atom_site_hse06_ddec_sum_bond_order
 _atom_site_hse06_magmom
 _atom_site_pbe_bader_spin_density
 _atom_site_pbe_cm5_charge
 _atom_site_pbe_ddec_charge
 _atom_site_pbe_ddec_spin_density
 _atom_site_pbe_ddec_sum_bond_order
 _atom_site_pbe_magmom
Cd  Cd0  1  0.49999879  0.50000007  0.49999860  1  0  0.931289  0  1.985576  0  0  0.764112  0  2.456056  0  0  0.813234  0  2.413063  0  0  0.569564  0.727881  0  2.487215  0
Cd  Cd1  1  0.53423422  0.56253050  0.83664899  1  0  0.976635  0  1.982159  0  0  0.820649  0  2.447194  0  0  0.866224  0  2.404006  0  0  0.58504  0.787273  0  2.478655  0
Cd  Cd2  1  0.46576722  0.43746679  0.16335203  1  0  0.976635  0  1.982099  0  0  0.820605  0  2.447213  0  0  0.866185  0  2.40402  0  0  0.585008  0.787236  0  2.478654  0
H  H3  1  0.02813803  0.79296574  0.61081580  1  0  0.129068  0  0.964267  0  0  0.133558  0  1.030741  0  0  0.137884  0  1.027737  0  0  0.103267  0.130398  0  1.033119  0
H  H4  1  0.97184343  0.20703295  0.38917245  1  0  0.129118  0  0.964195  0  0  0.133581  0  1.030688  0  0  0.137905  0  1.027687  0  0  0.103265  0.130419  0  1.033076  0
H  H5  1  0.92291586  0.61935334  0.41517973  1  0  0.106012  0  0.95181  0  0  0.109871  0  1.023371  0  0  0.112771  0  1.021033  0  0  0.117767  0.107524  0  1.025521  0
H  H6  1  0.07707711  0.38065100  0.58481458  1  0  0.106029  0  0.951793  0  0  0.109875  0  1.023365  0  0  0.112797  0  1.020976  0  0  0.117778  0.107524  0  1.025534  0
H  H7  1  0.28678730  0.93591927  0.20607453  1  0  0.123243  0  0.917138  0  0  0.133966  0  0.970986  0  0  0.137044  0  0.967956  0  0  0.135239  0.131717  0  0.973199  0
H  H8  1  0.71323786  0.06407388  0.79393087  1  0  0.123113  0  0.917219  0  0  0.133899  0  0.971018  0  0  0.136977  0  0.967989  0  0  0.135236  0.131647  0  0.97323  0
H  H9  1  0.40814030  0.12060683  0.39265032  1  0  0.118144  0  0.993431  0  0  0.122643  0  1.062613  0  0  0.126206  0  1.061295  0  0  0.0963  0.120241  0  1.063283  0
H  H10  1  0.59186323  0.87939283  0.60735830  1  0  0.118198  0  0.993498  0  0  0.122678  0  1.062682  0  0  0.12624  0  1.061364  0  0  0.096329  0.120273  0  1.063349  0
H  H11  1  0.93992590  0.55658065  0.21644546  1  0  0.126399  0  0.945586  0  0  0.142004  0  1.013132  0  0  0.143827  0  1.011938  0  0  0.103809  0.140553  0  1.014169  0
H  H12  1  0.06007903  0.44342041  0.78354351  1  0  0.126342  0  0.945552  0  0  0.141945  0  1.013125  0  0  0.143767  0  1.01193  0  0  0.103776  0.140471  0  1.014183  0
H  H13  1  0.12808027  0.64834325  0.13821357  1  0  0.126925  0  0.979281  0  0  0.144637  0  1.044316  0  0  0.146143  0  1.043414  0  0  0.094821  0.143382  0  1.045295  0
H  H14  1  0.87192838  0.35166529  0.86177750  1  0  0.126938  0  0.979208  0  0  0.144665  0  1.044258  0  0  0.146169  0  1.043359  0  0  0.094848  0.143429  0  1.045206  0
H  H15  1  0.96399209  0.74837829  0.13352556  1  0  0.109461  0  0.940892  0  0  0.127093  0  1.007397  0  0  0.127778  0  1.00699  0  0  0.10621  0.126595  0  1.00763  0
H  H16  1  0.03600908  0.25162551  0.86647085  1  0  0.109324  0  0.940972  0  0  0.127033  0  1.007402  0  0  0.127717  0  1.006997  0  0  0.106198  0.126532  0  1.007636  0
H  H17  1  0.82817825  0.81061324  0.90389373  1  0  0.415538  0  0.826329  0  0  0.397464  0  0.882616  0  0  0.40605  0  0.872964  0  0  0.310382  0.391023  0  0.890085  0
H  H18  1  0.17182659  0.18937996  0.09610733  1  0  0.41558  0  0.826353  0  0  0.397489  0  0.88266  0  0  0.406074  0  0.873009  0  0  0.310417  0.391047  0  0.890131  0
H  H19  1  0.71167092  0.83118710  0.01277874  1  0  0.383356  0  0.937809  0  0  0.336511  0  1.02681  0  0  0.348218  0  1.010117  0  0  0.277007  0.328394  0  1.038293  0
H  H20  1  0.28833410  0.16881385  0.98722056  1  0  0.383327  0  0.937855  0  0  0.336485  0  1.02685  0  0  0.348192  0  1.010156  0  0  0.276986  0.328369  0  1.038331  0
C  C21  1  0.28012533  0.08021260  0.63040496  1  0  0.238664  0  3.786718  0  0  0.219736  0  4.060568  0  0  0.225263  0  4.078692  0  0  0.205563  0.216257  0  4.04795  0
C  C22  1  0.71986924  0.91978896  0.36959968  1  0  0.23865  0  3.786756  0  0  0.219819  0  4.060525  0  0  0.225349  0  4.078644  0  0  0.205603  0.216345  0  4.047904  0
C  C23  1  0.22447568  0.97468501  0.51775422  1  0  0.088614  0  3.745325  0  0  0.098349  0  3.980048  0  0  0.104681  0  3.998613  0  0  0.029413  0.093959  0  3.967425  0
C  C24  1  0.77551462  0.02531813  0.48224750  1  0  0.088657  0  3.745127  0  0  0.098258  0  3.979974  0  0  0.10459  0  3.998535  0  0  0.029368  0.093873  0  3.967345  0
C  C25  1  0.08904435  0.82931856  0.52331991  1  0  -0.117664  0  3.691686  0  0  -0.140668  0  3.947399  0  0  -0.147887  0  3.966046  0  0  -0.072652  -0.13596  0  3.934925  0
C  C26  1  0.91094154  0.17068234  0.47667602  1  0  -0.117719  0  3.691591  0  0  -0.140649  0  3.947323  0  0  -0.147871  0  3.965974  0  0  -0.072607  -0.135944  0  3.934861  0
C  C27  1  0.02943908  0.73165059  0.41638034  1  0  0.09416  0  3.582205  0  0  0.051292  0  3.836122  0  0  0.059084  0  3.851943  0  0  0.060973  0.046456  0  3.825549  0
C  C28  1  0.97055434  0.26835500  0.58361588  1  0  0.094182  0  3.582166  0  0  0.051315  0  3.836058  0  0  0.059114  0  3.85188  0  0  0.060951  0.046472  0  3.825493  0
C  C29  1  0.23604595  0.90959226  0.29831703  1  0  0.104873  0  3.55317  0  0  0.063504  0  3.800609  0  0  0.071981  0  3.815125  0  0  0.070052  0.057763  0  3.79103  0
C  C30  1  0.76395774  0.09040101  0.70168493  1  0  0.104981  0  3.55313  0  0  0.063519  0  3.800619  0  0  0.071994  0  3.815133  0  0  0.069991  0.057781  0  3.791029  0
C  C31  1  0.29996378  0.01211841  0.40263222  1  0  -0.119725  0  3.667009  0  0  -0.141827  0  3.921017  0  0  -0.149521  0  3.940431  0  0  -0.071779  -0.137001  0  3.907978  0
C  C32  1  0.70003623  0.98788148  0.59737537  1  0  -0.119722  0  3.667021  0  0  -0.141742  0  3.921069  0  0  -0.149432  0  3.940481  0  0  -0.071743  -0.13693  0  3.90805  0
C  C33  1  0.02893386  0.67470550  0.19071009  1  0  -0.198692  0  3.586884  0  0  -0.305846  0  3.836442  0  0  -0.303076  0  3.844387  0  0  -0.138274  -0.30733  0  3.830989  0
C  C34  1  0.97107205  0.32530190  0.80928276  1  0  -0.198447  0  3.586706  0  0  -0.305703  0  3.836327  0  0  -0.302933  0  3.844276  0  0  -0.138226  -0.307179  0  3.83086  0
N  N35  1  0.38659207  0.23836272  0.63577126  1  0  -0.302066  0  3.082024  0  0  -0.25925  0  3.358178  0  0  -0.273043  0  3.378197  0  0  -0.216996  -0.249414  0  3.344084  0
N  N36  1  0.61340323  0.76163752  0.36423150  1  0  -0.302026  0  3.082262  0  0  -0.259209  0  3.358368  0  0  -0.272998  0  3.37838  0  0  -0.217001  -0.249371  0  3.344267  0
N  N37  1  0.39866868  0.28403554  0.75689069  1  0  -0.120794  0  3.213308  0  0  -0.080878  0  3.503356  0  0  -0.090343  0  3.524306  0  0  -0.118032  -0.073959  0  3.488448  0
N  N38  1  0.60133181  0.71596953  0.24311135  1  0  -0.120905  0  3.21351  0  0  -0.081027  0  3.503594  0  0  -0.090496  0  3.524542  0  0  -0.118103  -0.074108  0  3.488681  0
N  N39  1  0.30395916  0.16020089  0.82263629  1  0  -0.086554  0  3.082201  0  0  -0.052353  0  3.36169  0  0  -0.05528  0  3.374623  0  0  -0.081079  -0.050009  0  3.352466  0
N  N40  1  0.69604060  0.83980550  0.17736857  1  0  -0.086471  0  3.082387  0  0  -0.052235  0  3.361866  0  0  -0.055162  0  3.3748  0  0  -0.081018  -0.049895  0  3.352649  0
N  N41  1  0.22708212  0.03099279  0.74589807  1  0  -0.261522  0  2.886628  0  0  -0.255076  0  3.163873  0  0  -0.260649  0  3.174318  0  0  -0.214607  -0.251412  0  3.156972  0
N  N42  1  0.77291213  0.96901137  0.25410659  1  0  -0.261622  0  2.8869  0  0  -0.255205  0  3.164122  0  0  -0.260778  0  3.174566  0  0  -0.214662  -0.251542  0  3.157224  0
N  N43  1  0.10125499  0.77369472  0.30547133  1  0  0.042832  0  3.561919  0  0  0.142542  0  3.77287  0  0  0.129656  0  3.79965  0  0  -0.209905  0.151031  0  3.754728  0
N  N44  1  0.89874524  0.22630268  0.69452590  1  0  0.042783  0  3.561784  0  0  0.142518  0  3.772759  0  0  0.129628  0  3.799541  0  0  -0.209895  0.151012  0  3.75461  0
Cl  Cl45  1  0.34769125  0.64405377  0.65165266  1  0  -0.538672  0  1.053828  0  0  -0.474409  0  1.334008  0  0  -0.494583  0  1.315257  0  0  -0.282519  -0.459311  0  1.348218  0
Cl  Cl46  1  0.65230871  0.35594618  0.34834930  1  0  -0.53867  0  1.053872  0  0  -0.474393  0  1.334044  0  0  -0.494574  0  1.315312  0  0  -0.282511  -0.459299  0  1.348254  0
Cl  Cl47  1  0.75335188  0.58289108  0.66548860  1  0  -0.549264  0  1.000275  0  0  -0.485202  0  1.278449  0  0  -0.504755  0  1.259425  0  0  -0.296277  -0.470496  0  1.29278  0
Cl  Cl48  1  0.24664479  0.41710264  0.33451223  1  0  -0.549282  0  1.000265  0  0  -0.485223  0  1.27845  0  0  -0.504764  0  1.259399  0  0  -0.296291  -0.470518  0  1.292778  0
Cl  Cl49  1  0.31712871  0.58362549  0.99279148  1  0  -0.558147  0  1.002438  0  0  -0.494649  0  1.264202  0  0  -0.513467  0  1.243189  0  0  -0.304566  -0.480621  0  1.27994  0
Cl  Cl50  1  0.68287307  0.41636917  0.00721139  1  0  -0.558156  0  1.002372  0  0  -0.494665  0  1.26413  0  0  -0.51348  0  1.243117  0  0  -0.304576  -0.480638  0  1.279877  0
O  O51  1  0.71977274  0.82613528  0.91854198  1  0  -0.796462  0  1.915066  0  0  -0.735711  0  2.10753  0  0  -0.756834  0  2.079274  0  0  -0.573916  -0.720975  0  2.127367  0
O  O52  1  0.28023177  0.17386052  0.08145817  1  0  -0.796486  0  1.915096  0  0  -0.735695  0  2.10758  0  0  -0.75682  0  2.079324  0  0  -0.573931  -0.720961  0  2.127417  0
