# generated using pymatgen
data_AgH17C24(NO2)2
_symmetry_space_group_name_H-M   'P 1'
_cell_length_a   10.17265896
_cell_length_b   10.21467886
_cell_length_c   10.71744497
_cell_angle_alpha   62.60305133
_cell_angle_beta   79.66051551
_cell_angle_gamma   79.07987293
_symmetry_Int_Tables_number   1
_chemical_formula_structural   AgH17C24(NO2)2
_chemical_formula_sum   'Ag2 H34 C48 N4 O8'
_cell_volume   965.38490303
_cell_formula_units_Z   2
loop_
 _symmetry_equiv_pos_site_id
 _symmetry_equiv_pos_as_xyz
  1  'x, y, z'
loop_
 _atom_site_type_symbol
 _atom_site_label
 _atom_site_symmetry_multiplicity
 _atom_site_fract_x
 _atom_site_fract_y
 _atom_site_fract_z
 _atom_site_occupancy
 _atom_site_pbe_bader_spin_density
 _atom_site_pbe_cm5_charge
 _atom_site_pbe_ddec_charge
 _atom_site_pbe_ddec_spin_density
 _atom_site_pbe_ddec_sum_bond_order
 _atom_site_pbe_magmom
Ag  Ag0  1  0.07561311  0.12428317  0.94257786  1  0  0.437678  0.379624  0  1.859251  0
Ag  Ag1  1  0.92438613  0.87571821  0.05742097  1  0  0.437681  0.379605  0  1.859293  0
H  H2  1  0.62394912  0.00549852  0.04714435  1  0  0.110647  0.082159  0  1.036799  0
H  H3  1  0.37605185  0.99450510  0.95285506  1  0  0.110655  0.082138  0  1.036861  0
H  H4  1  0.39475160  0.94583202  0.17814744  1  0  0.103589  0.107322  0  1.032669  0
H  H5  1  0.60524977  0.05416825  0.82184967  1  0  0.103573  0.107291  0  1.032708  0
H  H6  1  0.38039979  0.74718660  0.42617053  1  0  0.102505  0.099897  0  1.035065  0
H  H7  1  0.61960157  0.25281368  0.57382843  1  0  0.102524  0.099939  0  1.035036  0
H  H8  1  0.81476571  0.69427546  0.39310791  1  0  0.118072  0.097693  0  1.012644  0
H  H9  1  0.18523452  0.30572593  0.60689169  1  0  0.118069  0.09769  0  1.01264  0
H  H10  1  0.39824294  0.67743377  0.64683660  1  0  0.096284  0.093616  0  1.060986  0
H  H11  1  0.60175817  0.32256872  0.35316050  1  0  0.096282  0.09357  0  1.061081  0
H  H12  1  0.39629013  0.49192227  0.89518347  1  0  0.099784  0.09727  0  1.022619  0
H  H13  1  0.60370985  0.50808132  0.10481332  1  0  0.099791  0.09728  0  1.022615  0
H  H14  1  0.59396175  0.29543441  0.97628931  1  0  0.103772  0.106253  0  1.013883  0
H  H15  1  0.40603535  0.70456806  0.02370938  1  0  0.103754  0.106242  0  1.013854  0
H  H16  1  0.78993340  0.47064731  0.55306914  1  0  0.104607  0.105861  0  1.056596  0
H  H17  1  0.21006721  0.52935075  0.44693186  1  0  0.104589  0.10584  0  1.056548  0
H  H18  1  0.22736026  0.33113833  0.98337129  1  0  0.112134  0.082961  0  1.027961  0
H  H19  1  0.77264121  0.66886085  0.01663001  1  0  0.112133  0.082966  0  1.027977  0
H  H20  1  0.34118148  0.35037399  0.16413541  1  0  0.100827  0.10553  0  1.036087  0
H  H21  1  0.65881887  0.64962630  0.83586558  1  0  0.100847  0.105566  0  1.036043  0
H  H22  1  0.32070554  0.15665105  0.41134967  1  0  0.102406  0.09853  0  1.027157  0
H  H23  1  0.67929369  0.84335034  0.58865010  1  0  0.102417  0.098532  0  1.027147  0
H  H24  1  0.07110404  0.95008757  0.28329671  1  0  0.112955  0.088782  0  1.041554  0
H  H25  1  0.92889844  0.04991162  0.71670442  1  0  0.112962  0.088813  0  1.041531  0
H  H26  1  0.24792700  0.03839540  0.60876377  1  0  0.096175  0.090618  0  1.058227  0
H  H27  1  0.75207361  0.96160266  0.39123724  1  0  0.096181  0.090625  0  1.058211  0
H  H28  1  0.21775667  0.84939932  0.85462197  1  0  0.099938  0.110301  0  1.063199  0
H  H29  1  0.78224482  0.15059985  0.14537747  1  0  0.099937  0.110297  0  1.063205  0
H  H30  1  0.11862924  0.61947714  0.91250822  1  0  0.108607  0.120239  0  1.013064  0
H  H31  1  0.88137124  0.38052204  0.08749324  1  0  0.108614  0.120254  0  1.013079  0
H  H32  1  0.09495303  0.76400123  0.47126116  1  0  0.103645  0.115232  0  1.043736  0
H  H33  1  0.90504745  0.23599794  0.52873938  1  0  0.10367  0.11529  0  1.043776  0
H  H34  1  0.97694670  0.42590569  0.66287669  1  0  0.29855  0.356103  0  0.989257  0
H  H35  1  0.02305377  0.57409349  0.33712477  1  0  0.298583  0.356139  0  0.989186  0
C  C36  1  0.71891175  0.74432565  0.34896143  1  0  0.042964  0.030314  0  3.91324  0
C  C37  1  0.28108835  0.25567685  0.65103676  1  0  0.042977  0.030382  0  3.913117  0
C  C38  1  0.59652526  0.70222520  0.43184039  1  0  -0.005496  0.020146  0  3.991496  0
C  C39  1  0.40347720  0.29777399  0.56816168  1  0  -0.005511  0.020082  0  3.991558  0
C  C40  1  0.59404653  0.58823021  0.58046440  1  0  -0.01037  0.063829  0  4.006581  0
C  C41  1  0.40595283  0.41177006  0.41953584  1  0  -0.010389  0.063805  0  4.00664  0
C  C42  1  0.70354153  0.47761236  0.62733402  1  0  -0.082353  -0.144917  0  3.922976  0
C  C43  1  0.29645922  0.52238458  0.37266653  1  0  -0.08233  -0.144891  0  3.922948  0
C  C44  1  0.70353529  0.37313794  0.76907967  1  0  -0.019772  -0.02932  0  3.980406  0
C  C45  1  0.29646320  0.62686121  0.23092120  1  0  -0.019818  -0.029361  0  3.980467  0
C  C46  1  0.82290778  0.25806481  0.81817790  1  0  0.200568  0.562869  0  4.195378  0
C  C47  1  0.17709009  0.74193101  0.18182456  1  0  0.200666  0.562948  0  4.195329  0
C  C48  1  0.61180752  0.91947497  0.15559601  1  0  0.036619  0.075447  0  3.944446  0
C  C49  1  0.38819270  0.08052642  0.84440359  1  0  0.036613  0.075495  0  3.944514  0
C  C50  1  0.48572237  0.88663226  0.22917426  1  0  -0.087907  -0.124842  0  4.002461  0
C  C51  1  0.51428010  0.11336693  0.77082781  1  0  -0.087896  -0.124814  0  4.002503  0
C  C52  1  0.47805170  0.77653612  0.36791520  1  0  -0.069314  -0.075915  0  3.934891  0
C  C53  1  0.52194978  0.22346305  0.63208424  1  0  -0.069304  -0.075922  0  3.935009  0
C  C54  1  0.48333358  0.59085777  0.67928016  1  0  -0.085184  -0.117002  0  3.942446  0
C  C55  1  0.51666565  0.40914360  0.32071867  1  0  -0.085177  -0.116942  0  3.942536  0
C  C56  1  0.48256946  0.48597282  0.82050784  1  0  -0.093286  -0.086309  0  4.026086  0
C  C57  1  0.51742890  0.51402744  0.17949162  1  0  -0.093265  -0.086341  0  4.026117  0
C  C58  1  0.59210705  0.37715609  0.86608372  1  0  -0.084568  -0.098042  0  3.969914  0
C  C59  1  0.40789119  0.62284528  0.13391528  1  0  -0.084553  -0.097984  0  3.969816  0
C  C60  1  0.22113589  0.24894609  0.09366453  1  0  0.04058  0.079374  0  3.947099  0
C  C61  1  0.77886447  0.75105419  0.90633553  1  0  0.040602  0.079393  0  3.94708  0
C  C62  1  0.28318481  0.25898706  0.19412403  1  0  -0.088444  -0.122291  0  3.990573  0
C  C63  1  0.71681541  0.74101433  0.80587649  1  0  -0.088457  -0.12234  0  3.990616  0
C  C64  1  0.26999038  0.15054639  0.33326793  1  0  -0.070369  -0.079174  0  3.929862  0
C  C65  1  0.73001122  0.84945168  0.66673384  1  0  -0.070373  -0.079128  0  3.92994  0
C  C66  1  0.19291221  0.03445302  0.37166841  1  0  -0.003989  0.024673  0  3.97574  0
C  C67  1  0.80709040  0.96554504  0.62833133  1  0  -0.004026  0.024598  0  3.975757  0
C  C68  1  0.13342971  0.03515231  0.26261499  1  0  0.045178  0.039055  0  3.898589  0
C  C69  1  0.86657077  0.96484686  0.73738555  1  0  0.045176  0.038987  0  3.898614  0
C  C70  1  0.17494150  0.91754315  0.51904147  1  0  -0.012631  0.052243  0  4.011928  0
C  C71  1  0.82506211  0.08245493  0.48095997  1  0  -0.012583  0.05238  0  4.012008  0
C  C72  1  0.20999016  0.93657213  0.63035608  1  0  -0.085565  -0.113081  0  3.948014  0
C  C73  1  0.79000831  0.06342704  0.36964758  1  0  -0.085558  -0.113073  0  3.948095  0
C  C74  1  0.19308159  0.82991477  0.77023636  1  0  -0.092496  -0.089479  0  4.003782  0
C  C75  1  0.80692128  0.17008107  0.22976432  1  0  -0.092514  -0.089547  0  4.003855  0
C  C76  1  0.13886605  0.70102082  0.80322390  1  0  -0.078012  -0.082728  0  3.937289  0
C  C77  1  0.86113456  0.29897723  0.19677711  1  0  -0.07801  -0.082706  0  3.937304  0
C  C78  1  0.10401187  0.67886006  0.69419467  1  0  -0.021423  -0.046501  0  3.998356  0
C  C79  1  0.89598723  0.32114243  0.30580462  1  0  -0.021447  -0.046544  0  3.998352  0
C  C80  1  0.12241140  0.78573773  0.55322528  1  0  -0.084044  -0.148225  0  3.912264  0
C  C81  1  0.87759021  0.21426033  0.44677556  1  0  -0.084094  -0.148366  0  3.912399  0
C  C82  1  0.04577190  0.53973399  0.73372201  1  0  0.222803  0.566756  0  4.130763  0
C  C83  1  0.95422182  0.46027181  0.26627670  1  0  0.222896  0.566852  0  4.130501  0
N  N84  1  0.72677492  0.84873694  0.21434619  1  0  -0.330964  -0.204944  0  3.533438  0
N  N85  1  0.27322617  0.15126558  0.78565370  1  0  -0.330971  -0.204996  0  3.533377  0
N  N86  1  0.14799070  0.13814588  0.12755252  1  0  -0.331521  -0.203857  0  3.560598  0
N  N87  1  0.85201079  0.86185329  0.87244692  1  0  -0.331558  -0.203855  0  3.560666  0
O  O88  1  0.81138190  0.15380745  0.94185411  1  0  -0.310419  -0.535772  0  2.323123  0
O  O89  1  0.18861373  0.84619057  0.05814680  1  0  -0.310468  -0.535866  0  2.323199  0
O  O90  1  0.93166191  0.27209001  0.73297154  1  0  -0.325267  -0.558016  0  2.30429  0
O  O91  1  0.06833557  0.72790916  0.26703136  1  0  -0.325278  -0.557991  0  2.304122  0
O  O92  1  0.02864443  0.44517318  0.85760959  1  0  -0.291385  -0.502901  0  2.202473  0
O  O93  1  0.97133254  0.55483919  0.14238991  1  0  -0.291452  -0.50294  0  2.202341  0
O  O94  1  0.01485305  0.52667553  0.62419388  1  0  -0.336107  -0.489363  0  2.33722  0
O  O95  1  0.98515269  0.47332144  0.37580490  1  0  -0.336161  -0.489406  0  2.337094  0
