# generated using pymatgen
data_Cd2H46C46N8O9
_symmetry_space_group_name_H-M   'P 1'
_cell_length_a   9.93296397
_cell_length_b   10.54512852
_cell_length_c   15.12990365
_cell_angle_alpha   76.10350428
_cell_angle_beta   77.51095131
_cell_angle_gamma   66.31412202
_symmetry_Int_Tables_number   1
_chemical_formula_structural   Cd2H46C46N8O9
_chemical_formula_sum   'Cd2 H46 C46 N8 O9'
_cell_volume   1395.95121118
_cell_formula_units_Z   1
loop_
 _symmetry_equiv_pos_site_id
 _symmetry_equiv_pos_as_xyz
  1  'x, y, z'
loop_
 _atom_site_type_symbol
 _atom_site_label
 _atom_site_symmetry_multiplicity
 _atom_site_fract_x
 _atom_site_fract_y
 _atom_site_fract_z
 _atom_site_occupancy
 _atom_site_pbe_bader_charge
 _atom_site_pbe_bader_spin_density
 _atom_site_pbe_cm5_charge
 _atom_site_pbe_ddec_charge
 _atom_site_pbe_ddec_spin_density
 _atom_site_pbe_ddec_sum_bond_order
 _atom_site_pbe_magmom
Cd  Cd0  1  0.01139103  0.20767437  0.99362276  1  1.275368  0  0.76816  0.879143  0  2.201621  0
Cd  Cd1  1  0.00003835  0.56802768  0.04823273  1  1.312799  0  0.792858  0.933727  0  2.18032  0
H  H2  1  0.18195451  0.34924050  0.20130341  1  0.19182  0  0.120085  0.100496  0  1.035494  0
H  H3  1  0.49124171  0.23467742  0.95921738  1  0.004679  0  0.088797  0.034629  0  0.97505  0
H  H4  1  0.76739898  0.22412725  0.16932252  1  0.114957  0  0.120176  0.092102  0  1.00063  0
H  H5  1  0.21370703  0.97322172  0.14109200  1  0.129634  0  0.127458  0.106251  0  0.984318  0
H  H6  1  0.75127671  0.18255247  0.34058527  1  0.058119  0  0.103274  0.104819  0  0.997764  0
H  H7  1  0.69241317  0.53458728  0.38319423  1  0.047242  0  0.101105  0.103059  0  1.001694  0
H  H8  1  0.04372241  0.99212299  0.88940347  1  0.629681  0  0.275228  0.323134  0  1.048582  0
H  H9  1  0.99608588  0.93081386  0.99339773  1  0.649695  0  0.284712  0.392153  0  0.948742  0
H  H10  1  0.16154050  0.28199014  0.37166816  1  0.055155  0  0.104444  0.108922  0  1.001657  0
H  H11  1  0.57218164  0.61182465  0.87447693  1  0.004158  0  0.076418  0.065022  0  1.008062  0
H  H12  1  0.48857028  0.49023913  0.93839281  1  0.022194  0  0.086979  0.080087  0  1.026643  0
H  H13  1  0.22002878  0.92670095  0.30921541  1  0.040837  0  0.108274  0.112223  0  0.993752  0
H  H14  1  0.73499598  0.59539659  0.21061184  1  0.152877  0  0.124155  0.10952  0  0.995328  0
H  H15  1  0.36265211  0.36992268  0.08741588  1  0.44947  0  0.264277  0.269991  0  1.034419  0
H  H16  1  0.53989585  0.27790693  0.08808413  1  0.413522  0  0.261966  0.256353  0  1.032136  0
H  H17  1  0.22811880  0.23011972  0.81068053  1  0.155505  0  0.119283  0.10095  0  1.009103  0
H  H18  1  0.43896005  0.84214735  0.97472158  1  0.380354  0  0.269616  0.259402  0  1.008464  0
H  H19  1  0.27675573  0.91998942  0.94125478  1  0.45346  0  0.265657  0.269403  0  1.025905  0
H  H20  1  0.86393439  0.07735329  0.47511370  1  0.086949  0  0.100715  0.093189  0  1.005437  0
H  H21  1  0.29332880  0.71064900  0.89571197  1  0.003457  0  0.092274  0.044304  0  0.999196  0
H  H22  1  0.70273931  0.02776210  0.11699359  1  0.056484  0  0.099538  0.117753  0  0.986921  0
H  H23  1  0.73663901  0.06186505  0.99699392  1  0.059522  0  0.095499  0.111364  0  0.998886  0
H  H24  1  0.47228293  0.99261920  0.11393152  1  0.012545  0  0.084974  0.082044  0  0.990272  0
H  H25  1  0.51612423  0.98986553  0.99452284  1  0.035243  0  0.089129  0.087067  0  1.015972  0
H  H26  1  0.13033085  0.32333332  0.50668283  1  0.063175  0  0.102011  0.096435  0  1.005432  0
H  H27  1  0.79125538  0.41204399  0.52708874  1  0.051978  0  0.100366  0.094823  0  1.000213  0
H  H28  1  0.20522053  0.95129558  0.45273429  1  0.055422  0  0.101481  0.098537  0  1.002989  0
H  H29  1  0.31414363  0.91545794  0.58866628  1  0.060136  0  0.099609  0.102513  0  1.006419  0
H  H30  1  0.28649927  0.91142009  0.75864652  1  0.117975  0  0.116184  0.089828  0  1.003083  0
H  H31  1  0.83830741  0.03279911  0.61814416  1  0.065107  0  0.104576  0.108479  0  1.002359  0
H  H32  1  0.83216946  0.02532843  0.78407572  1  0.090786  0  0.12079  0.09047  0  0.966243  0
H  H33  1  0.77257765  0.35324504  0.84484328  1  0.11851  0  0.118527  0.094697  0  1.016747  0
H  H34  1  0.76619403  0.39018220  0.67633638  1  0.062792  0  0.103506  0.106817  0  1.0021  0
H  H35  1  0.24392782  0.26236451  0.63859440  1  0.044431  0  0.10257  0.104212  0  0.994957  0
H  H36  1  0.61844543  0.64647071  0.02463719  1  0.093528  0  0.096894  0.126596  0  1.028676  0
H  H37  1  0.52346949  0.53534406  0.08517843  1  0.069512  0  0.10484  0.130728  0  0.964381  0
H  H38  1  0.77740607  0.72790790  0.73348880  1  0.066511  0  0.105442  0.108478  0  1.009885  0
H  H39  1  0.79063044  0.68458948  0.89949834  1  0.102  0  0.124081  0.100213  0  0.995587  0
H  H40  1  0.25794363  0.56594932  0.68960517  1  0.040483  0  0.102057  0.105559  0  0.99806  0
H  H41  1  0.24908422  0.52795597  0.86074971  1  0.122212  0  0.123249  0.095253  0  0.987633  0
H  H42  1  0.79121233  0.73680533  0.59599678  1  0.050689  0  0.098752  0.090695  0  1.010642  0
H  H43  1  0.12438755  0.64700979  0.40278361  1  0.079607  0  0.102222  0.105684  0  0.996719  0
H  H44  1  0.13067166  0.64573777  0.55491863  1  0.046557  0  0.099781  0.097153  0  0.999155  0
H  H45  1  0.65080557  0.84769302  0.47661513  1  0.013414  0  0.092328  0.091102  0  1.021174  0
H  H46  1  0.08164884  0.71795618  0.23800398  1  0.168806  0  0.114087  0.098604  0  1.016049  0
H  H47  1  0.62865134  0.90917083  0.30860663  1  0.078859  0  0.110852  0.078529  0  0.97798  0
C  C48  1  0.07637410  0.38952883  0.24487494  1  0.508272  0  0.055341  0.109105  0  3.912019  0
C  C49  1  0.43874454  0.19630357  0.02772005  1  0.36045  0  -0.004229  0.07546  0  3.916795  0
C  C50  1  0.86479594  0.15943858  0.20383244  1  0.50018  0  0.054422  0.10428  0  3.950151  0
C  C51  1  0.11499314  0.02162343  0.18768023  1  0.507229  0  0.065543  0.125666  0  3.899535  0
C  C52  1  0.85690863  0.13605426  0.29877828  1  -0.016024  0  -0.083888  -0.17628  0  3.95618  0
C  C53  1  0.80290438  0.49072688  0.34555659  1  -0.086504  0  -0.088607  -0.187076  0  3.967514  0
C  C54  1  0.06337216  0.35292622  0.33975733  1  -0.081046  0  -0.085764  -0.180136  0  3.943503  0
C  C55  1  0.50652286  0.58579047  0.94006755  1  0.007461  0  -0.16649  -0.160426  0  3.937613  0
C  C56  1  0.11687559  0.99517739  0.28189413  1  0.00983  0  -0.077317  -0.168797  0  3.920484  0
C  C57  1  0.82471406  0.52457293  0.25021472  1  0.567048  0  0.052231  0.096413  0  3.947385  0
C  C58  1  0.12936088  0.26724882  0.77658477  1  0.448836  0  0.048696  0.094939  0  3.95189  0
C  C59  1  0.98587622  0.05491696  0.34012813  1  -0.022604  0  0.002921  0.129933  0  4.0518  0
C  C60  1  0.28088565  0.22346184  0.01372600  1  1.527225  0  0.196876  0.554989  0  4.159708  0
C  C61  1  0.97689919  0.03816594  0.43926007  1  -0.097155  0  -0.076387  -0.102342  0  3.978358  0
C  C62  1  0.26713315  0.67261695  0.04243955  1  1.576571  0  0.191895  0.572453  0  4.174363  0
C  C63  1  0.35641091  0.70840420  0.94821127  1  0.338476  0  -0.013926  0.057928  0  3.916351  0
C  C64  1  0.68850285  0.00019934  0.05474436  1  -0.036804  0  -0.168537  -0.283933  0  3.917046  0
C  C65  1  0.52536340  0.03700845  0.04914686  1  -0.002599  0  -0.167931  -0.164203  0  3.932746  0
C  C66  1  0.92482184  0.40722438  0.39298520  1  -0.0515  0  0.000508  0.13487  0  4.057579  0
C  C67  1  0.01769814  0.34447426  0.54301066  1  -0.104072  0  -0.084562  -0.123965  0  3.990736  0
C  C68  1  0.90566212  0.38553155  0.49291718  1  0.013378  0  -0.081021  -0.112362  0  3.970214  0
C  C69  1  0.09171829  0.98600414  0.48847189  1  -0.044015  0  -0.088345  -0.137707  0  3.977953  0
C  C70  1  0.07785176  0.97754436  0.58737865  1  0.049957  0  0.002035  0.143723  0  4.044956  0
C  C71  1  0.20469120  0.94024540  0.62969948  1  -0.095567  0  -0.09302  -0.197831  0  3.964307  0
C  C72  1  0.19038476  0.93792176  0.72371497  1  0.524058  0  0.048375  0.090045  0  3.974271  0
C  C73  1  0.94109643  0.00696080  0.64513259  1  -0.03666  0  -0.087843  -0.182916  0  3.961262  0
C  C74  1  0.93715420  0.00207330  0.73805332  1  0.47444  0  0.047383  0.085788  0  4.00503  0
C  C75  1  0.87397117  0.33597495  0.79578379  1  0.521713  0  0.045832  0.086655  0  3.966657  0
C  C76  1  0.87197031  0.35544246  0.70205412  1  -0.085794  0  -0.087533  -0.181257  0  3.957018  0
C  C77  1  0.00636437  0.32869418  0.64204568  1  0.095126  0  0.002004  0.139048  0  4.054842  0
C  C78  1  0.13660113  0.28454351  0.68191022  1  -0.053702  0  -0.087044  -0.182209  0  3.964424  0
C  C79  1  0.73455590  0.42905122  0.01562777  1  1.510238  0  0.19636  0.619043  0  4.152031  0
C  C80  1  0.59279792  0.55652912  0.02016884  1  -0.088776  0  -0.173249  -0.305584  0  3.900515  0
C  C81  1  0.78402552  0.84591751  0.05635563  1  1.528633  0  0.196335  0.613719  0  4.183307  0
C  C82  1  0.88589149  0.68237230  0.75705435  1  -0.027551  0  -0.085379  -0.181  0  3.947062  0
C  C83  1  0.01826647  0.64820459  0.69506025  1  0.003931  0  0.004068  0.141662  0  4.033165  0
C  C84  1  0.89182510  0.65884843  0.85047884  1  0.511654  0  0.050283  0.099863  0  3.946129  0
C  C85  1  0.15132380  0.59334931  0.73373323  1  -0.050732  0  -0.088189  -0.188716  0  3.958059  0
C  C86  1  0.14772937  0.57189178  0.82864539  1  0.50129  0  0.054475  0.101682  0  3.951885  0
C  C87  1  0.89938154  0.71415876  0.55319327  1  -0.117753  0  -0.08209  -0.11002  0  3.968149  0
C  C88  1  0.89044371  0.74308849  0.45501360  1  -0.070879  0  -0.007277  0.126703  0  4.054792  0
C  C89  1  0.01191337  0.70576628  0.38571519  1  -0.049698  0  -0.085974  -0.173962  0  3.926219  0
C  C90  1  0.02098611  0.66846482  0.59582807  1  0.054696  0  -0.086469  -0.128834  0  3.975429  0
C  C91  1  0.74950864  0.81660483  0.42588664  1  -0.056766  0  -0.100249  -0.204977  0  3.997055  0
C  C92  1  0.98869241  0.74419916  0.29359481  1  0.482994  0  0.049297  0.096032  0  3.936497  0
C  C93  1  0.73727835  0.85092349  0.33239319  1  0.544522  0  0.03571  0.071279  0  4.052153  0
N  N94  1  0.99163442  0.10495671  0.14907157  1  -1.196297  0  -0.316659  -0.212446  0  3.448317  0
N  N95  1  0.95925951  0.47646290  0.20116209  1  -1.210045  0  -0.319262  -0.211829  0  3.484213  0
N  N96  1  0.00028373  0.29220516  0.83272599  1  -1.236632  0  -0.321962  -0.225519  0  3.46573  0
N  N97  1  0.43854495  0.26868129  0.09890822  1  -1.178695  0  -0.664818  -0.6724  0  3.202867  0
N  N98  1  0.02026280  0.60317953  0.88636985  1  -1.22436  0  -0.317188  -0.222299  0  3.479888  0
N  N99  1  0.37766882  0.84189616  0.92858943  1  -1.156484  0  -0.66741  -0.680747  0  3.248225  0
N  N100  1  0.05865081  0.96959477  0.77721542  1  -1.229583  0  -0.299122  -0.216063  0  3.378457  0
N  N101  1  0.85354483  0.81640346  0.26665006  1  -1.169864  0  -0.305269  -0.23108  0  3.284807  0
O  O102  1  0.04076353  0.00048277  0.95433270  1  -1.281334  0  -0.594936  -0.758877  0  2.186396  0
O  O103  1  0.85750129  0.43743940  0.02186427  1  -1.169613  0  -0.337418  -0.599425  0  2.379536  0
O  O104  1  0.22791079  0.56775952  0.04585773  1  -1.205823  0  -0.371014  -0.634307  0  2.330422  0
O  O105  1  0.73113972  0.31420094  0.00509848  1  -1.184229  0  -0.329889  -0.573076  0  2.182233  0
O  O106  1  0.26702419  0.15801276  0.95697559  1  -1.176893  0  -0.341268  -0.569243  0  2.233314  0
O  O107  1  0.24634774  0.73656590  0.10656400  1  -1.189157  0  -0.34067  -0.559857  0  2.10725  0
O  O108  1  0.17018118  0.30517983  0.05846574  1  -1.1903  0  -0.328671  -0.566635  0  2.299242  0
O  O109  1  0.72764209  0.75264832  0.07801062  1  -1.189942  0  -0.332491  -0.578461  0  2.181146  0
O  O110  1  0.92501676  0.81392644  0.03384140  1  -1.160967  0  -0.33048  -0.576993  0  2.296385  0
