# generated using pymatgen
data_CdH10C16S2(NO)4
_symmetry_space_group_name_H-M   'P 1'
_cell_length_a   9.84871425
_cell_length_b   9.84871136
_cell_length_c   12.93213074
_cell_angle_alpha   92.68408449
_cell_angle_beta   92.68402779
_cell_angle_gamma   91.23324339
_symmetry_Int_Tables_number   1
_chemical_formula_structural   CdH10C16S2(NO)4
_chemical_formula_sum   'Cd2 H20 C32 S4 N8 O8'
_cell_volume   1251.27543831
_cell_formula_units_Z   2
loop_
 _symmetry_equiv_pos_site_id
 _symmetry_equiv_pos_as_xyz
  1  'x, y, z'
loop_
 _atom_site_type_symbol
 _atom_site_label
 _atom_site_symmetry_multiplicity
 _atom_site_fract_x
 _atom_site_fract_y
 _atom_site_fract_z
 _atom_site_occupancy
 _atom_site_hle17_bader_spin_density
 _atom_site_hle17_ddec_charge
 _atom_site_hle17_ddec_spin_density
 _atom_site_hle17_ddec_sum_bond_order
 _atom_site_hle17_magmom
 _atom_site_hse06_10hf_bader_spin_density
 _atom_site_hse06_10hf_ddec_charge
 _atom_site_hse06_10hf_ddec_spin_density
 _atom_site_hse06_10hf_ddec_sum_bond_order
 _atom_site_hse06_10hf_magmom
 _atom_site_hse06_bader_spin_density
 _atom_site_hse06_ddec_charge
 _atom_site_hse06_ddec_spin_density
 _atom_site_hse06_ddec_sum_bond_order
 _atom_site_hse06_magmom
 _atom_site_pbe_bader_spin_density
 _atom_site_pbe_cm5_charge
 _atom_site_pbe_ddec_charge
 _atom_site_pbe_ddec_spin_density
 _atom_site_pbe_ddec_sum_bond_order
 _atom_site_pbe_magmom
Cd  Cd0  1  0.50558453  0.49441473  0.74999964  1  0  1.11103  0  1.669473  0  0  0.91812  0  2.116086  0  0  0.975158  0  2.066536  0  0  0.778697  0.877882  0  2.149721  0
Cd  Cd1  1  0.49441449  0.50558479  0.25000006  1  0  1.111019  0  1.669482  0  0  0.918111  0  2.116097  0  0  0.975148  0  2.066546  0  0  0.778703  0.877876  0  2.149733  0
H  H2  1  0.64865205  0.57460076  0.95958070  1  0  0.360409  0  0.905521  0  0  0.342826  0  0.967379  0  0  0.351102  0  0.959748  0  0  0.305645  0.337003  0  0.9727  0
H  H3  1  0.42539990  0.35134813  0.54041941  1  0  0.360392  0  0.90558  0  0  0.342804  0  0.967436  0  0  0.351082  0  0.959804  0  0  0.305641  0.336983  0  0.972757  0
H  H4  1  0.35134799  0.42539875  0.04041903  1  0  0.36039  0  0.905548  0  0  0.342804  0  0.967412  0  0  0.351081  0  0.95978  0  0  0.305653  0.336981  0  0.972741  0
H  H5  1  0.57460016  0.64865240  0.45958113  1  0  0.360389  0  0.905589  0  0  0.342805  0  0.967441  0  0  0.351082  0  0.959809  0  0  0.30564  0.336982  0  0.972768  0
H  H6  1  0.71925266  0.50383736  0.07339223  1  0  0.35568  0  0.916505  0  0  0.335951  0  0.980107  0  0  0.344833  0  0.972191  0  0  0.299872  0.329687  0  0.985663  0
H  H7  1  0.49616272  0.28074731  0.42660786  1  0  0.355692  0  0.916501  0  0  0.335957  0  0.980113  0  0  0.344839  0  0.972196  0  0  0.299875  0.3297  0  0.985661  0
H  H8  1  0.28074738  0.49616215  0.92660905  1  0  0.355623  0  0.916618  0  0  0.335909  0  0.980198  0  0  0.344791  0  0.972283  0  0  0.299879  0.329671  0  0.985708  0
H  H9  1  0.50383734  0.71925322  0.57339269  1  0  0.355722  0  0.916425  0  0  0.335988  0  0.980037  0  0  0.34487  0  0.97212  0  0  0.299897  0.329727  0  0.985592  0
H  H10  1  0.44424270  0.20759255  0.69937634  1  0  0.107359  0  0.973113  0  0  0.117244  0  1.035705  0  0  0.120503  0  1.03424  0  0  0.099852  0.114927  0  1.036838  0
H  H11  1  0.79240758  0.55575815  0.80062295  1  0  0.107354  0  0.973124  0  0  0.117237  0  1.035717  0  0  0.120497  0  1.03425  0  0  0.099852  0.114921  0  1.036845  0
H  H12  1  0.55575940  0.79240798  0.30062273  1  0  0.107362  0  0.973097  0  0  0.117243  0  1.035694  0  0  0.120502  0  1.034229  0  0  0.099847  0.114927  0  1.036823  0
H  H13  1  0.20759146  0.44424239  0.19937679  1  0  0.107373  0  0.973107  0  0  0.117261  0  1.03569  0  0  0.120521  0  1.03422  0  0  0.099855  0.11494  0  1.036824  0
H  H14  1  0.67209741  0.91429141  0.95948733  1  0  0.116432  0  0.927658  0  0  0.128292  0  0.983101  0  0  0.132141  0  0.980217  0  0  0.108918  0.125484  0  0.985239  0
H  H15  1  0.08570857  0.32790281  0.54051365  1  0  0.116447  0  0.927671  0  0  0.128311  0  0.983112  0  0  0.132157  0  0.980228  0  0  0.108928  0.125498  0  0.985243  0
H  H16  1  0.32790158  0.08570709  0.04051387  1  0  0.116455  0  0.927686  0  0  0.12832  0  0.983122  0  0  0.132167  0  0.980238  0  0  0.108924  0.125507  0  0.985256  0
H  H17  1  0.91429149  0.67209772  0.45948767  1  0  0.116428  0  0.927683  0  0  0.128291  0  0.983123  0  0  0.132139  0  0.98024  0  0  0.108925  0.125478  0  0.985258  0
H  H18  1  0.43935192  0.95539887  0.67307458  1  0  0.099143  0  0.946205  0  0  0.109246  0  1.005572  0  0  0.11314  0  1.002228  0  0  0.101584  0.106413  0  1.008011  0
H  H19  1  0.04460154  0.56064940  0.82692501  1  0  0.099186  0  0.946181  0  0  0.109296  0  1.005535  0  0  0.11319  0  1.002192  0  0  0.101606  0.106465  0  1.007971  0
H  H20  1  0.56064814  0.04460166  0.32692519  1  0  0.099195  0  0.946177  0  0  0.109302  0  1.005538  0  0  0.113195  0  1.002194  0  0  0.101604  0.106471  0  1.007976  0
H  H21  1  0.95539751  0.43935114  0.17307473  1  0  0.099195  0  0.946173  0  0  0.109304  0  1.005528  0  0  0.113198  0  1.002186  0  0  0.101609  0.106473  0  1.007966  0
C  C22  1  0.65181050  0.36804389  0.95676455  1  0  0.45414  0  3.842302  0  0  0.414635  0  4.146706  0  0  0.439513  0  4.156372  0  0  0.247512  0.397998  0  4.139457  0
C  C23  1  0.63195727  0.34818841  0.54323623  1  0  0.454214  0  3.842221  0  0  0.414698  0  4.146635  0  0  0.439575  0  4.1563  0  0  0.247527  0.398059  0  4.139392  0
C  C24  1  0.34818958  0.63195766  0.04323680  1  0  0.454057  0  3.842353  0  0  0.414586  0  4.146714  0  0  0.439464  0  4.156377  0  0  0.247471  0.397944  0  4.139475  0
C  C25  1  0.36804279  0.65181212  0.45676354  1  0  0.454214  0  3.842292  0  0  0.4147  0  4.146706  0  0  0.439578  0  4.15637  0  0  0.247514  0.398057  0  4.139468  0
C  C26  1  0.56625156  0.20442951  0.84325380  1  0  0.221271  0  3.857338  0  0  0.214224  0  4.101176  0  0  0.223404  0  4.124057  0  0  0.091599  0.208224  0  4.085535  0
C  C27  1  0.79557059  0.43374678  0.65674534  1  0  0.221289  0  3.857377  0  0  0.214241  0  4.101204  0  0  0.223421  0  4.124087  0  0  0.091591  0.20824  0  4.085566  0
C  C28  1  0.43374847  0.79557001  0.15674516  1  0  0.221288  0  3.857265  0  0  0.214242  0  4.101098  0  0  0.223422  0  4.123984  0  0  0.091593  0.208248  0  4.085457  0
C  C29  1  0.20442846  0.56625376  0.34325362  1  0  0.221272  0  3.857298  0  0  0.214215  0  4.101134  0  0  0.223394  0  4.12402  0  0  0.091573  0.208216  0  4.085494  0
C  C30  1  0.49611627  0.14461315  0.75526075  1  0  -0.163364  0  3.73979  0  0  -0.17999  0  3.989974  0  0  -0.186547  0  4.010314  0  0  -0.102911  -0.175846  0  3.97628  0
C  C31  1  0.85538841  0.50388518  0.74474012  1  0  -0.163311  0  3.73978  0  0  -0.179927  0  3.98996  0  0  -0.186484  0  4.010301  0  0  -0.102885  -0.175778  0  3.976261  0
C  C32  1  0.50388481  0.85538738  0.24473983  1  0  -0.163353  0  3.739786  0  0  -0.179963  0  3.989961  0  0  -0.186522  0  4.010303  0  0  -0.102899  -0.175819  0  3.976264  0
C  C33  1  0.14461170  0.49611739  0.25526050  1  0  -0.16335  0  3.739802  0  0  -0.179955  0  3.989962  0  0  -0.186514  0  4.010304  0  0  -0.102902  -0.17581  0  3.976267  0
C  C34  1  0.62959250  0.12062631  0.91672014  1  0  -0.051734  0  3.794392  0  0  -0.032987  0  4.052647  0  0  -0.037587  0  4.076723  0  0  -0.014495  -0.030231  0  4.036474  0
C  C35  1  0.87937292  0.37040734  0.58328052  1  0  -0.051718  0  3.794429  0  0  -0.032967  0  4.052677  0  0  -0.037569  0  4.076754  0  0  -0.014471  -0.030221  0  4.036513  0
C  C36  1  0.37040853  0.87937218  0.08328036  1  0  -0.051671  0  3.794325  0  0  -0.032921  0  4.052566  0  0  -0.037523  0  4.076644  0  0  -0.014447  -0.030172  0  4.0364  0
C  C37  1  0.12062714  0.62959319  0.41672003  1  0  -0.051699  0  3.794342  0  0  -0.032935  0  4.052575  0  0  -0.037537  0  4.076653  0  0  -0.014464  -0.030181  0  4.036399  0
C  C38  1  0.62488184  0.97980481  0.90326144  1  0  -0.08975  0  3.73582  0  0  -0.12494  0  3.990465  0  0  -0.122126  0  4.00911  0  0  -0.08572  -0.126465  0  3.977738  0
C  C39  1  0.02019493  0.37511708  0.59673797  1  0  -0.08978  0  3.735769  0  0  -0.124979  0  3.990402  0  0  -0.122164  0  4.009043  0  0  -0.085749  -0.126495  0  3.977662  0
C  C40  1  0.37511617  0.02019471  0.09673744  1  0  -0.089848  0  3.735794  0  0  -0.125046  0  3.990432  0  0  -0.122232  0  4.009073  0  0  -0.08577  -0.12656  0  3.977697  0
C  C41  1  0.97980411  0.62488345  0.40326253  1  0  -0.089741  0  3.73573  0  0  -0.124939  0  3.990356  0  0  -0.122127  0  4.009  0  0  -0.085733  -0.126459  0  3.97762  0
C  C42  1  0.49294951  0.00398173  0.74104730  1  0  -0.051879  0  3.75418  0  0  -0.079652  0  4.00654  0  0  -0.076322  0  4.025089  0  0  -0.089841  -0.081515  0  3.993871  0
C  C43  1  0.99601814  0.50705127  0.75895188  1  0  -0.051998  0  3.754282  0  0  -0.079793  0  4.006649  0  0  -0.076468  0  4.025199  0  0  -0.089896  -0.081662  0  3.993982  0
C  C44  1  0.50705053  0.99601779  0.25895088  1  0  -0.051981  0  3.754292  0  0  -0.07977  0  4.006654  0  0  -0.076446  0  4.025205  0  0  -0.089869  -0.081637  0  3.993992  0
C  C45  1  0.00398194  0.49295028  0.24104871  1  0  -0.051979  0  3.754276  0  0  -0.079777  0  4.006643  0  0  -0.076452  0  4.025195  0  0  -0.089861  -0.081639  0  3.993974  0
C  C46  1  0.55096381  0.77112860  0.79550550  1  0  0.643415  0  3.931024  0  0  0.591893  0  4.22448  0  0  0.626822  0  4.218086  0  0  0.195005  0.568244  0  4.227985  0
C  C47  1  0.22887096  0.44903529  0.70449232  1  0  0.643274  0  3.931198  0  0  0.591749  0  4.224667  0  0  0.626675  0  4.21828  0  0  0.194936  0.568094  0  4.22818  0
C  C48  1  0.44903521  0.22887092  0.20449265  1  0  0.643369  0  3.931065  0  0  0.591841  0  4.224528  0  0  0.626766  0  4.21814  0  0  0.194987  0.5682  0  4.228023  0
C  C49  1  0.77112704  0.55096423  0.29550811  1  0  0.643312  0  3.931133  0  0  0.591798  0  4.224574  0  0  0.626724  0  4.218187  0  0  0.194976  0.568146  0  4.228081  0
C  C50  1  0.55697305  0.92108977  0.81362249  1  0  -0.089868  0  3.805056  0  0  -0.071772  0  4.053586  0  0  -0.082867  0  4.078805  0  0  -0.033419  -0.064713  0  4.036642  0
C  C51  1  0.07891023  0.44302763  0.68637855  1  0  -0.089803  0  3.805043  0  0  -0.071683  0  4.053532  0  0  -0.082769  0  4.078743  0  0  -0.033372  -0.064617  0  4.036582  0
C  C52  1  0.44302800  0.07890974  0.18637882  1  0  -0.08979  0  3.805013  0  0  -0.07168  0  4.053512  0  0  -0.082762  0  4.078722  0  0  -0.033379  -0.064623  0  4.03657  0
C  C53  1  0.92108983  0.55697290  0.31362199  1  0  -0.089833  0  3.805044  0  0  -0.071723  0  4.05354  0  0  -0.082809  0  4.078754  0  0  -0.033421  -0.064664  0  4.036595  0
S  S54  1  0.70711365  0.22190482  0.01802738  1  0  0.047666  0  2.317531  0  0  0.047753  0  2.597024  0  0  0.045138  0  2.597882  0  0  0.088027  0.049344  0  2.59658  0
S  S55  1  0.77809627  0.29288577  0.48197262  1  0  0.047637  0  2.317544  0  0  0.047723  0  2.597036  0  0  0.045109  0  2.597894  0  0  0.088028  0.049321  0  2.596593  0
S  S56  1  0.29288537  0.77809469  0.98197231  1  0  0.047681  0  2.317517  0  0  0.047752  0  2.596991  0  0  0.045139  0  2.597848  0  0  0.088044  0.049353  0  2.596544  0
S  S57  1  0.22190481  0.70711476  0.51802796  1  0  0.047635  0  2.317507  0  0  0.047718  0  2.596992  0  0  0.045104  0  2.59785  0  0  0.08803  0.049313  0  2.596545  0
N  N58  1  0.68361370  0.49201932  0.99734803  1  0  -0.66011  0  3.106522  0  0  -0.621294  0  3.337819  0  0  -0.643394  0  3.33371  0  0  -0.566073  -0.605947  0  3.3403  0
N  N59  1  0.50798076  0.31638618  0.50265278  1  0  -0.660133  0  3.106574  0  0  -0.621299  0  3.337867  0  0  -0.6434  0  3.333757  0  0  -0.566065  -0.605955  0  3.340342  0
N  N60  1  0.31638628  0.50797816  0.00265085  1  0  -0.66003  0  3.10654  0  0  -0.621223  0  3.337806  0  0  -0.643323  0  3.333697  0  0  -0.566068  -0.605893  0  3.340249  0
N  N61  1  0.49201928  0.68361334  0.49734695  1  0  -0.66017  0  3.106546  0  0  -0.621341  0  3.337836  0  0  -0.643442  0  3.333726  0  0  -0.56609  -0.605992  0  3.340323  0
N  N62  1  0.58023430  0.34228161  0.86763138  1  0  -0.528425  0  3.194991  0  0  -0.456135  0  3.475711  0  0  -0.484148  0  3.489007  0  0  -0.369626  -0.436856  0  3.465796  0
N  N63  1  0.65771943  0.41976533  0.63236944  1  0  -0.528494  0  3.195063  0  0  -0.456206  0  3.475789  0  0  -0.484217  0  3.489083  0  0  -0.369661  -0.436923  0  3.465877  0
N  N64  1  0.41976470  0.65771689  0.13236751  1  0  -0.528435  0  3.19508  0  0  -0.456174  0  3.475811  0  0  -0.48418  0  3.489093  0  0  -0.369662  -0.436898  0  3.465904  0
N  N65  1  0.34228168  0.58023621  0.36763118  1  0  -0.528478  0  3.19501  0  0  -0.4562  0  3.475763  0  0  -0.484208  0  3.489048  0  0  -0.369641  -0.436917  0  3.465852  0
O  O66  1  0.59830115  0.69377338  0.86410778  1  0  -0.664229  0  1.988802  0  0  -0.603245  0  2.223312  0  0  -0.630467  0  2.213018  0  0  -0.332023  -0.584266  0  2.229709  0
O  O67  1  0.30622688  0.40170091  0.63589322  1  0  -0.664091  0  1.988925  0  0  -0.60311  0  2.223448  0  0  -0.630328  0  2.21315  0  0  -0.331948  -0.584133  0  2.22985  0
O  O68  1  0.40169990  0.30622613  0.13589276  1  0  -0.664188  0  1.988868  0  0  -0.603205  0  2.223389  0  0  -0.630426  0  2.213095  0  0  -0.332004  -0.584232  0  2.229787  0
O  O69  1  0.69377315  0.59829860  0.36410806  1  0  -0.664127  0  1.988888  0  0  -0.60315  0  2.223394  0  0  -0.630369  0  2.2131  0  0  -0.331991  -0.584172  0  2.229795  0
O  O70  1  0.49546134  0.72113816  0.70948167  1  0  -0.661678  0  2.030992  0  0  -0.591107  0  2.272322  0  0  -0.620719  0  2.261853  0  0  -0.333262  -0.570431  0  2.278741  0
O  O71  1  0.27886229  0.50453814  0.79051852  1  0  -0.661652  0  2.030935  0  0  -0.591103  0  2.27227  0  0  -0.620717  0  2.261807  0  0  -0.333281  -0.570429  0  2.278693  0
O  O72  1  0.50453768  0.27886136  0.29051880  1  0  -0.661645  0  2.030957  0  0  -0.591079  0  2.272292  0  0  -0.620692  0  2.261825  0  0  -0.333248  -0.570405  0  2.278709  0
O  O73  1  0.72113777  0.49546239  0.20948203  1  0  -0.661675  0  2.03096  0  0  -0.591119  0  2.272302  0  0  -0.620726  0  2.261821  0  0  -0.333272  -0.57044  0  2.278723  0
