# generated using pymatgen
data_ZnH6C11NO8
_symmetry_space_group_name_H-M   'P 1'
_cell_length_a   7.99186347
_cell_length_b   9.18566728
_cell_length_c   10.88819170
_cell_angle_alpha   93.82421676
_cell_angle_beta   88.44386894
_cell_angle_gamma   88.74583185
_symmetry_Int_Tables_number   1
_chemical_formula_structural   ZnH6C11NO8
_chemical_formula_sum   'Zn2 H12 C22 N2 O16'
_cell_volume   797.00970268
_cell_formula_units_Z   2
loop_
 _symmetry_equiv_pos_site_id
 _symmetry_equiv_pos_as_xyz
  1  'x, y, z'
loop_
 _atom_site_type_symbol
 _atom_site_label
 _atom_site_symmetry_multiplicity
 _atom_site_fract_x
 _atom_site_fract_y
 _atom_site_fract_z
 _atom_site_occupancy
 _atom_site_pbe_bader_charge
 _atom_site_pbe_bader_spin_density
 _atom_site_pbe_cm5_charge
 _atom_site_pbe_ddec_charge
 _atom_site_pbe_ddec_spin_density
 _atom_site_pbe_ddec_sum_bond_order
 _atom_site_pbe_magmom
Zn  Zn0  1  0.66319705  0.50510370  0.49574732  1  1.301229  0  0.700074  0.827885  0  2.47858  0
Zn  Zn1  1  0.33781739  0.51292603  0.50733674  1  1.278122  0  0.69794  0.826489  0  2.480574  0
H  H2  1  0.76040439  0.55212997  0.12290695  1  0.109279  0  0.121019  0.122761  0  0.974323  0
H  H3  1  0.23783319  0.47887509  0.07008800  1  0.069039  0  0.105443  0.08466  0  1.01165  0
H  H4  1  0.76134546  0.44860146  0.92618599  1  0.05002  0  0.107849  0.090372  0  1.026272  0
H  H5  1  0.24750730  0.57390542  0.88434624  1  0.147404  0  0.123783  0.131905  0  0.981062  0
H  H6  1  0.74035608  0.81909984  0.06503457  1  0.104395  0  0.115774  0.059139  0  0.953786  0
H  H7  1  0.29397592  0.78166460  0.19055706  1  0.129007  0  0.111001  0.05813  0  0.997445  0
H  H8  1  0.73301266  0.75165252  0.83276301  1  0.119469  0  0.110087  0.056762  0  0.997588  0
H  H9  1  0.27129041  0.83407699  0.96468147  1  0.099571  0  0.11596  0.056081  0  0.949194  0
H  H10  1  0.79102400  0.33483565  0.08530429  1  0.061037  0  0.115807  0.062077  0  0.968944  0
H  H11  1  0.38787840  0.24746208  0.22823269  1  0.100476  0  0.11847  0.071221  0  0.967699  0
H  H12  1  0.55957853  0.11294976  0.87568970  1  0.134585  0  0.112642  0.058451  0  0.978385  0
H  H13  1  0.18917390  0.35317254  0.91545168  1  0.083348  0  0.10899  0.051281  0  0.986564  0
C  C14  1  0.49779179  0.78744745  0.50599910  1  1.694724  0  0.239701  0.677483  0  4.191046  0
C  C15  1  0.49346834  0.50931197  0.26108823  1  1.556747  0  0.217747  0.569832  0  4.160025  0
C  C16  1  0.51261635  0.51048663  0.73955396  1  1.586068  0  0.22635  0.590092  0  4.111228  0
C  C17  1  0.49744216  0.23052135  0.49262222  1  1.644849  0  0.234878  0.667804  0  4.20467  0
C  C18  1  0.49728399  0.94352206  0.50243500  1  -0.372046  0  0.000163  -0.074724  0  3.874764  0
C  C19  1  0.65011174  0.59051474  0.07379349  1  -0.043737  0  -0.082638  -0.134417  0  3.827006  0
C  C20  1  0.32622482  0.56891176  0.07158298  1  -0.049112  0  -0.088233  -0.118097  0  3.78971  0
C  C21  1  0.68210840  0.54804208  0.93482400  1  0.006532  0  -0.090692  -0.128149  0  3.801935  0
C  C22  1  0.36120834  0.60353275  0.93535006  1  -0.064253  0  -0.082603  -0.143248  0  3.810645  0
C  C23  1  0.49614941  0.07482340  0.49718342  1  0.243736  0  -0.005139  -0.087256  0  3.888477  0
C  C24  1  0.50635898  0.34706080  0.06441699  1  -0.027999  0  -0.008151  -0.076396  0  3.688954  0
C  C25  1  0.47822068  0.34571088  0.91971918  1  -0.041349  0  -0.007607  -0.068929  0  3.639108  0
C  C26  1  0.49387120  0.51015603  0.12058179  1  0.06097  0  -0.000223  -0.030076  0  3.718315  0
C  C27  1  0.51071118  0.50606130  0.88001023  1  0.043913  0  0.003889  -0.015889  0  3.671789  0
C  C28  1  0.64954278  0.75161266  0.11433193  1  0.926339  0  0.113985  0.310617  0  3.852526  0
C  C29  1  0.22555561  0.68856195  0.14799960  1  0.892478  0  0.096122  0.299291  0  3.908992  0
C  C30  1  0.79320761  0.65512368  0.87016024  1  0.918529  0  0.09736  0.30848  0  3.906324  0
C  C31  1  0.36968554  0.76418336  0.91372575  1  0.927806  0  0.115246  0.314113  0  3.860446  0
C  C32  1  0.67482359  0.27135927  0.09299815  1  0.966465  0  0.10968  0.273611  0  3.871549  0
C  C33  1  0.37760811  0.25182809  0.12705159  1  0.973041  0  0.119741  0.290552  0  3.865629  0
C  C34  1  0.59627895  0.22524208  0.85577945  1  0.940654  0  0.10423  0.27044  0  3.900893  0
C  C35  1  0.30359040  0.29493282  0.87613175  1  0.979507  0  0.097529  0.269501  0  3.918408  0
N  N36  1  0.06821407  0.51247624  0.51359666  1  0.110159  0  0.097988  0.155657  0  2.959346  0
N  N37  1  0.93250920  0.50404537  0.49806527  1  -0.012992  0  0.096435  0.15275  0  2.959157  0
O  O38  1  0.63823685  0.72090098  0.48405372  1  -1.120944  0  -0.302579  -0.523394  0  2.272185  0
O  O39  1  0.35781868  0.72997020  0.52964419  1  -1.124594  0  -0.302562  -0.52024  0  2.257932  0
O  O40  1  0.63218816  0.47619735  0.30809735  1  -1.161215  0  -0.308915  -0.535946  0  2.332197  0
O  O41  1  0.35458757  0.53453016  0.31888972  1  -1.150764  0  -0.297734  -0.523729  0  2.356257  0
O  O42  1  0.65004996  0.53476760  0.68456827  1  -1.146752  0  -0.291058  -0.517989  0  2.381002  0
O  O43  1  0.37277855  0.48986182  0.68869461  1  -1.158821  0  -0.305173  -0.52815  0  2.356942  0
O  O44  1  0.63744823  0.29095793  0.51047318  1  -1.11753  0  -0.297066  -0.512273  0  2.283512  0
O  O45  1  0.35902483  0.29480985  0.47061630  1  -1.132348  0  -0.308971  -0.540605  0  2.271287  0
O  O46  1  0.56450569  0.80487977  0.20145301  1  -1.078835  0  -0.237239  -0.329501  0  2.195311  0
O  O47  1  0.07323656  0.68121108  0.15852180  1  -1.049682  0  -0.273817  -0.366388  0  2.127433  0
O  O48  1  0.94544992  0.63554403  0.86477084  1  -1.083247  0  -0.276636  -0.376089  0  2.140048  0
O  O49  1  0.46668898  0.81699342  0.84138854  1  -1.08316  0  -0.236696  -0.328624  0  2.170121  0
O  O50  1  0.67952804  0.14511968  0.12120650  1  -1.04857  0  -0.230284  -0.310227  0  2.13844  0
O  O51  1  0.27120000  0.18367064  0.07143923  1  -1.06105  0  -0.214136  -0.290949  0  2.172411  0
O  O52  1  0.72001988  0.24789534  0.79313817  1  -1.071876  0  -0.242086  -0.306153  0  2.168244  0
O  O53  1  0.29667587  0.20420235  0.78949456  1  -1.058622  0  -0.24564  -0.320001  0  2.15476  0
