# generated using pymatgen
data_Zn8H48C73O28
_symmetry_space_group_name_H-M   'P 1'
_cell_length_a   18.25304223
_cell_length_b   18.30161724
_cell_length_c   18.38402357
_cell_angle_alpha   119.78934372
_cell_angle_beta   120.23166538
_cell_angle_gamma   89.72287652
_symmetry_Int_Tables_number   1
_chemical_formula_structural   Zn8H48C73O28
_chemical_formula_sum   'Zn8 H48 C73 O28'
_cell_volume   4351.55804114
_cell_formula_units_Z   1
loop_
 _symmetry_equiv_pos_site_id
 _symmetry_equiv_pos_as_xyz
  1  'x, y, z'
loop_
 _atom_site_type_symbol
 _atom_site_label
 _atom_site_symmetry_multiplicity
 _atom_site_fract_x
 _atom_site_fract_y
 _atom_site_fract_z
 _atom_site_occupancy
 _atom_site_pbe_bader_charge
 _atom_site_pbe_bader_spin_density
 _atom_site_pbe_cm5_charge
 _atom_site_pbe_ddec_charge
 _atom_site_pbe_ddec_spin_density
 _atom_site_pbe_ddec_sum_bond_order
 _atom_site_pbe_magmom
Zn  Zn0  1  0.45465775  0.04491080  0.58222212  1  1.306969  0  0.670984  0.955602  0  2.375996  0
Zn  Zn1  1  0.45564263  0.86880249  0.41004629  1  1.30658  0  0.672741  0.966285  0  2.367308  0
Zn  Zn2  1  0.63451669  0.03981777  0.59339566  1  1.314447  0  0.672694  0.968795  0  2.377121  0
Zn  Zn3  1  0.46616871  0.04540554  0.41608816  1  1.314156  0  0.673196  0.957343  0  2.392475  0
Zn  Zn4  1  0.04356745  0.45441201  0.40769727  1  1.314557  0  0.671843  0.960373  0  2.380461  0
Zn  Zn5  1  0.87514361  0.44846896  0.41617413  1  1.299624  0  0.671191  0.952016  0  2.398078  0
Zn  Zn6  1  0.04445573  0.62715359  0.58444755  1  1.303134  0  0.673882  0.964016  0  2.368678  0
Zn  Zn7  1  0.05759201  0.45615244  0.59185469  1  1.310746  0  0.669667  0.965249  0  2.358474  0
H  H8  1  0.24837232  0.15246971  0.32783633  1  0.02993  0  0.091778  0.089623  0  0.977398  0
H  H9  1  0.79497768  0.27065885  0.66164971  1  0.090398  0  0.111044  0.116379  0  0.983327  0
H  H10  1  0.34364803  0.24821200  0.42817567  1  0.05219  0  0.09198  0.092552  0  0.982507  0
H  H11  1  0.60135105  0.01916410  0.31077375  1  0.070257  0  0.100533  0.105772  0  1.024116  0
H  H12  1  0.58806076  0.96934725  0.15210440  1  0.066452  0  0.100272  0.096458  0  1.004073  0
H  H13  1  0.68324438  0.06711678  0.15194485  1  0.055811  0  0.098134  0.093383  0  1.015313  0
H  H14  1  0.79171898  0.21302692  0.31089907  1  0.081344  0  0.099081  0.104131  0  1.03113  0
H  H15  1  0.89333996  0.36667885  0.66290984  1  0.091013  0  0.109745  0.11449  0  0.984702  0
H  H16  1  0.28029512  0.69619321  0.09806031  1  0.08191  0  0.110305  0.116676  0  0.988462  0
H  H17  1  0.43410412  0.97220787  0.18938109  1  0.116997  0  0.101557  0.111744  0  1.035502  0
H  H18  1  0.43932125  0.02560420  0.09278985  1  0.063786  0  0.103556  0.101379  0  0.992828  0
H  H19  1  0.26537761  0.34961999  0.64211231  1  0.0495  0  0.094543  0.096265  0  0.985267  0
H  H20  1  0.34024868  0.92927083  0.90037125  1  0.057427  0  0.103395  0.101659  0  0.992601  0
H  H21  1  0.23801119  0.78081648  0.80782987  1  0.088691  0  0.100875  0.109578  0  1.038581  0
H  H22  1  0.25095687  0.33663422  0.42448282  1  0.015911  0  0.091902  0.091008  0  0.978237  0
H  H23  1  0.18399076  0.59929422  0.90628036  1  0.097642  0  0.110021  0.115434  0  0.987055  0
H  H24  1  0.78846615  0.87988268  0.53499941  1  0.096926  0  0.109097  0.115277  0  0.989525  0
H  H25  1  0.55656569  0.74258793  0.52259982  1  0.082252  0  0.099509  0.120288  0  1.058738  0
H  H26  1  0.60760299  0.50485426  0.49975173  1  0.092075  0  0.11109  0.124106  0  0.981379  0
H  H27  1  0.73589507  0.53708163  0.49538262  1  0.095956  0  0.102478  0.115493  0  1.025666  0
H  H28  1  0.88378576  0.78152123  0.52980411  1  0.083933  0  0.107758  0.115112  0  0.993432  0
H  H29  1  0.22220681  0.73143760  0.35479365  1  0.085254  0  0.110723  0.116926  0  0.985141  0
H  H30  1  0.21689529  0.12089789  0.49827346  1  0.044609  0  0.093961  0.096331  0  0.986632  0
H  H31  1  0.48139383  0.92011953  0.70484896  1  0.075132  0  0.102079  0.110996  0  1.019748  0
H  H32  1  0.53813613  0.92381731  0.86033255  1  0.051948  0  0.101293  0.097468  0  0.995889  0
H  H33  1  0.15556561  0.24090869  0.32671109  1  0.045346  0  0.091784  0.091195  0  0.981751  0
H  H34  1  0.44475818  0.82220466  0.85831848  1  0.067092  0  0.102109  0.098718  0  0.997688  0
H  H35  1  0.29510648  0.71876520  0.70124412  1  0.069776  0  0.100952  0.103801  0  1.022676  0
H  H36  1  0.12734928  0.63360738  0.35489503  1  0.083539  0  0.112078  0.118543  0  0.979592  0
H  H37  1  0.17144644  0.07787847  0.36897903  1  0.01164  0  0.090951  0.086087  0  0.977409  0
H  H38  1  0.08164726  0.16832944  0.37033216  1  0.020311  0  0.088192  0.079336  0  0.988609  0
H  H39  1  0.35425203  0.25718322  0.64151621  1  0.043752  0  0.094394  0.094161  0  0.981738  0
H  H40  1  0.40796933  0.30978601  0.61400926  1  0.043363  0  0.091601  0.086721  0  0.978483  0
H  H41  1  0.12742033  0.21299797  0.50027685  1  0.03928  0  0.094055  0.094924  0  0.981385  0
H  H42  1  0.31828866  0.40034726  0.61262863  1  0.019552  0  0.091038  0.085258  0  0.977882  0
H  H43  1  0.84603475  0.21714629  0.19765385  1  0.041569  0  0.095523  0.054243  0  1.006804  0
H  H44  1  0.93164113  0.16995933  0.19795401  1  0.065308  0  0.106463  0.073376  0  0.961963  0
H  H45  1  0.81272638  0.02931952  0.02459690  1  0.025924  0  0.094545  0.13126  0  0.990864  0
H  H46  1  0.79463881  0.05306049  0.11964502  1  0.026197  0  0.09183  0.123895  0  1.010857  0
H  H47  1  0.72796513  0.07689434  0.02785190  1  0.033017  0  0.08775  0.118358  0  1.00842  0
H  H48  1  0.42237939  0.66473191  0.46569576  1  0.055107  0  0.09979  0.102491  0  0.992651  0
H  H49  1  0.49739571  0.72234930  0.60268208  1  0.075831  0  0.094746  0.092124  0  1.008506  0
H  H50  1  0.40453732  0.62459133  0.52872948  1  0.097614  0  0.108372  0.11741  0  0.975028  0
H  H51  1  0.76482848  0.12117241  0.89860592  1  0.114893  0  0.115079  0.135901  0  0.984036  0
H  H52  1  0.56901640  0.28769171  0.81588230  1  0.085141  0  0.099882  0.10964  0  1.030093  0
H  H53  1  0.55639447  0.43186641  0.91915937  1  0.052912  0  0.101291  0.097504  0  0.992353  0
H  H54  1  0.65426841  0.51961226  0.11084519  1  0.065841  0  0.104089  0.100968  0  0.987699  0
H  H55  1  0.76419872  0.46291846  0.19745495  1  0.03688  0  0.100194  0.105773  0  1.016705  0
C  C56  1  0.37861849  0.86384813  0.22338949  1  1.592462  0  0.228966  0.608001  0  4.155434  0
C  C57  1  0.72207108  0.42438372  0.11397222  1  -0.045468  0  -0.094941  -0.131894  0  3.982647  0
C  C58  1  0.73152927  0.34168521  0.05691262  1  0.051239  0  0.000386  0.073496  0  3.959137  0
C  C59  1  0.63264089  0.14895418  0.77574967  1  1.570467  0  0.229574  0.611809  0  4.147476  0
C  C60  1  0.67497555  0.29084051  0.94646986  1  -0.006376  0  -0.001691  0.058428  0  3.944238  0
C  C61  1  0.68825275  0.20971379  0.89035939  1  -0.028918  0  -0.01157  -0.063782  0  3.955524  0
C  C62  1  0.75438965  0.18235559  0.94165707  1  -0.002539  0  -0.086582  -0.193368  0  3.972179  0
C  C63  1  0.80876251  0.23128259  0.04947523  1  0.544829  0  0.085588  0.236594  0  4.070839  0
C  C64  1  0.79795034  0.31023754  0.10696774  1  -0.057584  0  -0.01645  -0.178159  0  3.919299  0
C  C65  1  0.64312547  0.06191867  0.31135931  1  -0.014332  0  -0.091909  -0.129677  0  3.980348  0
C  C66  1  0.63579141  0.03409550  0.22252883  1  -0.034628  0  -0.093201  -0.083355  0  4.049266  0
C  C67  1  0.34212684  0.27522112  0.58855466  1  -0.080186  0  -0.155449  -0.17163  0  3.851585  0
C  C68  1  0.68966172  0.08926848  0.22261739  1  -0.107081  0  -0.09545  -0.088458  0  4.050405  0
C  C69  1  0.75062993  0.17086440  0.31158555  1  0.003747  0  -0.092639  -0.128188  0  3.983093  0
C  C70  1  0.76087927  0.20135083  0.40501058  1  0.011625  0  0.002122  0.062549  0  3.940474  0
C  C71  1  0.37142083  0.86457216  0.50887033  1  1.561578  0  0.23002  0.610601  0  4.152144  0
C  C72  1  0.70509604  0.14561949  0.40459645  1  -0.0333  0  0.002183  0.061935  0  3.944143  0
C  C73  1  0.71684667  0.17476345  0.49895072  1  -0.059376  0  -0.007327  -0.067317  0  3.933924  0
C  C74  1  0.78562771  0.25134131  0.59034271  1  0.005128  0  -0.081276  -0.094207  0  3.99608  0
C  C75  1  0.84077907  0.30531653  0.59101457  1  0.023427  0  -0.08141  -0.093235  0  3.998714  0
C  C76  1  0.82695428  0.28326622  0.50028566  1  -0.045449  0  -0.008148  -0.070751  0  3.937204  0
C  C77  1  0.39105559  0.92962590  0.10604308  1  -0.047163  0  -0.093735  -0.136089  0  3.976832  0
C  C78  1  0.29560176  0.18877193  0.47913428  1  0.055417  0  -0.016219  0.020635  0  3.814704  0
C  C79  1  0.39357441  0.95971238  0.05159153  1  -0.045761  0  -0.090141  -0.080171  0  4.042985  0
C  C80  1  0.33784936  0.90553317  0.94333631  1  -0.097457  0  -0.091846  -0.080104  0  4.040758  0
C  C81  1  0.28077881  0.82188350  0.89121391  1  0.000229  0  -0.094022  -0.135963  0  3.976219  0
C  C82  1  0.27636801  0.78821654  0.94443190  1  -0.048837  0  0.001791  0.060929  0  3.931882  0
C  C83  1  0.65428746  0.12642129  0.50257900  1  1.561975  0  0.231242  0.613602  0  4.159542  0
C  C84  1  0.33293802  0.84389722  0.05532275  1  0.044477  0  0.002005  0.064264  0  3.928463  0
C  C85  1  0.33051838  0.80909298  0.10923577  1  -0.008166  0  -0.009363  -0.073849  0  3.921721  0
C  C86  1  0.27928262  0.72166428  0.05527865  1  -0.022737  0  -0.081236  -0.090987  0  3.997594  0
C  C87  1  0.22511128  0.66734582  0.94765759  1  -0.032651  0  -0.082365  -0.093336  0  3.999614  0
C  C88  1  0.22079654  0.69992820  0.89229203  1  -3.5e-05  0  -0.007057  -0.067733  0  3.922974  0
C  C89  1  0.19493025  0.29056462  0.47958607  1  0.039263  0  -0.016993  0.02018  0  3.815093  0
C  C90  1  0.59588738  0.69796443  0.51716030  1  0.013072  0  -0.121996  -0.293092  0  3.980606  0
C  C91  1  0.57519571  0.62272782  0.51296280  1  0.4191  0  0.082352  0.263661  0  4.093625  0
C  C92  1  0.62611005  0.56413824  0.50404032  1  0.052823  0  -0.095939  -0.182304  0  4.010318  0
C  C93  1  0.69746146  0.58255775  0.50185786  1  -0.073489  0  -0.093503  -0.116577  0  4.007886  0
C  C94  1  0.72231179  0.65985092  0.50746448  1  -0.004989  0  -0.004609  0.0471  0  3.940738  0
C  C95  1  0.63723707  0.85596209  0.51502662  1  1.55651  0  0.229921  0.614732  0  4.145522  0
C  C96  1  0.66864341  0.71798263  0.51358765  1  0.026455  0  0.00235  0.090573  0  3.95456  0
C  C97  1  0.69309478  0.79631974  0.51994399  1  -0.053752  0  -0.012431  -0.078768  0  3.91984  0
C  C98  1  0.77046588  0.81880696  0.52774115  1  -0.008854  0  -0.083911  -0.091759  0  4.007255  0
C  C99  1  0.82360207  0.76356074  0.52433162  1  -0.006117  0  -0.089037  -0.104219  0  4.01325  0
C  C100  1  0.14500656  0.20047411  0.44704240  1  -0.044489  0  -0.155774  -0.169283  0  3.853082  0
C  C101  1  0.79948323  0.68407753  0.51168590  1  -0.045416  0  -0.01056  -0.073501  0  3.934988  0
C  C102  1  0.44059898  0.87559883  0.70338625  1  0.043292  0  -0.091757  -0.135134  0  3.989925  0
C  C103  1  0.47199364  0.87775729  0.79038562  1  -0.073117  0  -0.091855  -0.083189  0  4.044475  0
C  C104  1  0.41939827  0.82050862  0.78944359  1  0.012469  0  -0.091267  -0.081284  0  4.044792  0
C  C105  1  0.33562920  0.76251286  0.70155003  1  -0.063237  0  -0.090837  -0.131403  0  3.985181  0
C  C106  1  0.30111984  0.75795012  0.61023862  1  -0.055172  0  0.001188  0.056461  0  3.954052  0
C  C107  1  0.35660663  0.13186150  0.48416642  1  1.528601  0  0.236467  0.604646  0  4.091575  0
C  C108  1  0.35524431  0.81544784  0.61065705  1  -0.050316  0  0.002544  0.061536  0  3.94187  0
C  C109  1  0.32302948  0.80571412  0.51633261  1  -0.041281  0  -0.008958  -0.075309  0  3.933265  0
C  C110  1  0.24366155  0.73939635  0.42608578  1  -0.00126  0  -0.080936  -0.093366  0  4.000828  0
C  C111  1  0.28261656  0.33575168  0.58833023  1  -0.002021  0  -0.157546  -0.171586  0  3.857741  0
C  C112  1  0.19048199  0.68430587  0.42611129  1  0.021685  0  -0.081839  -0.098857  0  4.001255  0
C  C113  1  0.21676702  0.69476362  0.51661903  1  -0.030524  0  -0.005994  -0.063213  0  3.935979  0
C  C114  1  0.88055517  0.34927325  0.50532718  1  1.568701  0  0.230173  0.611823  0  4.160961  0
C  C115  1  0.15293015  0.63785546  0.51116244  1  1.569681  0  0.231371  0.613068  0  4.162014  0
C  C116  1  0.85838227  0.36439756  0.22177596  1  1.570468  0  0.229961  0.621397  0  4.189839  0
C  C117  1  0.15502200  0.63961586  0.77799080  1  1.53505  0  0.229362  0.609946  0  4.156361  0
C  C118  1  0.85826641  0.62774338  0.50333314  1  1.532771  0  0.232309  0.61379  0  4.140043  0
C  C119  1  0.27903035  0.21372176  0.40498081  1  -0.043257  0  -0.163186  -0.177072  0  3.880556  0
C  C120  1  0.13671797  0.35031503  0.48328505  1  1.547084  0  0.236085  0.603796  0  4.099447  0
C  C121  1  0.21796987  0.27282578  0.40387640  1  -0.020638  0  -0.163781  -0.178234  0  3.88068  0
C  C122  1  0.61211776  0.32577645  0.89920867  1  -0.027865  0  -0.094852  -0.135439  0  3.98813  0
C  C123  1  0.20470301  0.13992680  0.44618624  1  -0.007751  0  -0.157769  -0.172559  0  3.858371  0
C  C124  1  0.86423281  0.16925406  0.14816839  1  0.420848  0  -0.064987  0.087801  0  3.910998  0
C  C125  1  0.79570588  0.07662157  0.07547357  1  -0.059651  0  -0.247328  -0.408035  0  3.979957  0
C  C126  1  0.45541977  0.65655242  0.52916657  1  0.332614  0  -0.138454  -0.172948  0  3.926431  0
C  C127  1  0.60496890  0.40631739  0.95716791  1  -0.06048  0  -0.096169  -0.087499  0  4.055421  0
C  C128  1  0.66027021  0.45599544  0.06537633  1  -0.004962  0  -0.092595  -0.083204  0  4.053951  0
O  O129  1  0.50331820  0.99910981  0.50027139  1  -1.214317  0  -0.576415  -1.033823  0  2.562899  0
O  O130  1  0.11337704  0.67506523  0.73131695  1  -1.17443  0  -0.310501  -0.541581  0  2.353624  0
O  O131  1  0.82226144  0.54318764  0.44807377  1  -1.157499  0  -0.30892  -0.539413  0  2.36509  0
O  O132  1  0.38952584  0.94701583  0.26921289  1  -1.189976  0  -0.310203  -0.541104  0  2.36406  0
O  O133  1  0.11979710  0.37400029  0.54977196  1  -1.177461  0  -0.317977  -0.556647  0  2.351817  0
O  O134  1  0.94092078  0.66914697  0.55090807  1  -1.180914  0  -0.316775  -0.550123  0  2.333682  0
O  O135  1  0.10945518  0.37216011  0.42026168  1  -1.179642  0  -0.311876  -0.543378  0  2.35862  0
O  O136  1  0.94172044  0.39347781  0.26313579  1  -1.150823  0  -0.305547  -0.528249  0  2.322455  0
O  O137  1  0.14394313  0.55636861  0.73636843  1  -1.177531  0  -0.315445  -0.547969  0  2.318529  0
O  O138  1  0.83771657  0.36315069  0.43563652  1  -1.16537  0  -0.31154  -0.542318  0  2.355518  0
O  O139  1  0.13400214  0.67690113  0.57641857  1  -1.156439  0  -0.310973  -0.545277  0  2.321031  0
O  O140  1  0.40759951  0.94756595  0.58151801  1  -1.174886  0  -0.308957  -0.538295  0  2.330855  0
O  O141  1  0.54949587  0.14114450  0.72598017  1  -1.178825  0  -0.310879  -0.54209  0  2.340852  0
O  O142  1  0.37032161  0.82681474  0.42810494  1  -1.170612  0  -0.317263  -0.553846  0  2.317415  0
O  O143  1  0.68941878  0.11764653  0.57662074  1  -1.169199  0  -0.313613  -0.545895  0  2.317434  0
O  O144  1  0.55201289  0.82018999  0.45838495  1  -1.178066  0  -0.312342  -0.543601  0  2.352959  0
O  O145  1  0.39867509  0.12582783  0.44417028  1  -1.167812  0  -0.312109  -0.542652  0  2.349499  0
O  O146  1  0.67958770  0.93852136  0.56571865  1  -1.174375  0  -0.316696  -0.550653  0  2.329126  0
O  O147  1  0.36286449  0.09598167  0.53067503  1  -1.177382  0  -0.31732  -0.552929  0  2.339291  0
O  O148  1  0.87367849  0.19927623  0.09303837  1  -1.074937  0  -0.205546  -0.237523  0  2.476573  0
O  O149  1  0.50744455  0.59850373  0.51691820  1  -1.068324  0  -0.192472  -0.167442  0  2.543455  0
O  O150  1  0.57059472  0.10040155  0.43280384  1  -1.176722  0  -0.311353  -0.545035  0  2.345869  0
O  O151  1  0.40257688  0.82202326  0.26609757  1  -1.17609  0  -0.316173  -0.548804  0  2.323982  0
O  O152  1  0.67296555  0.10702211  0.73639346  1  -1.176558  0  -0.315904  -0.548234  0  2.331205  0
O  O153  1  0.00620374  0.49675011  0.50088167  1  -1.210793  0  -0.574078  -1.03172  0  2.549966  0
O  O154  1  0.96356582  0.38805733  0.57977577  1  -1.176876  0  -0.315081  -0.547209  0  2.307633  0
O  O155  1  0.12082521  0.55521750  0.43905077  1  -1.177353  0  -0.311327  -0.540536  0  2.325648  0
O  O156  1  0.82099564  0.37694635  0.26803019  1  -1.174636  0  -0.311398  -0.546815  0  2.340546  0
