# generated using pymatgen
data_ZnH2C2N3F
_symmetry_space_group_name_H-M   'P 1'
_cell_length_a   9.81182346
_cell_length_b   11.29501965
_cell_length_c   11.29502089
_cell_angle_alpha   111.96373308
_cell_angle_beta   106.82769075
_cell_angle_gamma   106.82791169
_symmetry_Int_Tables_number   1
_chemical_formula_structural   ZnH2C2N3F
_chemical_formula_sum   'Zn6 H12 C12 N18 F6'
_cell_volume   993.40321111
_cell_formula_units_Z   6
loop_
 _symmetry_equiv_pos_site_id
 _symmetry_equiv_pos_as_xyz
  1  'x, y, z'
loop_
 _atom_site_type_symbol
 _atom_site_label
 _atom_site_symmetry_multiplicity
 _atom_site_fract_x
 _atom_site_fract_y
 _atom_site_fract_z
 _atom_site_occupancy
 _atom_site_pbe_bader_charge
 _atom_site_pbe_bader_spin_density
 _atom_site_pbe_cm5_charge
 _atom_site_pbe_ddec_charge
 _atom_site_pbe_ddec_spin_density
 _atom_site_pbe_ddec_sum_bond_order
 _atom_site_pbe_magmom
Zn  Zn0  1  0.62660730  0.37656613  0.75327405  1  1.324297  0  0.680262  0.746374  0  2.501396  0
Zn  Zn1  1  0.87339339  0.24672644  0.62343451  1  1.324313  0  0.680274  0.746404  0  2.501333  0
Zn  Zn2  1  0.25000058  0.37660250  0.62339687  1  1.308307  0  0.680445  0.747374  0  2.501782  0
Zn  Zn3  1  0.37339265  0.62343386  0.24672611  1  1.324299  0  0.680267  0.746376  0  2.501352  0
Zn  Zn4  1  0.12660655  0.75327355  0.37656565  1  1.324289  0  0.680274  0.746405  0  2.501368  0
Zn  Zn5  1  0.74999990  0.62339642  0.37660214  1  1.308301  0  0.680436  0.747367  0  2.501798  0
H  H6  1  0.63733971  0.59084614  0.61687656  1  0.153164  0  0.140023  0.111494  0  0.982667  0
H  H7  1  0.02044373  0.38314036  0.97408643  1  0.149353  0  0.139433  0.110369  0  0.982078  0
H  H8  1  0.04660276  0.02608526  0.40917973  1  0.146717  0  0.139898  0.110624  0  0.982066  0
H  H9  1  0.47955734  0.02591539  0.61686046  1  0.14937  0  0.139442  0.110365  0  0.982079  0
H  H10  1  0.45339907  0.59082279  0.97391401  1  0.146687  0  0.139898  0.110634  0  0.981996  0
H  H11  1  0.86265838  0.38312208  0.40915180  1  0.153149  0  0.140035  0.111485  0  0.982678  0
H  H12  1  0.36265917  0.40915172  0.38312165  1  0.15314  0  0.140028  0.11149  0  0.982686  0
H  H13  1  0.97955782  0.61686070  0.02591365  1  0.149325  0  0.139426  0.110349  0  0.982079  0
H  H14  1  0.95339771  0.97391366  0.59082105  1  0.146696  0  0.139905  0.110647  0  0.982023  0
H  H15  1  0.52044258  0.97408460  0.38314324  1  0.149379  0  0.139442  0.11038  0  0.982066  0
H  H16  1  0.54660301  0.40917934  0.02608572  1  0.146726  0  0.139912  0.110666  0  0.98201  0
H  H17  1  0.13734103  0.61687685  0.59084694  1  0.15316  0  0.14004  0.111504  0  0.982672  0
C  C18  1  0.69349629  0.52390037  0.58180762  1  0.991311  0  0.150019  0.14848  0  3.957917  0
C  C19  1  0.11162873  0.41823251  0.94215138  1  1.008581  0  0.15096  0.149859  0  3.955138  0
C  C20  1  0.16968630  0.05792114  0.47611553  1  0.996494  0  0.150724  0.149765  0  3.955072  0
C  C21  1  0.38837259  0.05784963  0.58176928  1  1.008557  0  0.15093  0.149872  0  3.955095  0
C  C22  1  0.33031539  0.52388645  0.94207833  1  0.996471  0  0.150717  0.149729  0  3.954975  0
C  C23  1  0.80650211  0.41819106  0.47609796  1  0.991324  0  0.150001  0.148486  0  3.957994  0
C  C24  1  0.30650312  0.47609856  0.41819200  1  0.991401  0  0.150006  0.148455  0  3.958086  0
C  C25  1  0.88837334  0.58176962  0.05784923  1  1.008576  0  0.150956  0.149897  0  3.95516  0
C  C26  1  0.83031523  0.94207779  0.52388464  1  0.996463  0  0.150722  0.149759  0  3.955018  0
C  C27  1  0.61162627  0.94215036  0.41823414  1  1.008377  0  0.150958  0.149859  0  3.954998  0
C  C28  1  0.66968722  0.47611675  0.05792282  1  0.996379  0  0.150722  0.14973  0  3.955014  0
C  C29  1  0.19349730  0.58180786  0.52390078  1  0.991365  0  0.150016  0.148499  0  3.95798  0
N  N30  1  0.71384526  0.43695513  0.63103516  1  -0.797501  0  -0.254066  -0.193095  0  3.526674  0
N  N31  1  0.08277486  0.36898659  0.80600871  1  -0.803421  0  -0.254539  -0.194028  0  3.527699  0
N  N32  1  0.27694331  0.19403998  0.56305690  1  -0.775934  0  -0.254168  -0.193644  0  3.525648  0
N  N33  1  0.41722600  0.19399272  0.63101395  1  -0.803437  0  -0.254523  -0.194013  0  3.52762  0
N  N34  1  0.22305675  0.43694415  0.80596047  1  -0.775923  0  -0.254152  -0.193594  0  3.525611  0
N  N35  1  0.78615384  0.36896325  0.56304303  1  -0.777675  0  -0.254044  -0.193057  0  3.526697  0
N  N36  1  0.28615362  0.56304273  0.36896304  1  -0.777587  0  -0.254037  -0.193011  0  3.526668  0
N  N37  1  0.91722615  0.63101554  0.19399252  1  -0.803448  0  -0.254539  -0.194057  0  3.52775  0
N  N38  1  0.72305716  0.80595895  0.43694388  1  -0.775961  0  -0.254191  -0.193681  0  3.525628  0
N  N39  1  0.58277447  0.80600620  0.36898683  1  -0.803203  0  -0.254489  -0.19397  0  3.527555  0
N  N40  1  0.77694480  0.56305692  0.19403961  1  -0.77594  0  -0.254169  -0.193609  0  3.525693  0
N  N41  1  0.21384398  0.63103461  0.43695402  1  -0.797608  0  -0.254062  -0.193109  0  3.526659  0
N  N42  1  0.74999905  0.51560197  0.48439606  1  -1.239767  0  -0.351006  -0.302842  0  3.562625  0
N  N43  1  0.26551226  0.51561508  0.03119879  1  -1.257665  0  -0.351449  -0.302155  0  3.557673  0
N  N44  1  0.23448916  0.96880133  0.48438622  1  -1.257675  0  -0.351426  -0.302155  0  3.557667  0
N  N45  1  0.24999983  0.48439589  0.51560215  1  -1.239864  0  -0.351025  -0.302875  0  3.562777  0
N  N46  1  0.73448875  0.48438705  0.96880155  1  -1.257543  0  -0.351437  -0.302171  0  3.55772  0
N  N47  1  0.76551131  0.03119759  0.51561456  1  -1.257669  0  -0.35145  -0.302161  0  3.557659  0
F  F48  1  0.74999856  0.25402496  0.74597639  1  -0.786884  0  -0.400985  -0.577245  0  1.027603  0
F  F49  1  0.00409276  0.25404214  0.50818719  1  -0.786093  0  -0.401366  -0.577754  0  1.028317  0
F  F50  1  0.49590762  0.49181292  0.74595670  1  -0.786101  0  -0.401357  -0.577733  0  1.028322  0
F  F51  1  0.25000137  0.74597717  0.25402633  1  -0.786882  0  -0.400986  -0.577255  0  1.027613  0
F  F52  1  0.99590718  0.74595572  0.49181217  1  -0.786089  0  -0.401355  -0.577743  0  1.028325  0
F  F53  1  0.50409286  0.50818600  0.25404231  1  -0.786103  0  -0.401355  -0.577741  0  1.028303  0
