# generated using pymatgen
data_ZnH8C8(N3O)2
_symmetry_space_group_name_H-M   'P 1'
_cell_length_a   10.84360788
_cell_length_b   12.49366607
_cell_length_c   16.88413751
_cell_angle_alpha   89.99992270
_cell_angle_beta   94.85987868
_cell_angle_gamma   89.99990926
_symmetry_Int_Tables_number   1
_chemical_formula_structural   ZnH8C8(N3O)2
_chemical_formula_sum   'Zn8 H64 C64 N48 O16'
_cell_volume   2279.17891519
_cell_formula_units_Z   8
loop_
 _symmetry_equiv_pos_site_id
 _symmetry_equiv_pos_as_xyz
  1  'x, y, z'
loop_
 _atom_site_type_symbol
 _atom_site_label
 _atom_site_symmetry_multiplicity
 _atom_site_fract_x
 _atom_site_fract_y
 _atom_site_fract_z
 _atom_site_occupancy
 _atom_site_pbe_bader_charge
 _atom_site_pbe_bader_spin_density
 _atom_site_pbe_cm5_charge
 _atom_site_pbe_ddec_charge
 _atom_site_pbe_ddec_spin_density
 _atom_site_pbe_ddec_sum_bond_order
 _atom_site_pbe_magmom
Zn  Zn0  1  0.72558633  0.73307682  0.59492401  1  1.187282  0  0.734043  0.66109  0  2.522723  0
Zn  Zn1  1  0.77441209  0.23307675  0.90507628  1  1.187267  0  0.734013  0.661068  0  2.522769  0
Zn  Zn2  1  0.27441381  0.26692350  0.40507567  1  1.187285  0  0.73404  0.661069  0  2.522727  0
Zn  Zn3  1  0.22558712  0.76692277  0.09492395  1  1.187278  0  0.734029  0.661048  0  2.522785  0
Zn  Zn4  1  0.20610881  0.74494412  0.45602079  1  1.193432  0  0.743479  0.67116  0  2.501204  0
Zn  Zn5  1  0.29388939  0.24494388  0.04397870  1  1.193431  0  0.74348  0.671124  0  2.501193  0
Zn  Zn6  1  0.79389041  0.25505620  0.54397884  1  1.193431  0  0.743473  0.67113  0  2.501212  0
Zn  Zn7  1  0.70611075  0.75505645  0.95602099  1  1.193423  0  0.743473  0.671109  0  2.501236  0
H  H8  1  0.06296083  0.64146401  0.20072098  1  0.060635  0  0.100423  0.146626  0  1.026716  0
H  H9  1  0.43703942  0.14146311  0.29927992  1  0.060613  0  0.100448  0.146663  0  1.026673  0
H  H10  1  0.93703839  0.35853551  0.79927866  1  0.060649  0  0.100425  0.146638  0  1.026706  0
H  H11  1  0.56296164  0.85853641  0.70072041  1  0.060623  0  0.100416  0.146625  0  1.026715  0
H  H12  1  0.00233392  0.68555992  0.28949728  1  0.059988  0  0.104384  0.15898  0  0.979372  0
H  H13  1  0.49766625  0.18555909  0.21050297  1  0.06  0  0.104377  0.15897  0  0.979374  0
H  H14  1  0.99766622  0.31444040  0.71050299  1  0.059987  0  0.104382  0.158978  0  0.979377  0
H  H15  1  0.50233297  0.81444123  0.78949666  1  0.059991  0  0.104393  0.15896  0  0.979402  0
H  H16  1  0.11846274  0.58572685  0.29352682  1  0.099075  0  0.099646  0.150325  0  1.015283  0
H  H17  1  0.38153762  0.08572619  0.20647355  1  0.099069  0  0.099657  0.150351  0  1.015275  0
H  H18  1  0.88153740  0.41427267  0.70647228  1  0.099028  0  0.099644  0.150308  0  1.015323  0
H  H19  1  0.61846252  0.91427413  0.79352673  1  0.099059  0  0.099643  0.150327  0  1.015281  0
H  H20  1  0.47523821  0.95650083  0.35274426  1  0.111742  0  0.112826  0.140542  0  0.995554  0
H  H21  1  0.02476235  0.45650157  0.14725574  1  0.111735  0  0.112812  0.140518  0  0.995553  0
H  H22  1  0.52476286  0.04349869  0.64725548  1  0.111756  0  0.112808  0.140513  0  0.995571  0
H  H23  1  0.97523872  0.54349876  0.85274459  1  0.111738  0  0.112804  0.140513  0  0.995482  0
H  H24  1  0.34334454  0.98936793  0.40200646  1  0.084256  0  0.11029  0.13406  0  0.976726  0
H  H25  1  0.15665595  0.48936857  0.09799292  1  0.08424  0  0.110294  0.134054  0  0.976691  0
H  H26  1  0.65665560  0.01063159  0.59799323  1  0.084245  0  0.110298  0.134054  0  0.976697  0
H  H27  1  0.84334511  0.51063255  0.90200741  1  0.084239  0  0.110296  0.13406  0  0.97674  0
H  H28  1  0.48949847  0.66601734  0.66223954  1  0.069654  0  0.096374  0.136817  0  1.029077  0
H  H29  1  0.01050071  0.16601776  0.83776036  1  0.069634  0  0.096393  0.136875  0  1.029032  0
H  H30  1  0.51050167  0.33398218  0.33776014  1  0.069653  0  0.096398  0.136869  0  1.029047  0
H  H31  1  0.98949943  0.83398176  0.16223992  1  0.069633  0  0.096394  0.136872  0  1.029028  0
H  H32  1  0.35971054  0.62131084  0.59870895  1  0.066514  0  0.09782  0.144998  0  1.014452  0
H  H33  1  0.14028874  0.12131176  0.90129100  1  0.066528  0  0.097831  0.145008  0  1.014464  0
H  H34  1  0.64028868  0.37868868  0.40129128  1  0.066521  0  0.097821  0.144982  0  1.014471  0
H  H35  1  0.85971141  0.87868856  0.09870868  1  0.066531  0  0.09783  0.145007  0  1.014451  0
H  H36  1  0.34671328  0.73747846  0.65736350  1  0.075041  0  0.103827  0.159499  0  0.990215  0
H  H37  1  0.15328577  0.23747866  0.84263632  1  0.075041  0  0.103846  0.159522  0  0.990182  0
H  H38  1  0.65328686  0.26252186  0.34263618  1  0.075038  0  0.103836  0.159502  0  0.990197  0
H  H39  1  0.84671437  0.76252166  0.15736396  1  0.075043  0  0.103843  0.159518  0  0.990186  0
H  H40  1  0.00615819  0.97646856  0.68805747  1  0.038238  0  0.099206  0.148555  0  0.98672  0
H  H41  1  0.49384223  0.47646996  0.81194337  1  0.038235  0  0.099214  0.148583  0  0.986712  0
H  H42  1  0.99384195  0.02353096  0.31194340  1  0.038242  0  0.099212  0.148576  0  0.98671  0
H  H43  1  0.50615791  0.52353036  0.18805691  1  0.038242  0  0.099208  0.14857  0  0.986711  0
H  H44  1  0.85712112  0.91637033  0.68797383  1  0.035988  0  0.093321  0.133454  0  1.018769  0
H  H45  1  0.64287879  0.41637140  0.81202636  1  0.035998  0  0.093329  0.133474  0  1.018747  0
H  H46  1  0.14287902  0.08362919  0.31202586  1  0.035991  0  0.093323  0.133469  0  1.018767  0
H  H47  1  0.35712043  0.58362892  0.18797387  1  0.036211  0  0.09333  0.133481  0  1.018743  0
H  H48  1  0.88195925  0.02666434  0.62413554  1  0.065963  0  0.094932  0.14103  0  1.019379  0
H  H49  1  0.61804051  0.52666405  0.87586503  1  0.065976  0  0.094964  0.141056  0  1.019378  0
H  H50  1  0.11804089  0.97333518  0.37586473  1  0.065956  0  0.094956  0.141059  0  1.019393  0
H  H51  1  0.38195963  0.47333627  0.12413466  1  0.065966  0  0.094959  0.141038  0  1.019405  0
H  H52  1  0.82922889  0.69206334  0.40465313  1  0.076245  0  0.112031  0.139792  0  0.953502  0
H  H53  1  0.67076786  0.19206237  0.09534980  1  0.076221  0  0.112021  0.139777  0  0.953488  0
H  H54  1  0.17077125  0.30793698  0.59534656  1  0.076258  0  0.112022  0.139787  0  0.953465  0
H  H55  1  0.32923136  0.80793715  0.90465043  1  0.076215  0  0.112027  0.139778  0  0.953467  0
H  H56  1  0.97167086  0.62255521  0.42081671  1  0.114466  0  0.114183  0.136363  0  1.00636  0
H  H57  1  0.52832603  0.12255367  0.07918274  1  0.115335  0  0.114181  0.136364  0  1.006337  0
H  H58  1  0.02832928  0.37744591  0.57918357  1  0.114457  0  0.114194  0.136396  0  1.006306  0
H  H59  1  0.47167319  0.87744666  0.92081689  1  0.115347  0  0.114175  0.136367  0  1.006299  0
H  H60  1  0.62723546  0.37815620  0.64289810  1  0.067945  0  0.100064  0.14834  0  1.015079  0
H  H61  1  0.87276546  0.87815800  0.85710278  1  0.067975  0  0.100091  0.148343  0  1.015096  0
H  H62  1  0.37276469  0.62184332  0.35710218  1  0.067946  0  0.100061  0.148338  0  1.015103  0
H  H63  1  0.12723468  0.12184232  0.14289750  1  0.067974  0  0.100061  0.148296  0  1.015096  0
H  H64  1  0.52972885  0.47996470  0.59949301  1  0.063292  0  0.100735  0.151648  0  0.980654  0
H  H65  1  0.97027094  0.97996628  0.90050770  1  0.063285  0  0.100701  0.151588  0  0.980643  0
H  H66  1  0.47027222  0.52003402  0.40050672  1  0.063428  0  0.100761  0.151693  0  0.980732  0
H  H67  1  0.02972920  0.02003324  0.09949258  1  0.063387  0  0.100734  0.151627  0  0.980672  0
H  H68  1  0.63938715  0.51139407  0.68039837  1  0.067169  0  0.098643  0.144098  0  1.021183  0
H  H69  1  0.86061264  0.01139484  0.81960222  1  0.067172  0  0.098654  0.1441  0  1.021165  0
H  H70  1  0.36061299  0.48860625  0.31960191  1  0.067171  0  0.098643  0.144106  0  1.021187  0
H  H71  1  0.13938658  0.98860468  0.18039860  1  0.067166  0  0.098644  0.144098  0  1.021144  0
C  C72  1  0.08695969  0.66007897  0.26347678  1  -0.052129  0  -0.236298  -0.475911  0  3.937766  0
C  C73  1  0.41303960  0.16007822  0.23652345  1  -0.052124  0  -0.236326  -0.475966  0  3.937763  0
C  C74  1  0.91304045  0.33992135  0.73652290  1  -0.052098  0  -0.236303  -0.475914  0  3.937794  0
C  C75  1  0.58695961  0.83992210  0.76347678  1  -0.052135  0  -0.23632  -0.475904  0  3.937774  0
C  C76  1  0.18370048  0.74418472  0.27230531  1  0.982932  0  0.21194  0.375536  0  4.029184  0
C  C77  1  0.31629957  0.24418411  0.22769429  1  0.982927  0  0.211925  0.37556  0  4.029179  0
C  C78  1  0.81629966  0.25581560  0.72769438  1  0.98293  0  0.211948  0.375565  0  4.029182  0
C  C79  1  0.68369964  0.75581621  0.77230594  1  0.982906  0  0.211893  0.375497  0  4.029177  0
C  C80  1  0.32006135  0.85615571  0.32239326  1  0.996368  0  0.206317  0.325651  0  4.02926  0
C  C81  1  0.17993941  0.35615538  0.17760567  1  0.99637  0  0.206338  0.325619  0  4.0293  0
C  C82  1  0.67993879  0.14384461  0.67760584  1  0.996366  0  0.206342  0.325619  0  4.029296  0
C  C83  1  0.82006074  0.64384574  0.82239461  1  0.996378  0  0.206393  0.325722  0  4.02923  0
C  C84  1  0.39806577  0.92170642  0.38165825  1  -0.00635  0  -0.140823  -0.32588  0  3.942319  0
C  C85  1  0.10193393  0.42170711  0.11834116  1  -0.006338  0  -0.140798  -0.325804  0  3.942178  0
C  C86  1  0.60193437  0.07829310  0.61834144  1  -0.006357  0  -0.140796  -0.325791  0  3.942202  0
C  C87  1  0.89806621  0.57829401  0.88165912  1  -0.006316  0  -0.14079  -0.325802  0  3.942205  0
C  C88  1  0.44720557  0.85979095  0.45334266  1  0.974642  0  0.208269  0.339301  0  4.008902  0
C  C89  1  0.05279333  0.35979103  0.04665676  1  0.974653  0  0.208311  0.339314  0  4.008855  0
C  C90  1  0.55279458  0.14020857  0.54665703  1  0.974644  0  0.208294  0.339319  0  4.008854  0
C  C91  1  0.94720774  0.64020929  0.95334298  1  0.974647  0  0.208276  0.339223  0  4.00891  0
C  C92  1  0.45023727  0.75995867  0.55719791  1  1.004743  0  0.21397  0.387028  0  4.004261  0
C  C93  1  0.04976265  0.25995883  0.94280193  1  1.004563  0  0.21395  0.386963  0  4.004347  0
C  C94  1  0.54976380  0.24004165  0.44280183  1  1.004738  0  0.213944  0.386966  0  4.004268  0
C  C95  1  0.95023749  0.74004069  0.05719834  1  1.004739  0  0.213931  0.386899  0  4.004412  0
C  C96  1  0.41013833  0.69211306  0.62255426  1  -0.051224  0  -0.23463  -0.471195  0  3.936539  0
C  C97  1  0.08986080  0.19211329  0.87744501  1  -0.051223  0  -0.234679  -0.471264  0  3.936523  0
C  C98  1  0.58986181  0.30788726  0.37744542  1  -0.051238  0  -0.234649  -0.471202  0  3.936528  0
C  C99  1  0.91013934  0.80788623  0.12255467  1  -0.051217  0  -0.234669  -0.471242  0  3.936522  0
C  C100  1  0.92319106  0.95319617  0.65044921  1  -0.022665  0  -0.234829  -0.450723  0  3.928722  0
C  C101  1  0.57680786  0.45319567  0.84955089  1  -0.02268  0  -0.234879  -0.450804  0  3.928774  0
C  C102  1  0.07680908  0.04680335  0.34955107  1  -0.022669  0  -0.23484  -0.45076  0  3.928724  0
C  C103  1  0.42319136  0.54680385  0.15044875  1  -0.022889  0  -0.234859  -0.450751  0  3.928755  0
C  C104  1  0.95594205  0.87726653  0.58782299  1  1.025589  0  0.209262  0.384138  0  4.017564  0
C  C105  1  0.54405794  0.37726677  0.91217665  1  1.025582  0  0.209251  0.384157  0  4.017597  0
C  C106  1  0.04405901  0.12273299  0.41217734  1  1.025621  0  0.209243  0.384092  0  4.017542  0
C  C107  1  0.45594220  0.62273356  0.08782304  1  1.025594  0  0.209232  0.384068  0  4.01764  0
C  C108  1  0.94432120  0.74756810  0.50354355  1  1.007225  0  0.215322  0.343353  0  3.999417  0
C  C109  1  0.55567905  0.24756736  0.99645742  1  1.007219  0  0.215344  0.343362  0  3.999459  0
C  C110  1  0.05567894  0.25243302  0.49645614  1  1.007217  0  0.215371  0.34337  0  3.999548  0
C  C111  1  0.44432109  0.75243296  0.00354286  1  1.007225  0  0.215339  0.343345  0  3.999508  0
C  C112  1  0.89601882  0.65793156  0.45089841  1  -0.006926  0  -0.139553  -0.331767  0  3.964145  0
C  C113  1  0.60397892  0.15792997  0.04910224  1  -0.007812  0  -0.139588  -0.331835  0  3.964109  0
C  C114  1  0.10398040  0.34206876  0.54910123  1  -0.006932  0  -0.139576  -0.331857  0  3.964124  0
C  C115  1  0.39602029  0.84206955  0.95089798  1  -0.00781  0  -0.139549  -0.331779  0  3.96414  0
C  C116  1  0.83465259  0.56986214  0.49307428  1  1.01994  0  0.208762  0.340602  0  4.007544  0
C  C117  1  0.66534532  0.06986134  0.00692647  1  1.019947  0  0.208925  0.3408  0  4.007371  0
C  C118  1  0.16534570  0.43013818  0.50692531  1  1.019964  0  0.208867  0.34077  0  4.007439  0
C  C119  1  0.33465389  0.93013738  0.99307435  1  1.019923  0  0.208848  0.340707  0  4.007447  0
C  C120  1  0.71759351  0.48759246  0.56983631  1  0.99771  0  0.209766  0.377961  0  4.021624  0
C  C121  1  0.78240534  0.98759265  0.93016375  1  0.997723  0  0.209791  0.377994  0  4.021515  0
C  C122  1  0.28240663  0.51240786  0.43016338  1  0.997536  0  0.209778  0.378006  0  4.021538  0
C  C123  1  0.21759480  0.01240687  0.06983712  1  0.997724  0  0.209777  0.377955  0  4.021624  0
C  C124  1  0.62360737  0.46288716  0.62632095  1  -0.080902  0  -0.232817  -0.463611  0  3.936917  0
C  C125  1  0.87639245  0.96288811  0.87367978  1  -0.080917  0  -0.232827  -0.463573  0  3.93687  0
C  C126  1  0.37639369  0.53711317  0.37367879  1  -0.080887  0  -0.232841  -0.463689  0  3.937026  0
C  C127  1  0.12360677  0.03711141  0.12632104  1  -0.081033  0  -0.232818  -0.463558  0  3.936884  0
C  C128  1  0.74692639  0.97488113  0.37363438  1  2.120603  0  0.356026  0.697992  0  4.19458  0
C  C129  1  0.75307720  0.47488240  0.12636568  1  2.120469  0  0.356071  0.697984  0  4.194874  0
C  C130  1  0.25307560  0.02511759  0.62636481  1  2.120578  0  0.356058  0.69795  0  4.194729  0
C  C131  1  0.24692664  0.52511792  0.87363480  1  2.12057  0  0.356048  0.698002  0  4.194521  0
C  C132  1  0.59825880  0.88311570  0.19512018  1  2.09533  0  0.357918  0.701139  0  4.166723  0
C  C133  1  0.90174128  0.38311323  0.30488038  1  2.095349  0  0.357938  0.701104  0  4.166663  0
C  C134  1  0.40174227  0.11688862  0.80488015  1  2.095355  0  0.35788  0.701058  0  4.166758  0
C  C135  1  0.09825701  0.61688709  0.69512039  1  2.095327  0  0.357924  0.70115  0  4.166698  0
N  N136  1  0.87899047  0.79741895  0.55755572  1  -1.263648  0  -0.37009  -0.42808  0  3.459877  0
N  N137  1  0.62100783  0.29741822  0.94244510  1  -1.263589  0  -0.370086  -0.428118  0  3.460042  0
N  N138  1  0.12100967  0.20258217  0.44244456  1  -1.26365  0  -0.370119  -0.428069  0  3.459907  0
N  N139  1  0.37899139  0.70258210  0.05755513  1  -1.26362  0  -0.370092  -0.428047  0  3.459974  0
N  N140  1  0.06258640  0.87806758  0.55479376  1  -0.715699  0  -0.24934  -0.294361  0  3.168548  0
N  N141  1  0.43741237  0.37806721  0.94520591  1  -0.71568  0  -0.24935  -0.2944  0  3.168464  0
N  N142  1  0.93741374  0.12193274  0.44520593  1  -0.71569  0  -0.249346  -0.294354  0  3.16854  0
N  N143  1  0.56258777  0.62193231  0.05479437  1  -0.715665  0  -0.249327  -0.294335  0  3.168553  0
N  N144  1  0.05492902  0.79459974  0.50121071  1  -0.819136  0  -0.273196  -0.254868  0  3.582368  0
N  N145  1  0.44507084  0.29459847  0.99878910  1  -0.81914  0  -0.273147  -0.254753  0  3.582198  0
N  N146  1  0.94507113  0.20540138  0.49878897  1  -0.819135  0  -0.273177  -0.254832  0  3.582346  0
N  N147  1  0.55493023  0.70540106  0.00121064  1  -0.819174  0  -0.27317  -0.254822  0  3.58231  0
N  N148  1  0.74891979  0.58704525  0.54681364  1  -1.269619  0  -0.370364  -0.43258  0  3.45006  0
N  N149  1  0.75107892  0.08704513  0.95318741  1  -1.269609  0  -0.370479  -0.432721  0  3.449972  0
N  N150  1  0.25108035  0.41295507  0.45318664  1  -1.269622  0  -0.370417  -0.432625  0  3.450018  0
N  N151  1  0.24892029  0.91295359  0.04681341  1  -1.269622  0  -0.370442  -0.432622  0  3.449983  0
N  N152  1  0.85595954  0.46653137  0.48223926  1  -0.726883  0  -0.249174  -0.292136  0  3.206166  0
N  N153  1  0.64404036  0.96653170  0.01776120  1  -0.726884  0  -0.24915  -0.292118  0  3.206202  0
N  N154  1  0.14403967  0.53346895  0.51776038  1  -0.72693  0  -0.249215  -0.292202  0  3.206162  0
N  N155  1  0.35595978  0.03346782  0.98223907  1  -0.726864  0  -0.249184  -0.292156  0  3.205969  0
N  N156  1  0.78143058  0.41437455  0.53201324  1  -0.824121  0  -0.274958  -0.277144  0  3.566072  0
N  N157  1  0.71856841  0.91437476  0.96798750  1  -0.824167  0  -0.275034  -0.277218  0  3.566045  0
N  N158  1  0.21856864  0.58562577  0.46798640  1  -0.824115  0  -0.274975  -0.277202  0  3.566035  0
N  N159  1  0.28143173  0.08562477  0.03201397  1  -0.824145  0  -0.274974  -0.277162  0  3.565938  0
N  N160  1  0.56598071  0.79420075  0.54944891  1  -0.833103  0  -0.276152  -0.275776  0  3.565062  0
N  N161  1  0.93401759  0.29420197  0.95055131  1  -0.832906  0  -0.276106  -0.275731  0  3.56509  0
N  N162  1  0.43401943  0.20579877  0.45055136  1  -0.833077  0  -0.276114  -0.275694  0  3.565021  0
N  N163  1  0.06598162  0.70579835  0.04944892  1  -0.833109  0  -0.276106  -0.275718  0  3.565105  0
N  N164  1  0.56471541  0.85826767  0.48257134  1  -0.703364  0  -0.253834  -0.295951  0  3.162727  0
N  N165  1  0.93528379  0.35826888  0.01742800  1  -0.703411  0  -0.253909  -0.295996  0  3.16278  0
N  N166  1  0.43528473  0.14173185  0.51742834  1  -0.703365  0  -0.25388  -0.296017  0  3.162761  0
N  N167  1  0.06471635  0.64173144  0.98257169  1  -0.703425  0  -0.253909  -0.295971  0  3.162802  0
N  N168  1  0.37281582  0.79964689  0.49747582  1  -1.271897  0  -0.370737  -0.421102  0  3.462946  0
N  N169  1  0.12718320  0.29964695  0.00252366  1  -1.271884  0  -0.370713  -0.421049  0  3.462986  0
N  N170  1  0.62718432  0.20035344  0.50252387  1  -1.271907  0  -0.370744  -0.421094  0  3.46294  0
N  N171  1  0.87281694  0.70035337  0.99747661  1  -1.271871  0  -0.370686  -0.420968  0  3.462944  0
N  N172  1  0.23013734  0.78638921  0.34250792  1  -1.267478  0  -0.370356  -0.440853  0  3.480996  0
N  N173  1  0.26986263  0.28638879  0.15749163  1  -1.267504  0  -0.370362  -0.440851  0  3.481019  0
N  N174  1  0.76986280  0.21361111  0.65749177  1  -1.267496  0  -0.370359  -0.440843  0  3.48102  0
N  N175  1  0.73013751  0.71361233  0.84250865  1  -1.267504  0  -0.370344  -0.440858  0  3.481018  0
N  N176  1  0.32929566  0.85899642  0.24452441  1  -0.732794  0  -0.252296  -0.296341  0  3.181639  0
N  N177  1  0.17070416  0.35899676  0.25547506  1  -0.732758  0  -0.2523  -0.296282  0  3.18163  0
N  N178  1  0.67070448  0.14100310  0.75547528  1  -0.732754  0  -0.252303  -0.2963  0  3.18163  0
N  N179  1  0.82929598  0.64100356  0.74452462  1  -0.732734  0  -0.252311  -0.296336  0  3.181656  0
N  N180  1  0.24153367  0.78720573  0.21279061  1  -0.836731  0  -0.273388  -0.270851  0  3.561917  0
N  N181  1  0.25846630  0.28720589  0.28720894  1  -0.836704  0  -0.273402  -0.270933  0  3.561948  0
N  N182  1  0.75846648  0.21279459  0.78720908  1  -0.83671  0  -0.273414  -0.270922  0  3.561916  0
N  N183  1  0.74153292  0.71279443  0.71279069  1  -0.836709  0  -0.273391  -0.270881  0  3.561967  0
O  O184  1  0.81645200  0.90279256  0.37163605  1  -1.074331  0  -0.184682  -0.362695  0  2.225424  0
O  O185  1  0.68354803  0.40279232  0.12836389  1  -1.074148  0  -0.184701  -0.362695  0  2.225382  0
O  O186  1  0.18354721  0.09720776  0.62836300  1  -1.074266  0  -0.184723  -0.362714  0  2.225385  0
O  O187  1  0.31645303  0.59720721  0.87163703  1  -1.074293  0  -0.184687  -0.362668  0  2.225386  0
O  O188  1  0.67485997  0.04517009  0.37169064  1  -1.080531  0  -0.174371  -0.355339  0  2.296033  0
O  O189  1  0.82513985  0.54516916  0.12830965  1  -1.080592  0  -0.1744  -0.355326  0  2.296366  0
O  O190  1  0.32514017  0.95483023  0.62830905  1  -1.080578  0  -0.174367  -0.355277  0  2.296204  0
O  O191  1  0.17486029  0.45483036  0.87169123  1  -1.080537  0  -0.174392  -0.35537  0  2.295999  0
O  O192  1  0.59371394  0.97693044  0.19954476  1  -1.070438  0  -0.176505  -0.356965  0  2.255141  0
O  O193  1  0.90628594  0.47693117  0.30045569  1  -1.070402  0  -0.176579  -0.357073  0  2.254889  0
O  O194  1  0.40628620  0.02306988  0.80045552  1  -1.070351  0  -0.176553  -0.35704  0  2.254876  0
O  O195  1  0.09371420  0.52307155  0.69954459  1  -1.070349  0  -0.17655  -0.357032  0  2.254988  0
O  O196  1  0.60671728  0.78942262  0.19262793  1  -1.052027  0  -0.175389  -0.345935  0  2.214538  0
O  O197  1  0.89328298  0.28942496  0.30737273  1  -1.05208  0  -0.175336  -0.345793  0  2.214718  0
O  O198  1  0.39328379  0.21057690  0.80737181  1  -1.052149  0  -0.175305  -0.345779  0  2.214805  0
O  O199  1  0.10671438  0.71057936  0.69262858  1  -1.052119  0  -0.175353  -0.345883  0  2.214638  0
