# generated using pymatgen
data_NdH7C8NO8
_symmetry_space_group_name_H-M   'P 1'
_cell_length_a   7.61560456
_cell_length_b   9.94294925
_cell_length_c   14.96201523
_cell_angle_alpha   90.00020800
_cell_angle_beta   98.12178007
_cell_angle_gamma   90.00022225
_symmetry_Int_Tables_number   1
_chemical_formula_structural   NdH7C8NO8
_chemical_formula_sum   'Nd4 H28 C32 N4 O32'
_cell_volume   1121.58384519
_cell_formula_units_Z   4
loop_
 _symmetry_equiv_pos_site_id
 _symmetry_equiv_pos_as_xyz
  1  'x, y, z'
loop_
 _atom_site_type_symbol
 _atom_site_label
 _atom_site_symmetry_multiplicity
 _atom_site_fract_x
 _atom_site_fract_y
 _atom_site_fract_z
 _atom_site_occupancy
 _atom_site_hle17_bader_spin_density
 _atom_site_hle17_ddec_charge
 _atom_site_hle17_ddec_spin_density
 _atom_site_hle17_ddec_sum_bond_order
 _atom_site_hle17_magmom
 _atom_site_hse06_10hf_bader_spin_density
 _atom_site_hse06_10hf_ddec_charge
 _atom_site_hse06_10hf_ddec_spin_density
 _atom_site_hse06_10hf_ddec_sum_bond_order
 _atom_site_hse06_10hf_magmom
 _atom_site_hse06_bader_spin_density
 _atom_site_hse06_ddec_charge
 _atom_site_hse06_ddec_spin_density
 _atom_site_hse06_ddec_sum_bond_order
 _atom_site_hse06_magmom
 _atom_site_pbe_bader_spin_density
 _atom_site_pbe_cm5_charge
 _atom_site_pbe_ddec_charge
 _atom_site_pbe_ddec_spin_density
 _atom_site_pbe_ddec_sum_bond_order
 _atom_site_pbe_magmom
Nd  Nd0  1  0.14212135  0.45799306  0.35697134  1  0  2.339014  0  1.672983  0  0  2.232721  0  2.056082  0  0  2.272385  0  2.010184  0  0  1.499408  2.155133  0  2.179363  0
Nd  Nd1  1  0.35787666  0.95799234  0.14302736  1  0  2.339036  0  1.672796  0  0  2.232743  0  2.055882  0  0  2.272403  0  2.009985  0  0  1.499435  2.155179  0  2.179119  0
Nd  Nd2  1  0.85786669  0.54200620  0.64302394  1  0  2.338997  0  1.67276  0  0  2.232697  0  2.055842  0  0  2.272359  0  2.009947  0  0  1.499452  2.155126  0  2.179088  0
Nd  Nd3  1  0.64212990  0.04200794  0.85697531  1  0  2.338981  0  1.672929  0  0  2.232681  0  2.056026  0  0  2.27234  0  2.010129  0  0  1.499408  2.155078  0  2.179331  0
H  H4  1  0.74830498  0.44998007  0.29249360  1  0  0.439303  0  0.800427  0  0  0.424732  0  0.849125  0  0  0.432497  0  0.840587  0  0  0.335412  0.419012  0  0.854828  0
H  H5  1  0.75169351  0.94997938  0.20750572  1  0  0.439344  0  0.800372  0  0  0.424772  0  0.849069  0  0  0.432538  0  0.84053  0  0  0.335437  0.41905  0  0.854774  0
H  H6  1  0.25168569  0.55002120  0.70750522  1  0  0.439371  0  0.800294  0  0  0.424777  0  0.849031  0  0  0.432543  0  0.840491  0  0  0.335416  0.419054  0  0.854737  0
H  H7  1  0.24831307  0.05002089  0.79249428  1  0  0.439344  0  0.80032  0  0  0.424749  0  0.849057  0  0  0.432515  0  0.840518  0  0  0.335407  0.41903  0  0.85476  0
H  H8  1  0.78126462  0.55759528  0.36896954  1  0  0.440351  0  0.853432  0  0  0.408317  0  0.919058  0  0  0.419906  0  0.901916  0  0  0.304106  0.400021  0  0.931187  0
H  H9  1  0.71873423  0.05759601  0.13103086  1  0  0.440354  0  0.853424  0  0  0.408318  0  0.919054  0  0  0.419908  0  0.901911  0  0  0.304051  0.400017  0  0.931189  0
H  H10  1  0.21872737  0.44240600  0.63102938  1  0  0.440367  0  0.853407  0  0  0.408348  0  0.919017  0  0  0.419937  0  0.901874  0  0  0.304054  0.400048  0  0.931151  0
H  H11  1  0.28126837  0.94240627  0.86896951  1  0  0.44038  0  0.853384  0  0  0.408361  0  0.918995  0  0  0.419951  0  0.901849  0  0  0.304066  0.400062  0  0.931126  0
H  H12  1  0.03059240  0.22709117  0.20508179  1  0  0.450061  0  0.821765  0  0  0.424462  0  0.877508  0  0  0.434013  0  0.863359  0  0  0.313448  0.417185  0  0.888219  0
H  H13  1  0.46940957  0.72709261  0.29491732  1  0  0.450065  0  0.821746  0  0  0.424469  0  0.877498  0  0  0.434019  0  0.86335  0  0  0.313444  0.417188  0  0.888212  0
H  H14  1  0.96941153  0.77290608  0.79491801  1  0  0.450063  0  0.821723  0  0  0.424469  0  0.877491  0  0  0.434019  0  0.863342  0  0  0.313427  0.417191  0  0.888204  0
H  H15  1  0.53059435  0.27290866  0.70508381  1  0  0.450051  0  0.821726  0  0  0.424452  0  0.877514  0  0  0.434002  0  0.863366  0  0  0.313444  0.417181  0  0.888218  0
H  H16  1  0.91969275  0.36246172  0.17870291  1  0  0.390278  0  0.933874  0  0  0.346919  0  1.018571  0  0  0.358708  0  1.001812  0  0  0.282452  0.338577  0  1.030284  0
H  H17  1  0.58031053  0.86246214  0.32129788  1  0  0.390275  0  0.933881  0  0  0.34691  0  1.018588  0  0  0.358699  0  1.001829  0  0  0.282433  0.338571  0  1.030297  0
H  H18  1  0.08030986  0.63753553  0.82129545  1  0  0.390291  0  0.933857  0  0  0.346922  0  1.018571  0  0  0.358712  0  1.001811  0  0  0.282439  0.338579  0  1.030286  0
H  H19  1  0.41969205  0.13753813  0.67870516  1  0  0.390283  0  0.933869  0  0  0.346943  0  1.01855  0  0  0.358733  0  1.00179  0  0  0.282437  0.338602  0  1.030262  0
H  H20  1  0.16970293  0.88551415  0.35726723  1  0  0.120945  0  0.924035  0  0  0.127322  0  0.990625  0  0  0.132537  0  0.984473  0  0  0.12754  0.123666  0  0.994607  0
H  H21  1  0.33029861  0.38551728  0.14273557  1  0  0.120947  0  0.923937  0  0  0.127322  0  0.990531  0  0  0.132535  0  0.984388  0  0  0.127525  0.123663  0  0.994516  0
H  H22  1  0.83029832  0.11448412  0.64273572  1  0  0.12091  0  0.924083  0  0  0.127318  0  0.990647  0  0  0.132529  0  0.984506  0  0  0.127529  0.123663  0  0.994635  0
H  H23  1  0.66969999  0.61448500  0.85726584  1  0  0.120906  0  0.924048  0  0  0.127286  0  0.990647  0  0  0.132498  0  0.984506  0  0  0.127529  0.123631  0  0.994629  0
H  H24  1  0.21042833  0.88380323  0.64785136  1  0  0.100693  0  0.926241  0  0  0.107946  0  0.99029  0  0  0.111961  0  0.985714  0  0  0.12525  0.104732  0  0.994154  0
H  H25  1  0.28957767  0.38380236  0.85215015  1  0  0.10073  0  0.926167  0  0  0.107946  0  0.990251  0  0  0.111958  0  0.985679  0  0  0.125257  0.104732  0  0.994115  0
H  H26  1  0.78957027  0.11619402  0.35215206  1  0  0.100746  0  0.926122  0  0  0.107988  0  0.990192  0  0  0.112002  0  0.985618  0  0  0.125261  0.104779  0  0.994058  0
H  H27  1  0.71043289  0.61619791  0.14785081  1  0  0.100693  0  0.926169  0  0  0.107964  0  0.990211  0  0  0.11198  0  0.985636  0  0  0.12526  0.104749  0  0.994077  0
H  H28  1  0.39377648  0.21592185  0.52138510  1  0  0.085676  0  0.959173  0  0  0.092301  0  1.026539  0  0  0.094878  0  1.024179  0  0  0.121221  0.090194  0  1.028532  0
H  H29  1  0.10622721  0.71592019  0.97861517  1  0  0.085693  0  0.959195  0  0  0.092323  0  1.02655  0  0  0.094897  0  1.024198  0  0  0.121227  0.090212  0  1.028546  0
H  H30  1  0.60622077  0.78407641  0.47862022  1  0  0.085666  0  0.959138  0  0  0.09229  0  1.026504  0  0  0.094872  0  1.024138  0  0  0.121218  0.090173  0  1.028536  0
H  H31  1  0.89377807  0.28408109  0.02138139  1  0  0.085692  0  0.959173  0  0  0.09232  0  1.026539  0  0  0.094898  0  1.024177  0  0  0.121242  0.090211  0  1.028537  0
C  C32  1  0.31047528  0.14187984  0.34623617  1  0  0.742683  0  3.866729  0  0  0.692961  0  4.160984  0  0  0.728726  0  4.14986  0  0  0.242228  0.668574  0  4.164604  0
C  C33  1  0.18952355  0.64188772  0.15376117  1  0  0.74279  0  3.866509  0  0  0.693052  0  4.160854  0  0  0.728818  0  4.149729  0  0  0.24226  0.668672  0  4.164479  0
C  C34  1  0.68952199  0.85811239  0.65376648  1  0  0.742819  0  3.866614  0  0  0.693078  0  4.160887  0  0  0.728845  0  4.14976  0  0  0.242334  0.668692  0  4.164509  0
C  C35  1  0.81046981  0.35812060  0.84623184  1  0  0.742837  0  3.866651  0  0  0.693016  0  4.161043  0  0  0.728781  0  4.149918  0  0  0.242251  0.668631  0  4.164665  0
C  C36  1  0.28185491  0.06271236  0.42843373  1  0  -0.13135  0  3.740769  0  0  -0.104683  0  3.981215  0  0  -0.118622  0  4.005257  0  0  -0.007139  -0.096321  0  3.966177  0
C  C37  1  0.21814609  0.56271485  0.07156625  1  0  -0.13137  0  3.74059  0  0  -0.104823  0  3.981239  0  0  -0.118763  0  4.005284  0  0  -0.007185  -0.096467  0  3.966211  0
C  C38  1  0.71814633  0.93728691  0.57157122  1  0  -0.1314  0  3.740759  0  0  -0.104705  0  3.981193  0  0  -0.118647  0  4.005243  0  0  -0.007134  -0.096336  0  3.966156  0
C  C39  1  0.78185387  0.43728643  0.92843192  1  0  -0.131487  0  3.740788  0  0  -0.104728  0  3.981198  0  0  -0.118666  0  4.00524  0  0  -0.007119  -0.096364  0  3.966162  0
C  C40  1  0.20670878  0.93432183  0.42245881  1  0  -0.002583  0  3.648482  0  0  -0.045048  0  3.897538  0  0  -0.03731  0  3.912721  0  0  -0.044018  -0.04961  0  3.888156  0
C  C41  1  0.29329572  0.43432349  0.07754099  1  0  -0.002463  0  3.648238  0  0  -0.044873  0  3.897318  0  0  -0.037138  0  3.9125  0  0  -0.043936  -0.049435  0  3.887942  0
C  C42  1  0.79329644  0.06567744  0.57754577  1  0  -0.002534  0  3.648571  0  0  -0.04505  0  3.897631  0  0  -0.037317  0  3.912818  0  0  -0.044033  -0.049619  0  3.888259  0
C  C43  1  0.70670423  0.56567778  0.92245718  1  0  -0.002445  0  3.648456  0  0  -0.044945  0  3.897513  0  0  -0.037211  0  3.912696  0  0  -0.044001  -0.049506  0  3.88813  0
C  C44  1  0.17714941  0.86907778  0.50167039  1  0  -0.128579  0  3.724389  0  0  -0.100029  0  3.960284  0  0  -0.114386  0  3.985404  0  0  -0.010355  -0.091624  0  3.944906  0
C  C45  1  0.32285518  0.36907780  0.99833031  1  0  -0.128646  0  3.724568  0  0  -0.100105  0  3.960453  0  0  -0.114458  0  3.985572  0  0  -0.010381  -0.091703  0  3.945085  0
C  C46  1  0.82285449  0.13091948  0.49833275  1  0  -0.128618  0  3.724728  0  0  -0.100034  0  3.960573  0  0  -0.11439  0  3.985695  0  0  -0.010363  -0.091627  0  3.9452  0
C  C47  1  0.67714876  0.63092247  0.00166882  1  0  -0.128642  0  3.724546  0  0  -0.100079  0  3.960462  0  0  -0.114434  0  3.985583  0  0  -0.010372  -0.091671  0  3.945087  0
C  C48  1  0.09129581  0.73292588  0.49862323  1  0  0.739516  0  3.870925  0  0  0.689591  0  4.166366  0  0  0.725237  0  4.155621  0  0  0.2401  0.665303  0  4.169635  0
C  C49  1  0.40870748  0.23292748  0.00138200  1  0  0.739545  0  3.870781  0  0  0.68963  0  4.166216  0  0  0.725268  0  4.155486  0  0  0.240142  0.665337  0  4.169485  0
C  C50  1  0.90870010  0.26707238  0.50138533  1  0  0.739288  0  3.870996  0  0  0.689382  0  4.166386  0  0  0.725029  0  4.155642  0  0  0.240012  0.665092  0  4.169655  0
C  C51  1  0.59129910  0.76707481  0.99861799  1  0  0.73948  0  3.8709  0  0  0.689531  0  4.166378  0  0  0.725178  0  4.155632  0  0  0.240078  0.665233  0  4.169644  0
C  C52  1  0.23000371  0.93273525  0.58466723  1  0  0.141639  0  3.642825  0  0  0.097593  0  3.897385  0  0  0.106975  0  3.913087  0  0  0.064638  0.091378  0  3.887692  0
C  C53  1  0.27000257  0.43273567  0.91533442  1  0  0.14168  0  3.642767  0  0  0.097655  0  3.897325  0  0  0.10704  0  3.913024  0  0  0.064657  0.091433  0  3.887642  0
C  C54  1  0.76999753  0.06726200  0.41533772  1  0  0.141632  0  3.642794  0  0  0.097548  0  3.897343  0  0  0.10693  0  3.913044  0  0  0.064619  0.091331  0  3.887653  0
C  C55  1  0.73000667  0.56726460  0.08466511  1  0  0.141689  0  3.642762  0  0  0.097601  0  3.897323  0  0  0.106979  0  3.913029  0  0  0.064637  0.091381  0  3.887629  0
C  C56  1  0.33158852  0.11736345  0.51424678  1  0  0.13742  0  3.671418  0  0  0.093273  0  3.927721  0  0  0.102926  0  3.943998  0  0  0.061133  0.086873  0  3.917657  0
C  C57  1  0.16841461  0.61736403  0.98575254  1  0  0.137326  0  3.671492  0  0  0.093206  0  3.927814  0  0  0.10286  0  3.94409  0  0  0.061111  0.086805  0  3.917756  0
C  C58  1  0.66841007  0.88263581  0.48575731  1  0  0.137391  0  3.671382  0  0  0.093229  0  3.927653  0  0  0.102881  0  3.943933  0  0  0.061102  0.086826  0  3.917583  0
C  C59  1  0.83158935  0.38263725  0.01424392  1  0  0.137378  0  3.671401  0  0  0.0932  0  3.927675  0  0  0.102852  0  3.943952  0  0  0.061069  0.086799  0  3.917609  0
C  C60  1  0.54400357  0.53248794  0.46142136  1  0  0.560033  0  3.917514  0  0  0.51691  0  4.218295  0  0  0.546397  0  4.208947  0  0  0.22109  0.497398  0  4.219068  0
C  C61  1  0.95600574  0.03249189  0.03857909  1  0  0.560063  0  3.917302  0  0  0.516866  0  4.218153  0  0  0.546345  0  4.208808  0  0  0.221059  0.497354  0  4.218932  0
C  C62  1  0.45599904  0.46751233  0.53857701  1  0  0.560105  0  3.917103  0  0  0.516716  0  4.218263  0  0  0.546157  0  4.208975  0  0  0.220939  0.497212  0  4.219023  0
C  C63  1  0.04400480  0.96751341  0.96142320  1  0  0.560215  0  3.917082  0  0  0.516943  0  4.218045  0  0  0.5464  0  4.208729  0  0  0.221103  0.497432  0  4.218823  0
N  N64  1  0.30863610  0.05394583  0.59082644  1  0  -0.311722  0  3.156011  0  0  -0.245793  0  3.409934  0  0  -0.261879  0  3.424951  0  0  -0.302746  -0.235365  0  3.40054  0
N  N65  1  0.19136798  0.55394605  0.90917413  1  0  -0.311738  0  3.156018  0  0  -0.245776  0  3.409889  0  0  -0.26186  0  3.424904  0  0  -0.302775  -0.235357  0  3.400502  0
N  N66  1  0.69135984  0.94605042  0.40917678  1  0  -0.311632  0  3.155972  0  0  -0.245639  0  3.409825  0  0  -0.261726  0  3.424843  0  0  -0.30266  -0.235213  0  3.400434  0
N  N67  1  0.80864127  0.44605422  0.09082406  1  0  -0.311674  0  3.155954  0  0  -0.245706  0  3.409852  0  0  -0.261791  0  3.42487  0  0  -0.302698  -0.235272  0  3.400452  0
O  O68  1  0.33673490  0.26789181  0.35534614  1  0  -0.752662  0  1.989285  0  0  -0.707677  0  2.235911  0  0  -0.731837  0  2.222842  0  0  -0.408038  -0.683855  0  2.246119  0
O  O69  1  0.16326465  0.76788950  0.14465289  1  0  -0.752712  0  1.989463  0  0  -0.707704  0  2.236116  0  0  -0.73186  0  2.223044  0  0  -0.408064  -0.683896  0  2.246332  0
O  O70  1  0.66325972  0.73211048  0.64465632  1  0  -0.752714  0  1.98944  0  0  -0.707711  0  2.236081  0  0  -0.731867  0  2.223005  0  0  -0.408109  -0.683922  0  2.246316  0
O  O71  1  0.83673931  0.23211178  0.85534223  1  0  -0.752747  0  1.98928  0  0  -0.707716  0  2.235933  0  0  -0.731874  0  2.222862  0  0  -0.408076  -0.683898  0  2.246158  0
O  O72  1  0.30513468  0.07911354  0.27240838  1  0  -0.742943  0  2.039473  0  0  -0.695859  0  2.298855  0  0  -0.719624  0  2.282993  0  0  -0.407347  -0.671646  0  2.311141  0
O  O73  1  0.19486242  0.57911379  0.22759470  1  0  -0.743005  0  2.039276  0  0  -0.695893  0  2.29865  0  0  -0.719664  0  2.282791  0  0  -0.407381  -0.671678  0  2.310942  0
O  O74  1  0.69486788  0.92088573  0.72759801  1  0  -0.742998  0  2.039303  0  0  -0.695926  0  2.298718  0  0  -0.719695  0  2.282857  0  0  -0.407416  -0.671708  0  2.311011  0
O  O75  1  0.80511763  0.42088748  0.77240401  1  0  -0.74296  0  2.039464  0  0  -0.69585  0  2.298887  0  0  -0.719618  0  2.283024  0  0  -0.407324  -0.671636  0  2.311178  0
O  O76  1  0.08222422  0.66705890  0.42558962  1  0  -0.737197  0  2.026851  0  0  -0.691734  0  2.28356  0  0  -0.715683  0  2.269209  0  0  -0.39999  -0.667736  0  2.294095  0
O  O77  1  0.41777739  0.16706092  0.07441066  1  0  -0.737164  0  2.026891  0  0  -0.691708  0  2.283609  0  0  -0.715649  0  2.269261  0  0  -0.399996  -0.667724  0  2.294146  0
O  O78  1  0.91777709  0.33293635  0.57440531  1  0  -0.736912  0  2.027191  0  0  -0.691465  0  2.283899  0  0  -0.715406  0  2.269547  0  0  -0.399807  -0.667475  0  2.294435  0
O  O79  1  0.58222520  0.83293835  0.92559105  1  0  -0.737081  0  2.026971  0  0  -0.69161  0  2.283688  0  0  -0.715552  0  2.269335  0  0  -0.399937  -0.667613  0  2.294223  0
O  O80  1  0.03389301  0.69396069  0.56977316  1  0  -0.756658  0  2.059649  0  0  -0.714966  0  2.324334  0  0  -0.739594  0  2.311376  0  0  -0.405842  -0.690366  0  2.33388  0
O  O81  1  0.46610659  0.19395876  0.93022475  1  0  -0.756707  0  2.059322  0  0  -0.715012  0  2.323971  0  0  -0.739641  0  2.31102  0  0  -0.405894  -0.690413  0  2.333511  0
O  O82  1  0.96609769  0.30604260  0.43022032  1  0  -0.756688  0  2.059045  0  0  -0.714986  0  2.323658  0  0  -0.739624  0  2.310705  0  0  -0.405922  -0.690402  0  2.333222  0
O  O83  1  0.53389998  0.80604352  0.06977725  1  0  -0.756697  0  2.059306  0  0  -0.714983  0  2.323952  0  0  -0.739617  0  2.310996  0  0  -0.40585  -0.690376  0  2.3335  0
O  O84  1  0.44633275  0.55694211  0.38759525  1  0  -0.66662  0  2.046254  0  0  -0.62286  0  2.28599  0  0  -0.645002  0  2.275108  0  0  -0.361832  -0.601788  0  2.293688  0
O  O85  1  0.05366693  0.05694224  0.11239994  1  0  -0.666599  0  2.04646  0  0  -0.622828  0  2.28624  0  0  -0.644965  0  2.27536  0  0  -0.361825  -0.60176  0  2.293939  0
O  O86  1  0.55364474  0.44305716  0.61239057  1  0  -0.666495  0  2.046671  0  0  -0.622648  0  2.286531  0  0  -0.644765  0  2.275662  0  0  -0.361777  -0.60158  0  2.294205  0
O  O87  1  0.94634361  0.94306105  0.88760302  1  0  -0.666635  0  2.046324  0  0  -0.622847  0  2.286159  0  0  -0.644974  0  2.275286  0  0  -0.36184  -0.601771  0  2.293851  0
O  O88  1  0.70877876  0.55740036  0.47822722  1  0  -0.670254  0  2.107983  0  0  -0.623311  0  2.347435  0  0  -0.646426  0  2.337707  0  0  -0.3344  -0.60192  0  2.353515  0
O  O89  1  0.79121744  0.05740473  0.02177166  1  0  -0.670319  0  2.107653  0  0  -0.62334  0  2.347092  0  0  -0.646456  0  2.337368  0  0  -0.334384  -0.601928  0  2.353166  0
O  O90  1  0.29119471  0.44259991  0.52176432  1  0  -0.670412  0  2.107329  0  0  -0.623378  0  2.346855  0  0  -0.646494  0  2.337165  0  0  -0.334338  -0.601992  0  2.352933  0
O  O91  1  0.20879576  0.94259956  0.97823017  1  0  -0.6704  0  2.107637  0  0  -0.623388  0  2.347085  0  0  -0.646504  0  2.337378  0  0  -0.334386  -0.601982  0  2.353158  0
O  O92  1  0.82166378  0.52795811  0.31154402  1  0  -0.86418  0  1.823582  0  0  -0.824302  0  2.001748  0  0  -0.841242  0  1.973238  0  0  -0.616645  -0.806886  0  2.024251  0
O  O93  1  0.67833358  0.02795802  0.18845486  1  0  -0.864215  0  1.823544  0  0  -0.824336  0  2.001713  0  0  -0.841281  0  1.973213  0  0  -0.616607  -0.806922  0  2.024219  0
O  O94  1  0.17832691  0.47204217  0.68845213  1  0  -0.86426  0  1.82349  0  0  -0.824378  0  2.001651  0  0  -0.841322  0  1.973154  0  0  -0.616598  -0.806954  0  2.024151  0
O  O95  1  0.32167034  0.97204225  0.81154627  1  0  -0.864249  0  1.823498  0  0  -0.824358  0  2.001654  0  0  -0.841304  0  1.973156  0  0  -0.616599  -0.806929  0  2.024151  0
O  O96  1  0.99561494  0.31272019  0.22961201  1  0  -0.922916  0  1.861665  0  0  -0.878817  0  2.060758  0  0  -0.895548  0  2.025877  0  0  -0.63969  -0.860948  0  2.088804  0
O  O97  1  0.50438674  0.81271911  0.27038655  1  0  -0.922932  0  1.861603  0  0  -0.878836  0  2.060718  0  0  -0.895567  0  2.025834  0  0  -0.639678  -0.860971  0  2.088746  0
O  O98  1  0.00438502  0.68727807  0.77038550  1  0  -0.922918  0  1.8616  0  0  -0.878804  0  2.060721  0  0  -0.895545  0  2.025858  0  0  -0.639641  -0.860936  0  2.088752  0
O  O99  1  0.49561585  0.18728016  0.72961583  1  0  -0.922903  0  1.861633  0  0  -0.878822  0  2.06073  0  0  -0.895553  0  2.025845  0  0  -0.63965  -0.860945  0  2.088756  0
