# generated using pymatgen
data_NiH8C12N2O5
_symmetry_space_group_name_H-M   'P 1'
_cell_length_a   8.30777868
_cell_length_b   11.95732943
_cell_length_c   12.24663428
_cell_angle_alpha   96.33991322
_cell_angle_beta   89.99993240
_cell_angle_gamma   90.00008381
_symmetry_Int_Tables_number   1
_chemical_formula_structural   NiH8C12N2O5
_chemical_formula_sum   'Ni4 H32 C48 N8 O20'
_cell_volume   1209.12633203
_cell_formula_units_Z   4
loop_
 _symmetry_equiv_pos_site_id
 _symmetry_equiv_pos_as_xyz
  1  'x, y, z'
loop_
 _atom_site_type_symbol
 _atom_site_label
 _atom_site_symmetry_multiplicity
 _atom_site_fract_x
 _atom_site_fract_y
 _atom_site_fract_z
 _atom_site_occupancy
 _atom_site_pbe_bader_charge
 _atom_site_pbe_bader_spin_density
 _atom_site_pbe_cm5_charge
 _atom_site_pbe_ddec_charge
 _atom_site_pbe_ddec_spin_density
 _atom_site_pbe_ddec_sum_bond_order
 _atom_site_pbe_magmom
Ni  Ni0  1  0.56299762  0.51113800  0.70386738  1  1.172411  1.565887  0.65708  0.78542  1.780068  2.498171  1.549
Ni  Ni1  1  0.06300037  0.98886031  0.79613377  1  1.172287  1.565896  0.657081  0.785412  1.78007  2.498073  1.549
Ni  Ni2  1  0.43700517  0.48885975  0.29613274  1  1.17223  1.565893  0.657152  0.785495  1.780074  2.497918  1.549
Ni  Ni3  1  0.93699640  0.01114081  0.20386591  1  1.172287  1.565887  0.657113  0.785471  1.780067  2.498025  1.549
H  H4  1  0.31688985  0.54055395  0.57842618  1  0.64044  0.000265  0.287446  0.389354  0.000339  0.954425  0.0
H  H5  1  0.81688647  0.95944378  0.92157061  1  0.640466  0.000265  0.287444  0.389407  0.000339  0.954348  0.0
H  H6  1  0.68311414  0.45944214  0.42157048  1  0.640469  0.000264  0.287428  0.389339  0.000339  0.954421  0.0
H  H7  1  0.18311030  0.04055396  0.07843033  1  0.64047  0.000265  0.28747  0.389398  0.000339  0.954359  0.0
H  H8  1  0.45119180  0.61931592  0.54321452  1  0.635646  0.000231  0.292097  0.38215  0.000317  0.95686  0.0
H  H9  1  0.95119182  0.88068278  0.95678307  1  0.635652  0.000231  0.292034  0.382024  0.000317  0.957015  0.0
H  H10  1  0.54880978  0.38068101  0.45678142  1  0.635661  0.000231  0.292042  0.382021  0.000317  0.957025  0.0
H  H11  1  0.04880856  0.11931666  0.04321560  1  0.635642  0.000231  0.292068  0.38208  0.000317  0.956937  0.0
H  H12  1  0.43687954  0.18617837  0.45647928  1  0.076166  0.000214  0.120035  0.12549  3.7e-05  0.969963  0.0
H  H13  1  0.93688129  0.31382723  0.04352077  1  0.076176  0.000214  0.120029  0.125465  3.7e-05  0.970053  0.0
H  H14  1  0.56312566  0.81382107  0.54351940  1  0.076201  0.000214  0.120018  0.125489  3.7e-05  0.969998  0.0
H  H15  1  0.06311909  0.68617724  0.95648093  1  0.076206  0.000214  0.12002  0.125471  3.7e-05  0.970041  0.0
H  H16  1  0.30418188  0.99816927  0.41961871  1  0.124716  0.001311  0.118714  0.136828  0.000592  0.981165  0.001
H  H17  1  0.80418413  0.50183403  0.08037834  1  0.124571  0.001311  0.1187  0.136812  0.000592  0.981157  0.001
H  H18  1  0.69581489  0.00183017  0.58037915  1  0.12475  0.001311  0.118729  0.136809  0.000592  0.98118  0.001
H  H19  1  0.19581264  0.49817045  0.91962173  1  0.124776  0.001311  0.118716  0.136781  0.000592  0.981087  0.001
H  H20  1  0.24082689  0.21043777  0.78410687  1  0.140778  0.002924  0.122331  0.093444  0.001163  1.030658  0.002
H  H21  1  0.74082349  0.28956037  0.71589287  1  0.14076  0.002924  0.122328  0.093454  0.001163  1.030684  0.002
H  H22  1  0.75918192  0.78955998  0.21589161  1  0.14072  0.002924  0.122306  0.093418  0.001163  1.030716  0.002
H  H23  1  0.25917568  0.71043990  0.28410835  1  0.140737  0.002924  0.122329  0.093456  0.001163  1.030644  0.002
H  H24  1  0.19029810  0.83856498  0.40613736  1  0.110494  0.001598  0.106688  0.117529  0.000824  1.045899  0.001
H  H25  1  0.69029825  0.66143146  0.09386390  1  0.110392  0.001598  0.106719  0.117533  0.000824  1.045865  0.001
H  H26  1  0.80969386  0.16143615  0.59386069  1  0.109917  0.001599  0.1067  0.11759  0.000824  1.045734  0.001
H  H27  1  0.30969370  0.33856459  0.90613847  1  0.110366  0.001598  0.106711  0.117592  0.000824  1.045811  0.001
H  H28  1  0.03079800  0.65888573  0.40349918  1  0.117992  -4e-06  0.114986  0.117771  -0.000164  0.989787  0.0
H  H29  1  0.53080454  0.84111056  0.09650138  1  0.118005  -4e-06  0.114972  0.117738  -0.000164  0.98981  0.0
H  H30  1  0.96919997  0.34111370  0.59650194  1  0.117979  -4e-06  0.114977  0.117761  -0.000164  0.989778  0.0
H  H31  1  0.46919223  0.15888717  0.90350036  1  0.118033  -4e-06  0.114995  0.117767  -0.000164  0.989758  0.0
H  H32  1  0.89112889  0.76467640  0.73709807  1  0.144376  0.002899  0.122443  0.108241  0.001144  1.001178  0.002
H  H33  1  0.39112755  0.73532726  0.76290422  1  0.14423  0.002899  0.122437  0.108246  0.001144  1.001154  0.002
H  H34  1  0.10886908  0.23532554  0.26290334  1  0.144208  0.002899  0.122453  0.108279  0.001144  1.001145  0.002
H  H35  1  0.60887162  0.26467386  0.23709628  1  0.144256  0.002899  0.122424  0.108218  0.001144  1.001088  0.002
C  C36  1  0.42029627  0.32716746  0.65180872  1  1.579453  -0.002763  0.201777  0.553275  -0.004281  4.219755  -0.005
C  C37  1  0.92029844  0.17283252  0.84819353  1  1.579455  -0.002763  0.201788  0.553308  -0.004281  4.219654  -0.005
C  C38  1  0.57970531  0.67283028  0.34819303  1  1.57946  -0.002763  0.201831  0.553306  -0.004281  4.219493  -0.005
C  C39  1  0.07969713  0.82716775  0.15180606  1  1.579459  -0.002763  0.201832  0.553298  -0.004281  4.219616  -0.005
C  C40  1  0.34842257  0.21364596  0.62333981  1  -0.06978  0.008571  -0.007896  -0.068036  0.005134  3.965999  0.007
C  C41  1  0.84842131  0.28635313  0.87666077  1  -0.069774  0.008572  -0.007909  -0.06803  0.005134  3.966039  0.007
C  C42  1  0.65158022  0.78635264  0.37665877  1  -0.069762  0.008571  -0.007928  -0.06805  0.005134  3.966042  0.007
C  C43  1  0.15157666  0.71364798  0.12334055  1  -0.069798  0.008572  -0.007948  -0.068111  0.005134  3.96614  0.007
C  C44  1  0.36767683  0.15137106  0.52037996  1  0.020924  -0.007696  -0.056608  -0.041445  -0.008539  3.928394  -0.005
C  C45  1  0.86767674  0.34862974  0.97961916  1  0.020924  -0.007696  -0.056619  -0.041492  -0.008538  3.928534  -0.005
C  C46  1  0.63232475  0.84862754  0.47961780  1  0.020929  -0.007696  -0.056609  -0.041447  -0.008538  3.928405  -0.005
C  C47  1  0.13232364  0.65137221  0.02038225  1  0.020891  -0.007695  -0.056602  -0.041445  -0.008537  3.928595  -0.005
C  C48  1  0.29544805  0.04609408  0.50037787  1  -0.016108  0.004345  -0.071352  -0.148429  0.002354  3.922862  0.003
C  C49  1  0.79544814  0.45390665  0.99962130  1  -0.015949  0.004345  -0.071349  -0.148382  0.002354  3.922887  0.003
C  C50  1  0.70454992  0.95390705  0.49962018  1  -0.016125  0.004345  -0.071374  -0.148459  0.002354  3.922949  0.003
C  C51  1  0.20454983  0.54609529  0.00038092  1  -0.01587  0.004345  -0.071366  -0.148418  0.002353  3.922887  0.003
C  C52  1  0.20946827  0.00311053  0.58501169  1  0.472377  -0.003895  0.128723  0.177519  -0.005011  3.964863  -0.002
C  C53  1  0.70946619  0.49688843  0.91498654  1  0.472376  -0.003896  0.128764  0.177593  -0.005011  3.964827  -0.002
C  C54  1  0.79052970  0.99689059  0.41498636  1  0.472376  -0.003895  0.128751  0.177581  -0.00501  3.964905  -0.002
C  C55  1  0.29053178  0.50311268  0.08501396  1  0.472126  -0.003895  0.128747  0.177652  -0.005011  3.964896  -0.002
C  C56  1  0.25996680  0.16548041  0.70298180  1  0.528104  -0.005333  0.062964  0.091429  -0.006069  3.900413  -0.004
C  C57  1  0.75996578  0.33451775  0.79701793  1  0.528093  -0.005333  0.062972  0.091388  -0.006069  3.900522  -0.004
C  C58  1  0.74003719  0.83451650  0.29701740  1  0.528099  -0.005332  0.06305  0.091533  -0.006069  3.900477  -0.004
C  C59  1  0.24003581  0.66548336  0.20298257  1  0.528324  -0.005333  0.063029  0.09148  -0.006068  3.900451  -0.004
C  C60  1  0.12621350  0.89388397  0.57437935  1  0.471448  -0.003186  0.11885  0.15739  -0.004308  3.985324  -0.002
C  C61  1  0.62621660  0.60611609  0.92562031  1  0.471721  -0.003186  0.11883  0.157323  -0.004308  3.985284  -0.002
C  C62  1  0.87377966  0.10611883  0.42561970  1  0.471412  -0.003186  0.118832  0.157328  -0.004308  3.985424  -0.002
C  C63  1  0.37378498  0.39388588  0.07437866  1  0.471701  -0.003186  0.118811  0.157287  -0.004308  3.985365  -0.002
C  C64  1  0.12649035  0.81817653  0.47894835  1  -0.020055  0.005266  -0.076756  -0.145255  0.002999  3.930381  0.004
C  C65  1  0.62649547  0.68182155  0.02104988  1  -0.021  0.005266  -0.076802  -0.145278  0.002998  3.930366  0.004
C  C66  1  0.87350522  0.18182460  0.52104888  1  -0.019489  0.005266  -0.076747  -0.145258  0.002999  3.930381  0.004
C  C67  1  0.37350490  0.31817957  0.97894980  1  -0.020291  0.005267  -0.076782  -0.145341  0.002999  3.930351  0.004
C  C68  1  0.03702590  0.71966192  0.47653250  1  -0.032124  -0.007448  -0.056574  -0.030401  -0.008396  3.916288  -0.004
C  C69  1  0.53703604  0.78033943  0.02346701  1  -0.031156  -0.007449  -0.056532  -0.030311  -0.008397  3.916047  -0.004
C  C70  1  0.96297087  0.28034003  0.52346810  1  -0.032088  -0.00745  -0.056553  -0.030377  -0.008399  3.916186  -0.004
C  C71  1  0.46296795  0.21966253  0.97653277  1  -0.031799  -0.00745  -0.05656  -0.030319  -0.008399  3.916062  -0.004
C  C72  1  0.94839096  0.69883368  0.56903525  1  0.0424  0.014691  -0.002059  -0.058617  0.00851  3.925221  0.012
C  C73  1  0.44840272  0.80116922  0.93096283  1  0.042386  0.01469  -0.002073  -0.05873  0.00851  3.925222  0.012
C  C74  1  0.05160942  0.30116660  0.43096434  1  0.042461  0.01469  -0.002046  -0.058673  0.00851  3.925266  0.012
C  C75  1  0.55160367  0.19883610  0.06903815  1  0.042423  0.014689  -0.002046  -0.058706  0.008509  3.925249  0.012
C  C76  1  0.95749327  0.77692986  0.66265754  1  0.484972  -0.006397  0.0634  0.0946  -0.007344  3.876448  -0.005
C  C77  1  0.45749540  0.72307303  0.83734297  1  0.485111  -0.006397  0.063415  0.094665  -0.007344  3.876324  -0.005
C  C78  1  0.04250590  0.22307293  0.33734315  1  0.485111  -0.006398  0.063395  0.094579  -0.007345  3.876421  -0.005
C  C79  1  0.54250498  0.27692978  0.16265527  1  0.485125  -0.006397  0.063364  0.094596  -0.007344  3.876275  -0.005
C  C80  1  0.83285215  0.60099296  0.56489372  1  1.628233  0.00092  0.212329  0.584343  0.000736  4.228355  0.001
C  C81  1  0.33285689  0.89900477  0.93510713  1  1.628153  0.000921  0.212378  0.584365  0.000737  4.228116  0.001
C  C82  1  0.16715665  0.39900145  0.43510194  1  1.628472  0.000919  0.212324  0.584447  0.000736  4.228245  0.001
C  C83  1  0.66714589  0.10099633  0.06489581  1  1.628528  0.000921  0.21234  0.584333  0.000736  4.228211  0.001
N  N84  1  0.19498063  0.06318530  0.68516845  1  -1.200773  0.074253  -0.321447  -0.2492  0.042639  3.595208  0.066
N  N85  1  0.69497858  0.43681197  0.81483123  1  -1.200778  0.074253  -0.321456  -0.249211  0.042638  3.595182  0.066
N  N86  1  0.80502096  0.93681330  0.31483095  1  -1.200759  0.074256  -0.321457  -0.249264  0.04264  3.595139  0.066
N  N87  1  0.30502300  0.56318914  0.18517008  1  -1.20102  0.074255  -0.321456  -0.249264  0.042639  3.59524  0.066
N  N88  1  0.04322250  0.87167564  0.66499152  1  -1.206806  0.082352  -0.321084  -0.241675  0.047294  3.581626  0.072
N  N89  1  0.54322219  0.62832518  0.83500829  1  -1.206732  0.08235  -0.321086  -0.24167  0.047293  3.581482  0.072
N  N90  1  0.95677186  0.12832717  0.33500753  1  -1.206738  0.082357  -0.321112  -0.241684  0.047296  3.581571  0.072
N  N91  1  0.45678059  0.37167930  0.16499096  1  -1.206785  0.082356  -0.321062  -0.241607  0.047295  3.581366  0.072
O  O92  1  0.53883345  0.35703944  0.59425034  1  -1.158727  0.063102  -0.306533  -0.552334  0.035368  2.299815  0.056
O  O93  1  0.03883650  0.14296271  0.90575166  1  -1.158817  0.063099  -0.306546  -0.552345  0.035366  2.299756  0.056
O  O94  1  0.46115971  0.64296422  0.40574718  1  -1.158777  0.063101  -0.306587  -0.552379  0.035367  2.299762  0.056
O  O95  1  0.96115545  0.85703419  0.09424918  1  -1.15885  0.0631  -0.306561  -0.552297  0.035367  2.29961  0.056
O  O96  1  0.36966661  0.39080539  0.73452793  1  -1.129753  0.074721  -0.299619  -0.519813  0.041617  2.194345  0.067
O  O97  1  0.86966757  0.10919285  0.76547580  1  -1.129662  0.074723  -0.29962  -0.519815  0.041618  2.194267  0.067
O  O98  1  0.63034220  0.60918640  0.26548131  1  -1.129752  0.074728  -0.299632  -0.519821  0.041621  2.194179  0.067
O  O99  1  0.13032679  0.89080912  0.23452234  1  -1.129667  0.074731  -0.299662  -0.51984  0.04162  2.194358  0.067
O  O100  1  0.75861201  0.59275087  0.65526584  1  -1.151228  0.068812  -0.324865  -0.569968  0.038029  2.379092  0.063
O  O101  1  0.25861451  0.90724759  0.84473924  1  -1.151675  0.068799  -0.324891  -0.569945  0.038025  2.378917  0.063
O  O102  1  0.24139800  0.40724095  0.34473850  1  -1.151816  0.068795  -0.324842  -0.569926  0.038019  2.379277  0.063
O  O103  1  0.74138347  0.09275183  0.15526270  1  -1.151683  0.068794  -0.324829  -0.56987  0.038022  2.379156  0.063
O  O104  1  0.81695983  0.54240484  0.47373928  1  -1.178469  0.001508  -0.307285  -0.536767  -0.000119  2.214845  0.001
O  O105  1  0.31696175  0.95759170  0.02626515  1  -1.178048  0.001509  -0.307311  -0.536798  -0.000119  2.214763  0.001
O  O106  1  0.18304416  0.45759880  0.52626069  1  -1.178174  0.001509  -0.307342  -0.536945  -0.000119  2.214619  0.001
O  O107  1  0.68303742  0.04240351  0.97373713  1  -1.17847  0.00151  -0.307311  -0.536822  -0.000118  2.214571  0.001
O  O108  1  0.40597747  0.59240822  0.61035932  1  -1.22709  0.062855  -0.577808  -0.75284  0.035069  2.164824  0.055
O  O109  1  0.90597644  0.90759044  0.88963831  1  -1.227124  0.062854  -0.577726  -0.752759  0.035069  2.164929  0.055
O  O110  1  0.59402652  0.40758619  0.38963633  1  -1.227042  0.062853  -0.577713  -0.752679  0.035071  2.164908  0.055
O  O111  1  0.09402153  0.09240984  0.11036128  1  -1.227113  0.062853  -0.577783  -0.752819  0.035069  2.164921  0.055
