# generated using pymatgen
data_ZnH3C3(N2O)2
_symmetry_space_group_name_H-M   'P 1'
_cell_length_a   8.03347640
_cell_length_b   9.12665181
_cell_length_c   10.30627760
_cell_angle_alpha   104.02940880
_cell_angle_beta   89.99953974
_cell_angle_gamma   89.99966721
_symmetry_Int_Tables_number   1
_chemical_formula_structural   ZnH3C3(N2O)2
_chemical_formula_sum   'Zn4 H12 C12 N16 O8'
_cell_volume   733.10354410
_cell_formula_units_Z   4
loop_
 _symmetry_equiv_pos_site_id
 _symmetry_equiv_pos_as_xyz
  1  'x, y, z'
loop_
 _atom_site_type_symbol
 _atom_site_label
 _atom_site_symmetry_multiplicity
 _atom_site_fract_x
 _atom_site_fract_y
 _atom_site_fract_z
 _atom_site_occupancy
 _atom_site_hle17_bader_spin_density
 _atom_site_hle17_ddec_charge
 _atom_site_hle17_ddec_spin_density
 _atom_site_hle17_ddec_sum_bond_order
 _atom_site_hle17_magmom
 _atom_site_hse06_10hf_bader_spin_density
 _atom_site_hse06_10hf_ddec_charge
 _atom_site_hse06_10hf_ddec_spin_density
 _atom_site_hse06_10hf_ddec_sum_bond_order
 _atom_site_hse06_10hf_magmom
 _atom_site_hse06_bader_spin_density
 _atom_site_hse06_ddec_charge
 _atom_site_hse06_ddec_spin_density
 _atom_site_hse06_ddec_sum_bond_order
 _atom_site_hse06_magmom
 _atom_site_pbe_bader_spin_density
 _atom_site_pbe_cm5_charge
 _atom_site_pbe_ddec_charge
 _atom_site_pbe_ddec_spin_density
 _atom_site_pbe_ddec_sum_bond_order
 _atom_site_pbe_magmom
Zn  Zn0  1  0.94021475  0.68686553  0.44481153  1  0  0.933549  0  1.956432  0  0  0.739329  0  2.429469  0  0  0.781242  0  2.383623  0  0  0.704436  0.710311  0  2.460494  0
Zn  Zn1  1  0.44022650  0.31314048  0.05519019  1  0  0.933486  0  1.956655  0  0  0.739208  0  2.429725  0  0  0.781125  0  2.383882  0  0  0.704396  0.710196  0  2.460749  0
Zn  Zn2  1  0.05977596  0.31313120  0.55519421  1  0  0.933491  0  1.956655  0  0  0.739224  0  2.429716  0  0  0.781139  0  2.383865  0  0  0.704415  0.710212  0  2.460743  0
Zn  Zn3  1  0.55977915  0.68686959  0.94481135  1  0  0.933496  0  1.956478  0  0  0.739265  0  2.429496  0  0  0.781177  0  2.383651  0  0  0.704424  0.71025  0  2.460518  0
H  H4  1  0.76205972  0.82312826  0.21229461  1  0  0.10295  0  0.930505  0  0  0.113994  0  0.988836  0  0  0.116404  0  0.985  0  0  0.138573  0.112092  0  0.99171  0
H  H5  1  0.26208870  0.17687599  0.28772054  1  0  0.102982  0  0.930339  0  0  0.114047  0  0.988662  0  0  0.116457  0  0.984826  0  0  0.138581  0.112138  0  0.99154  0
H  H6  1  0.23792974  0.17687863  0.78771310  1  0  0.102946  0  0.930514  0  0  0.113978  0  0.988862  0  0  0.116387  0  0.985026  0  0  0.138564  0.112073  0  0.991735  0
H  H7  1  0.73793437  0.82312538  0.71229096  1  0  0.102951  0  0.930503  0  0  0.113984  0  0.988843  0  0  0.116396  0  0.985005  0  0  0.13858  0.112077  0  0.991718  0
H  H8  1  0.70189198  0.26686576  0.24527066  1  0  0.344815  0  0.907159  0  0  0.330314  0  0.965484  0  0  0.337703  0  0.958954  0  0  0.303534  0.325042  0  0.970159  0
H  H9  1  0.20186273  0.73312596  0.25472403  1  0  0.344635  0  0.90729  0  0  0.330221  0  0.965511  0  0  0.337583  0  0.959008  0  0  0.303527  0.324987  0  0.970123  0
H  H10  1  0.29812237  0.73313201  0.75473238  1  0  0.344693  0  0.907111  0  0  0.330241  0  0.965397  0  0  0.337611  0  0.958899  0  0  0.303469  0.324992  0  0.970037  0
H  H11  1  0.79811055  0.26686960  0.74528053  1  0  0.34483  0  0.907125  0  0  0.330301  0  0.96549  0  0  0.33771  0  0.958927  0  0  0.303543  0.325032  0  0.970153  0
H  H12  1  0.78920923  0.38304882  0.38698510  1  0  0.323062  0  0.911185  0  0  0.305571  0  0.982094  0  0  0.31188  0  0.97668  0  0  0.303322  0.301161  0  0.985889  0
H  H13  1  0.28918346  0.61693898  0.11301117  1  0  0.322965  0  0.910934  0  0  0.305455  0  0.981938  0  0  0.311762  0  0.976529  0  0  0.303296  0.301042  0  0.985748  0
H  H14  1  0.21079766  0.61694884  0.61301403  1  0  0.322983  0  0.911009  0  0  0.305496  0  0.981942  0  0  0.311805  0  0.97653  0  0  0.303296  0.301085  0  0.985739  0
H  H15  1  0.71080600  0.38305568  0.88700098  1  0  0.323131  0  0.911063  0  0  0.305641  0  0.981972  0  0  0.31195  0  0.976558  0  0  0.303367  0.301229  0  0.985776  0
C  C16  1  0.91104990  0.01901544  0.52861251  1  0  0.521551  0  3.950164  0  0  0.48118  0  4.234231  0  0  0.509459  0  4.229771  0  0  0.199459  0.461943  0  4.236648  0
C  C17  1  0.41104290  0.98097961  0.97135569  1  0  0.521516  0  3.949902  0  0  0.481151  0  4.233986  0  0  0.509428  0  4.229526  0  0  0.199472  0.461918  0  4.236403  0
C  C18  1  0.08895076  0.98097343  0.47135484  1  0  0.521463  0  3.950246  0  0  0.481081  0  4.234328  0  0  0.509357  0  4.229873  0  0  0.199403  0.461846  0  4.236741  0
C  C19  1  0.58894407  0.01901479  0.02860884  1  0  0.521638  0  3.94994  0  0  0.481215  0  4.234083  0  0  0.509492  0  4.229628  0  0  0.199543  0.461979  0  4.236498  0
C  C20  1  0.72604086  0.70757665  0.20792084  1  0  0.246004  0  3.723318  0  0  0.182617  0  3.995399  0  0  0.199975  0  4.005923  0  0  0.147405  0.171319  0  3.988015  0
C  C21  1  0.22606030  0.29243122  0.29209428  1  0  0.24609  0  3.723138  0  0  0.182653  0  3.995183  0  0  0.200009  0  4.005713  0  0  0.147461  0.171361  0  3.98779  0
C  C22  1  0.27395234  0.29242676  0.79208329  1  0  0.246121  0  3.723049  0  0  0.182738  0  3.995109  0  0  0.200097  0  4.005637  0  0  0.147461  0.171447  0  3.987726  0
C  C23  1  0.77395655  0.70757363  0.70792081  1  0  0.246133  0  3.72306  0  0  0.18276  0  3.995127  0  0  0.200114  0  4.005654  0  0  0.147468  0.171468  0  3.987738  0
C  C24  1  0.70244390  0.48847303  0.24774349  1  0  0.605652  0  3.799835  0  0  0.55887  0  4.073792  0  0  0.583111  0  4.082928  0  0  0.327113  0.542521  0  4.067341  0
C  C25  1  0.20244108  0.51153003  0.25225532  1  0  0.605604  0  3.799949  0  0  0.558787  0  4.073985  0  0  0.583091  0  4.083022  0  0  0.327077  0.542434  0  4.067541  0
C  C26  1  0.29755552  0.51153035  0.75225966  1  0  0.605367  0  3.799782  0  0  0.558591  0  4.073767  0  0  0.582894  0  4.082808  0  0  0.327054  0.542242  0  4.067322  0
C  C27  1  0.79755833  0.48847448  0.74774805  1  0  0.605566  0  3.799746  0  0  0.558851  0  4.073647  0  0  0.583153  0  4.08269  0  0  0.327064  0.542498  0  4.067204  0
N  N28  1  0.77337262  0.62699046  0.29573515  1  0  -0.516267  0  3.193287  0  0  -0.430117  0  3.483912  0  0  -0.455127  0  3.490254  0  0  -0.367948  -0.413247  0  3.479198  0
N  N29  1  0.27337498  0.37301013  0.20427243  1  0  -0.516344  0  3.193364  0  0  -0.430151  0  3.483969  0  0  -0.455183  0  3.490293  0  0  -0.367954  -0.41328  0  3.479253  0
N  N30  1  0.22662679  0.37300832  0.70426420  1  0  -0.516226  0  3.193127  0  0  -0.43007  0  3.483739  0  0  -0.4551  0  3.490062  0  0  -0.367967  -0.413213  0  3.479039  0
N  N31  1  0.72662942  0.62699125  0.79573907  1  0  -0.516305  0  3.193197  0  0  -0.430183  0  3.483817  0  0  -0.455212  0  3.490135  0  0  -0.367973  -0.413313  0  3.479108  0
N  N32  1  0.63164165  0.62687448  0.11118781  1  0  -0.303459  0  3.298696  0  0  -0.234884  0  3.608121  0  0  -0.251887  0  3.621183  0  0  -0.277998  -0.223235  0  3.598794  0
N  N33  1  0.13165955  0.37312840  0.38882696  1  0  -0.303388  0  3.298369  0  0  -0.234718  0  3.607723  0  0  -0.251724  0  3.620795  0  0  -0.277972  -0.223069  0  3.59839  0
N  N34  1  0.36835404  0.37313121  0.88881773  1  0  -0.303525  0  3.298473  0  0  -0.234923  0  3.607884  0  0  -0.251931  0  3.620948  0  0  -0.278018  -0.223273  0  3.598555  0
N  N35  1  0.86835605  0.62686967  0.61118682  1  0  -0.303538  0  3.298559  0  0  -0.234949  0  3.607992  0  0  -0.251953  0  3.621058  0  0  -0.278025  -0.223298  0  3.598662  0
N  N36  1  0.61544479  0.48424686  0.13520136  1  0  -0.417675  0  3.088934  0  0  -0.353158  0  3.376065  0  0  -0.372696  0  3.387769  0  0  -0.2763  -0.340309  0  3.368084  0
N  N37  1  0.11543956  0.51574558  0.36479791  1  0  -0.417831  0  3.088829  0  0  -0.353381  0  3.376027  0  0  -0.372938  0  3.387709  0  0  -0.276376  -0.340526  0  3.368041  0
N  N38  1  0.38456210  0.51575545  0.86480353  1  0  -0.4176  0  3.088658  0  0  -0.353097  0  3.375779  0  0  -0.372647  0  3.387453  0  0  -0.276324  -0.340241  0  3.367787  0
N  N39  1  0.88455613  0.48424420  0.63520067  1  0  -0.417671  0  3.088784  0  0  -0.353206  0  3.375929  0  0  -0.372755  0  3.387598  0  0  -0.276321  -0.340355  0  3.367946  0
N  N40  1  0.71085753  0.37199776  0.30816243  1  0  -0.700087  0  3.041168  0  0  -0.671323  0  3.268568  0  0  -0.689964  0  3.262907  0  0  -0.589335  -0.658354  0  3.272287  0
N  N41  1  0.21083960  0.62798721  0.19183380  1  0  -0.699745  0  3.041079  0  0  -0.671027  0  3.268459  0  0  -0.689658  0  3.262812  0  0  -0.589267  -0.658088  0  3.272121  0
N  N42  1  0.28915309  0.62799083  0.69183398  1  0  -0.699785  0  3.040967  0  0  -0.671073  0  3.268341  0  0  -0.68972  0  3.262691  0  0  -0.58922  -0.658124  0  3.272018  0
N  N43  1  0.78915360  0.37199927  0.80816706  1  0  -0.700107  0  3.041013  0  0  -0.671338  0  3.268425  0  0  -0.690019  0  3.2627  0  0  -0.589354  -0.658369  0  3.272147  0
O  O44  1  0.87723694  0.15938860  0.57172262  1  0  -0.588515  0  2.105222  0  0  -0.520334  0  2.353445  0  0  -0.545462  0  2.340404  0  0  -0.312217  -0.502816  0  2.361829  0
O  O45  1  0.37720893  0.84061538  0.92827470  1  0  -0.588413  0  2.105156  0  0  -0.520248  0  2.353356  0  0  -0.545365  0  2.34031  0  0  -0.31218  -0.502731  0  2.361744  0
O  O46  1  0.12277492  0.84060755  0.42826361  1  0  -0.588363  0  2.105088  0  0  -0.520232  0  2.353316  0  0  -0.545346  0  2.340267  0  0  -0.312159  -0.502722  0  2.361705  0
O  O47  1  0.62276435  0.15939085  0.07171056  1  0  -0.588577  0  2.105159  0  0  -0.520373  0  2.353407  0  0  -0.545497  0  2.340366  0  0  -0.312272  -0.50285  0  2.361789  0
O  O48  1  0.81438883  0.91114864  0.52867186  1  0  -0.551543  0  2.027454  0  0  -0.50199  0  2.262363  0  0  -0.524576  0  2.252047  0  0  -0.300028  -0.486366  0  2.269079  0
O  O49  1  0.31437298  0.08886138  0.97132509  1  0  -0.551633  0  2.027221  0  0  -0.502068  0  2.262108  0  0  -0.524653  0  2.251796  0  0  -0.300069  -0.486442  0  2.268821  0
O  O50  1  0.18562677  0.08885034  0.47133432  1  0  -0.551555  0  2.027483  0  0  -0.501974  0  2.262357  0  0  -0.524562  0  2.252051  0  0  -0.299987  -0.486347  0  2.269068  0
O  O51  1  0.68560404  0.91115417  0.02867167  1  0  -0.551517  0  2.027429  0  0  -0.501951  0  2.262354  0  0  -0.524535  0  2.25204  0  0  -0.300039  -0.486327  0  2.269069  0
