# generated using pymatgen
data_H14RhC17NO4
_symmetry_space_group_name_H-M   'P 1'
_cell_length_a   10.25667576
_cell_length_b   10.45780289
_cell_length_c   15.53060846
_cell_angle_alpha   78.73153124
_cell_angle_beta   81.40379162
_cell_angle_gamma   86.12234273
_symmetry_Int_Tables_number   1
_chemical_formula_structural   H14RhC17NO4
_chemical_formula_sum   'H56 Rh4 C68 N4 O16'
_cell_volume   1614.11378403
_cell_formula_units_Z   4
loop_
 _symmetry_equiv_pos_site_id
 _symmetry_equiv_pos_as_xyz
  1  'x, y, z'
loop_
 _atom_site_type_symbol
 _atom_site_label
 _atom_site_symmetry_multiplicity
 _atom_site_fract_x
 _atom_site_fract_y
 _atom_site_fract_z
 _atom_site_occupancy
 _atom_site_hle17_bader_spin_density
 _atom_site_hle17_ddec_charge
 _atom_site_hle17_ddec_spin_density
 _atom_site_hle17_ddec_sum_bond_order
 _atom_site_hle17_magmom
 _atom_site_hse06_10hf_bader_spin_density
 _atom_site_hse06_10hf_ddec_charge
 _atom_site_hse06_10hf_ddec_spin_density
 _atom_site_hse06_10hf_ddec_sum_bond_order
 _atom_site_hse06_10hf_magmom
 _atom_site_hse06_bader_spin_density
 _atom_site_hse06_ddec_charge
 _atom_site_hse06_ddec_spin_density
 _atom_site_hse06_ddec_sum_bond_order
 _atom_site_hse06_magmom
 _atom_site_pbe_bader_spin_density
 _atom_site_pbe_cm5_charge
 _atom_site_pbe_ddec_charge
 _atom_site_pbe_ddec_spin_density
 _atom_site_pbe_ddec_sum_bond_order
 _atom_site_pbe_magmom
H  H0  1  0.11737924  0.04463623  0.03320356  1  0  0.098876  0  0.963618  0  0  0.107234  0  1.028993  0  0  0.110142  0  1.027874  0  0  0.103676  0.105253  0  1.029495  0
H  H1  1  0.88261936  0.95536103  0.96679736  1  0  0.098921  0  0.963623  0  0  0.107287  0  1.02897  0  0  0.110188  0  1.027871  0  0  0.103701  0.105297  0  1.029481  0
H  H2  1  0.22136858  0.84762863  0.97471083  1  0  0.094249  0  0.964272  0  0  0.102265  0  1.029789  0  0  0.105364  0  1.028518  0  0  0.09947  0.099912  0  1.031039  0
H  H3  1  0.77863095  0.15237057  0.02529233  1  0  0.094299  0  0.964206  0  0  0.102301  0  1.029741  0  0  0.105397  0  1.028476  0  0  0.099468  0.099958  0  1.030981  0
H  H4  1  0.31152115  0.86896005  0.81655230  1  0  0.080315  0  0.973143  0  0  0.091514  0  1.034703  0  0  0.093002  0  1.035015  0  0  0.098252  0.090545  0  1.034554  0
H  H5  1  0.68847758  0.13103428  0.18345157  1  0  0.080381  0  0.973137  0  0  0.091536  0  1.034755  0  0  0.09303  0  1.035056  0  0  0.098225  0.090568  0  1.034605  0
H  H6  1  0.28543515  0.07924385  0.71204679  1  0  0.101931  0  0.983992  0  0  0.105846  0  1.05401  0  0  0.109468  0  1.052626  0  0  0.098016  0.10311  0  1.055127  0
H  H7  1  0.71455971  0.92074854  0.28795513  1  0  0.101956  0  0.984023  0  0  0.105829  0  1.054079  0  0  0.109449  0  1.052703  0  0  0.098014  0.103091  0  1.055202  0
H  H8  1  0.17805713  0.27288391  0.76961222  1  0  0.09337  0  0.9586  0  0  0.101872  0  1.022702  0  0  0.104956  0  1.02084  0  0  0.101348  0.099588  0  1.024112  0
H  H9  1  0.82193674  0.72710850  0.23038723  1  0  0.09333  0  0.958599  0  0  0.101829  0  1.022711  0  0  0.104912  0  1.020852  0  0  0.101319  0.099544  0  1.024122  0
H  H10  1  0.26651182  0.48863456  0.22310924  1  0  0.096022  0  0.964712  0  0  0.105317  0  1.027506  0  0  0.108527  0  1.025267  0  0  0.103117  0.103264  0  1.028718  0
H  H11  1  0.73349180  0.51136075  0.77689080  1  0  0.096066  0  0.964678  0  0  0.105303  0  1.027539  0  0  0.108513  0  1.0253  0  0  0.103116  0.10325  0  1.028752  0
H  H12  1  0.45557343  0.55910385  0.28465415  1  0  0.086022  0  0.949268  0  0  0.099522  0  1.003516  0  0  0.101916  0  1.00356  0  0  0.100373  0.097831  0  1.00353  0
H  H13  1  0.54442704  0.44089634  0.71534556  1  0  0.086041  0  0.94926  0  0  0.099561  0  1.003486  0  0  0.101956  0  1.003529  0  0  0.100385  0.097854  0  1.003517  0
H  H14  1  0.63417151  0.68266886  0.18252897  1  0  0.083439  0  0.990247  0  0  0.093879  0  1.052757  0  0  0.096125  0  1.052115  0  0  0.098071  0.092314  0  1.053124  0
H  H15  1  0.36583093  0.31733132  0.81747184  1  0  0.083404  0  0.9902  0  0  0.093858  0  1.052692  0  0  0.096104  0  1.052052  0  0  0.098046  0.092275  0  1.05308  0
H  H16  1  0.62595004  0.73473485  0.02067482  1  0  0.09176  0  0.941513  0  0  0.104249  0  0.99559  0  0  0.106975  0  0.995186  0  0  0.101023  0.102212  0  0.996253  0
H  H17  1  0.37405137  0.26526631  0.97932661  1  0  0.091785  0  0.941529  0  0  0.104289  0  0.995583  0  0  0.107016  0  0.995177  0  0  0.10103  0.102251  0  0.996247  0
H  H18  1  0.43441744  0.66652134  0.96002618  1  0  0.098969  0  0.941463  0  0  0.111443  0  0.997523  0  0  0.114507  0  0.995906  0  0  0.105978  0.109474  0  0.998231  0
H  H19  1  0.56558386  0.33348275  0.03997424  1  0  0.098985  0  0.941424  0  0  0.111434  0  0.997517  0  0  0.114496  0  0.995903  0  0  0.105985  0.109467  0  0.998224  0
H  H20  1  0.46056042  0.00515282  0.19720674  1  0  0.098769  0  0.958516  0  0  0.10773  0  1.021146  0  0  0.110857  0  1.019391  0  0  0.103337  0.105983  0  1.021425  0
H  H21  1  0.53943807  0.99484739  0.80279124  1  0  0.098751  0  0.958518  0  0  0.107714  0  1.021146  0  0  0.110842  0  1.019389  0  0  0.10333  0.105966  0  1.021426  0
H  H22  1  0.35306105  0.94701502  0.07699723  1  0  0.085667  0  0.958215  0  0  0.097808  0  1.015042  0  0  0.100344  0  1.01502  0  0  0.100451  0.095849  0  1.015419  0
H  H23  1  0.64693858  0.05298128  0.92300178  1  0  0.085648  0  0.958272  0  0  0.097799  0  1.015085  0  0  0.100341  0  1.015056  0  0  0.100446  0.095841  0  1.015463  0
H  H24  1  0.14587260  0.82359077  0.11556445  1  0  0.085394  0  0.959054  0  0  0.095953  0  1.021483  0  0  0.098306  0  1.020467  0  0  0.100472  0.094224  0  1.02222  0
H  H25  1  0.85412597  0.17640748  0.88443571  1  0  0.085408  0  0.959045  0  0  0.095971  0  1.021461  0  0  0.098324  0  1.020444  0  0  0.100483  0.09424  0  1.0222  0
H  H26  1  0.04819753  0.75815055  0.27172438  1  0  0.084109  0  0.976874  0  0  0.094002  0  1.041309  0  0  0.096054  0  1.041373  0  0  0.098074  0.092706  0  1.040831  0
H  H27  1  0.95180191  0.24185061  0.72827660  1  0  0.084129  0  0.976823  0  0  0.094009  0  1.041274  0  0  0.09606  0  1.041338  0  0  0.098078  0.092714  0  1.040797  0
H  H28  1  0.15689376  0.81525260  0.39264977  1  0  0.095751  0  0.956141  0  0  0.106062  0  1.017446  0  0  0.10908  0  1.015712  0  0  0.102809  0.104036  0  1.018483  0
H  H29  1  0.84310454  0.18475248  0.60734953  1  0  0.095693  0  0.956184  0  0  0.106013  0  1.017488  0  0  0.109022  0  1.015765  0  0  0.102791  0.103986  0  1.018528  0
H  H30  1  0.43151030  0.45778070  0.45150999  1  0  0.093864  0  0.963891  0  0  0.102214  0  1.029331  0  0  0.105476  0  1.027265  0  0  0.101375  0.100022  0  1.030675  0
H  H31  1  0.56849404  0.54222143  0.54849167  1  0  0.09389  0  0.963901  0  0  0.102228  0  1.029359  0  0  0.105488  0  1.027292  0  0  0.101364  0.100036  0  1.030702  0
H  H32  1  0.31371965  0.66548816  0.48180293  1  0  0.106302  0  0.962431  0  0  0.112351  0  1.026809  0  0  0.116133  0  1.025215  0  0  0.101828  0.109445  0  1.028246  0
H  H33  1  0.68628078  0.33451299  0.51819925  1  0  0.106341  0  0.9624  0  0  0.11239  0  1.026775  0  0  0.116171  0  1.02518  0  0  0.101856  0.109484  0  1.02821  0
H  H34  1  0.09197810  0.65776636  0.57173963  1  0  0.080741  0  0.957609  0  0  0.091218  0  1.020306  0  0  0.093007  0  1.020497  0  0  0.097978  0.08986  0  1.020384  0
H  H35  1  0.90802335  0.34223383  0.42826128  1  0  0.080744  0  0.95761  0  0  0.091213  0  1.020314  0  0  0.093005  0  1.020498  0  0  0.097983  0.089855  0  1.020391  0
H  H36  1  0.98836173  0.44513339  0.63322741  1  0  0.08981  0  0.948633  0  0  0.101786  0  1.005542  0  0  0.104755  0  1.004648  0  0  0.102169  0.099843  0  1.00593  0
H  H37  1  0.01163672  0.55486779  0.36677109  1  0  0.089813  0  0.948616  0  0  0.101805  0  1.005507  0  0  0.104773  0  1.004612  0  0  0.10218  0.099861  0  1.005894  0
H  H38  1  0.10926138  0.23770403  0.60550745  1  0  0.095706  0  0.955906  0  0  0.104778  0  1.020446  0  0  0.107871  0  1.018554  0  0  0.10277  0.102536  0  1.021772  0
H  H39  1  0.89073905  0.76229715  0.39449085  1  0  0.09573  0  0.955913  0  0  0.104806  0  1.020446  0  0  0.107899  0  1.018554  0  0  0.102783  0.102564  0  1.021773  0
H  H40  1  0.71009883  0.44451709  0.18197740  1  0  0.096888  0  0.967144  0  0  0.100173  0  1.0375  0  0  0.104234  0  1.03407  0  0  0.118529  0.096685  0  1.041152  0
H  H41  1  0.28990265  0.55548215  0.81801783  1  0  0.096907  0  0.967206  0  0  0.100225  0  1.037524  0  0  0.104285  0  1.034091  0  0  0.118528  0.096733  0  1.041186  0
H  H42  1  0.56666510  0.31820950  0.31307214  1  0  0.101665  0  0.9437  0  0  0.105666  0  1.011613  0  0  0.110305  0  1.007625  0  0  0.122049  0.102643  0  1.013934  0
H  H43  1  0.43333810  0.68179655  0.68692527  1  0  0.101663  0  0.943688  0  0  0.105654  0  1.011605  0  0  0.110292  0  1.007619  0  0  0.122055  0.102632  0  1.013927  0
H  H44  1  0.88382446  0.06275945  0.36786107  1  0  0.104129  0  0.914635  0  0  0.113197  0  0.974308  0  0  0.11768  0  0.970102  0  0  0.124265  0.109683  0  0.978007  0
H  H45  1  0.11617104  0.93724172  0.63214031  1  0  0.104182  0  0.914678  0  0  0.113262  0  0.974331  0  0  0.117745  0  0.970125  0  0  0.124295  0.10975  0  0.978029  0
H  H46  1  0.11175944  0.22892668  0.17096912  1  0  0.108224  0  0.942477  0  0  0.120431  0  1.00356  0  0  0.124253  0  1.000582  0  0  0.10103  0.117124  0  1.006249  0
H  H47  1  0.88823701  0.77107547  0.82903203  1  0  0.108207  0  0.94244  0  0  0.120421  0  1.003523  0  0  0.124245  0  1.000541  0  0  0.101017  0.117114  0  1.006211  0
H  H48  1  0.08547544  0.07842369  0.24557159  1  0  0.079296  0  0.962193  0  0  0.095166  0  1.024491  0  0  0.095264  0  1.027664  0  0  0.091498  0.094925  0  1.02228  0
H  H49  1  0.91452700  0.92157651  0.75442729  1  0  0.079293  0  0.962181  0  0  0.095173  0  1.024468  0  0  0.09527  0  1.027643  0  0  0.091498  0.094932  0  1.022259  0
H  H50  1  0.13122005  0.33643188  0.30254256  1  0  0.093621  0  0.957034  0  0  0.115898  0  1.017656  0  0  0.117388  0  1.017445  0  0  0.08582  0.114729  0  1.017869  0
H  H51  1  0.86878148  0.66356636  0.69745795  1  0  0.093696  0  0.957029  0  0  0.115978  0  1.017632  0  0  0.117466  0  1.017423  0  0  0.085865  0.114809  0  1.017844  0
H  H52  1  0.25496577  0.21151802  0.28893557  1  0  0.106718  0  0.942873  0  0  0.12883  0  1.000257  0  0  0.130914  0  1.000032  0  0  0.08942  0.127421  0  0.99984  0
H  H53  1  0.74503584  0.78847827  0.71106583  1  0  0.106661  0  0.942921  0  0  0.1288  0  1.000286  0  0  0.130883  0  1.00006  0  0  0.089395  0.127376  0  0.999885  0
H  H54  1  0.11748536  0.18060267  0.37335875  1  0  0.088446  0  0.948767  0  0  0.109199  0  1.010709  0  0  0.110315  0  1.011078  0  0  0.082194  0.108243  0  1.010733  0
H  H55  1  0.88251617  0.81939557  0.62664240  1  0  0.088424  0  0.948754  0  0  0.109158  0  1.010726  0  0  0.110274  0  1.011095  0  0  0.082188  0.108203  0  1.010746  0
Rh  Rh56  1  0.96374366  0.43496742  0.07233711  1  0  0.633973  0  3.12927  0  0  0.564365  0  3.720584  0  0  0.603665  0  3.671204  0  0  0.642745  0.543707  0  3.751335  0
Rh  Rh57  1  0.03625775  0.56503375  0.92766110  1  0  0.633995  0  3.129377  0  0  0.564435  0  3.720644  0  0  0.60371  0  3.671302  0  0  0.642763  0.543783  0  3.751413  0
Rh  Rh58  1  0.57943440  0.06378085  0.44564332  1  0  0.625829  0  3.14244  0  0  0.555164  0  3.735736  0  0  0.594305  0  3.686287  0  0  0.641319  0.534405  0  3.76647  0
Rh  Rh59  1  0.42056501  0.93622130  0.55435497  1  0  0.625806  0  3.142481  0  0  0.555179  0  3.735752  0  0  0.594325  0  3.686298  0  0  0.641338  0.534422  0  3.766491  0
C  C60  1  0.09191782  0.28875324  0.94028765  1  0  0.601843  0  3.838804  0  0  0.553962  0  4.136112  0  0  0.593272  0  4.127676  0  0  0.211607  0.527185  0  4.141486  0
C  C61  1  0.90808178  0.71124402  0.05971382  1  0  0.60176  0  3.838927  0  0  0.553846  0  4.136255  0  0  0.593155  0  4.127823  0  0  0.211557  0.527068  0  4.141626  0
C  C62  1  0.14438229  0.17037091  0.90523540  1  0  -0.07616  0  3.784935  0  0  -0.050786  0  4.013234  0  0  -0.060715  0  4.036541  0  0  -0.022828  -0.044579  0  3.997515  0
C  C63  1  0.85561731  0.82962634  0.09476671  1  0  -0.076061  0  3.784877  0  0  -0.050604  0  4.013047  0  0  -0.060533  0  4.03636  0  0  -0.022753  -0.044394  0  3.997321  0
C  C64  1  0.15458667  0.05038401  0.96318846  1  0  -0.074498  0  3.733899  0  0  -0.098608  0  3.979941  0  0  -0.097277  0  3.999705  0  0  -0.084047  -0.099437  0  3.966529  0
C  C65  1  0.84541187  0.94961521  0.03681222  1  0  -0.074618  0  3.733872  0  0  -0.098746  0  3.979893  0  0  -0.097419  0  3.999654  0  0  -0.084103  -0.099569  0  3.966488  0
C  C66  1  0.21324589  0.94189287  0.93077281  1  0  -0.072702  0  3.750684  0  0  -0.084731  0  4.001906  0  0  -0.087862  0  4.022326  0  0  -0.090914  -0.082897  0  3.988577  0
C  C67  1  0.78675466  0.05810536  0.06922908  1  0  -0.07282  0  3.750654  0  0  -0.084826  0  4.00188  0  0  -0.087957  0  4.022298  0  0  -0.090979  -0.083001  0  3.988544  0
C  C68  1  0.26235993  0.95316139  0.84095703  1  0  -0.04867  0  3.747478  0  0  -0.06521  0  3.995026  0  0  -0.065421  0  4.017506  0  0  -0.087842  -0.06481  0  3.979269  0
C  C69  1  0.73763663  0.04683782  0.15904513  1  0  -0.048685  0  3.747388  0  0  -0.065218  0  3.99498  0  0  -0.065425  0  4.017445  0  0  -0.087792  -0.06482  0  3.979228  0
C  C70  1  0.24868237  0.07144775  0.78231873  1  0  -0.083981  0  3.75665  0  0  -0.096242  0  4.009395  0  0  -0.101297  0  4.032253  0  0  -0.095012  -0.09238  0  3.992482  0
C  C71  1  0.75131153  0.92854366  0.21768342  1  0  -0.084024  0  3.756697  0  0  -0.096245  0  4.009456  0  0  -0.101298  0  4.032315  0  0  -0.094987  -0.092384  0  3.992544  0
C  C72  1  0.18900651  0.17964739  0.81429100  1  0  -0.077133  0  3.750323  0  0  -0.097367  0  3.993621  0  0  -0.096168  0  4.013737  0  0  -0.085635  -0.097564  0  3.978862  0
C  C73  1  0.81098910  0.82035085  0.18570945  1  0  -0.077103  0  3.750547  0  0  -0.097348  0  3.993815  0  0  -0.096151  0  4.013935  0  0  -0.085633  -0.097546  0  3.979058  0
C  C74  1  0.22208919  0.53844472  0.05394389  1  0  0.605967  0  3.836902  0  0  0.557218  0  4.134411  0  0  0.5968  0  4.125968  0  0  0.213659  0.53048  0  4.139339  0
C  C75  1  0.77791230  0.46155451  0.94605456  1  0  0.606078  0  3.837059  0  0  0.557328  0  4.134564  0  0  0.59691  0  4.126123  0  0  0.21373  0.530582  0  4.139507  0
C  C76  1  0.33963315  0.57355905  0.08827104  1  0  -0.077184  0  3.791888  0  0  -0.05265  0  4.023975  0  0  -0.063054  0  4.047859  0  0  -0.020938  -0.04572  0  4.007595  0
C  C77  1  0.66036736  0.42644017  0.91172880  1  0  -0.077176  0  3.791848  0  0  -0.052652  0  4.023936  0  0  -0.063055  0  4.047819  0  0  -0.020916  -0.045719  0  4.00756  0
C  C78  1  0.34621332  0.54188272  0.17960400  1  0  -0.066076  0  3.744842  0  0  -0.090088  0  3.987101  0  0  -0.088667  0  4.008334  0  0  -0.083406  -0.091219  0  3.972431  0
C  C79  1  0.65378916  0.45811650  0.82039435  1  0  -0.066144  0  3.744765  0  0  -0.090105  0  3.987043  0  0  -0.088684  0  4.008277  0  0  -0.083445  -0.091235  0  3.972368  0
C  C80  1  0.45184121  0.58133497  0.21341541  1  0  -0.083342  0  3.787159  0  0  -0.092517  0  4.034664  0  0  -0.098224  0  4.059019  0  0  -0.091964  -0.08819  0  4.017616  0
C  C81  1  0.54816028  0.41866425  0.78658433  1  0  -0.083382  0  3.7872  0  0  -0.092581  0  4.034679  0  0  -0.098289  0  4.059037  0  0  -0.091984  -0.088238  0  4.017626  0
C  C82  1  0.55189978  0.65104836  0.15619471  1  0  -0.047454  0  3.748425  0  0  -0.064999  0  3.999186  0  0  -0.06411  0  4.019966  0  0  -0.085543  -0.065635  0  3.985025  0
C  C83  1  0.44810364  0.34895183  0.84380536  1  0  -0.047357  0  3.748398  0  0  -0.064889  0  3.999132  0  0  -0.064001  0  4.019915  0  0  -0.085473  -0.06551  0  3.984977  0
C  C84  1  0.54682492  0.68109125  0.06498915  1  0  -0.070752  0  3.751479  0  0  -0.083459  0  4.005994  0  0  -0.087458  0  4.027294  0  0  -0.089996  -0.081015  0  3.991914  0
C  C85  1  0.45317548  0.31891089  0.93501226  1  0  -0.07083  0  3.75153  0  0  -0.083562  0  4.006046  0  0  -0.087561  0  4.027344  0  0  -0.090017  -0.081117  0  3.991963  0
C  C86  1  0.44054583  0.64321360  0.03085862  1  0  -0.066  0  3.737795  0  0  -0.092467  0  3.988586  0  0  -0.090795  0  4.008799  0  0  -0.082032  -0.092953  0  3.974  0
C  C87  1  0.55945460  0.35678757  0.96914098  1  0  -0.065998  0  3.73779  0  0  -0.092449  0  3.988604  0  0  -0.09078  0  4.008823  0  0  -0.082038  -0.092936  0  3.974021  0
C  C88  1  0.37933897  0.94872313  0.37341263  1  0  0.606693  0  3.832998  0  0  0.558781  0  4.128641  0  0  0.598268  0  4.120651  0  0  0.213505  0.531978  0  4.133652  0
C  C89  1  0.62066047  0.05127804  0.62658642  1  0  0.606636  0  3.833027  0  0  0.558728  0  4.128675  0  0  0.598216  0  4.120687  0  0  0.213543  0.531924  0  4.133685  0
C  C90  1  0.31476757  0.91431880  0.30192803  1  0  -0.071006  0  3.775328  0  0  -0.044589  0  4.002774  0  0  -0.054865  0  4.026736  0  0  -0.018748  -0.038197  0  3.986967  0
C  C91  1  0.68523183  0.08568336  0.69807089  1  0  -0.071001  0  3.775232  0  0  -0.044592  0  4.002689  0  0  -0.054867  0  4.02665  0  0  -0.018747  -0.038199  0  3.986879  0
C  C92  1  0.36995651  0.95157215  0.21294614  1  0  -0.059565  0  3.715569  0  0  -0.081816  0  3.955112  0  0  -0.080134  0  3.974927  0  0  -0.079571  -0.082712  0  3.94096  0
C  C93  1  0.63004198  0.04842806  0.78705249  1  0  -0.05949  0  3.715471  0  0  -0.081738  0  3.954991  0  0  -0.080057  0  3.974807  0  0  -0.07952  -0.082634  0  3.940839  0
C  C94  1  0.30966442  0.91865926  0.14606517  1  0  -0.074011  0  3.771349  0  0  -0.084547  0  4.018749  0  0  -0.088864  0  4.041118  0  0  -0.08651  -0.081668  0  4.003781  0
C  C95  1  0.69033316  0.08133899  0.85393444  1  0  -0.074047  0  3.771255  0  0  -0.084593  0  4.018653  0  0  -0.088912  0  4.041018  0  0  -0.086531  -0.081714  0  4.003684  0
C  C96  1  0.19395304  0.84920103  0.16750898  1  0  -0.042888  0  3.74393  0  0  -0.061566  0  3.997289  0  0  -0.060772  0  4.017996  0  0  -0.080513  -0.061919  0  3.983017  0
C  C97  1  0.80604644  0.15079917  0.83249084  1  0  -0.042906  0  3.743786  0  0  -0.061591  0  3.997152  0  0  -0.060796  0  4.017856  0  0  -0.080558  -0.061944  0  3.982883  0
C  C98  1  0.13869366  0.81189481  0.25602370  1  0  -0.086867  0  3.785212  0  0  -0.098869  0  4.038778  0  0  -0.103289  0  4.061452  0  0  -0.094015  -0.095887  0  4.022638  0
C  C99  1  0.86130483  0.18810539  0.74397621  1  0  -0.086897  0  3.785194  0  0  -0.098888  0  4.038769  0  0  -0.103305  0  4.061437  0  0  -0.093993  -0.095906  0  4.022628  0
C  C100  1  0.19875796  0.84380246  0.32331660  1  0  -0.075978  0  3.742671  0  0  -0.101116  0  3.989087  0  0  -0.100142  0  4.009891  0  0  -0.085871  -0.10134  0  3.974642  0
C  C101  1  0.80124140  0.15620066  0.67668285  1  0  -0.075857  0  3.742674  0  0  -0.101003  0  3.989076  0  0  -0.100019  0  4.009882  0  0  -0.085855  -0.101225  0  3.97463  0
C  C102  1  0.35205901  0.21286040  0.51270699  1  0  0.611083  0  3.823537  0  0  0.563997  0  4.116105  0  0  0.603639  0  4.107278  0  0  0.215638  0.536887  0  4.121804  0
C  C103  1  0.64793945  0.78714077  0.48729344  1  0  0.610934  0  3.823648  0  0  0.56384  0  4.11622  0  0  0.60348  0  4.107399  0  0  0.215571  0.536731  0  4.121918  0
C  C104  1  0.27710910  0.33573027  0.52653901  1  0  -0.069392  0  3.779996  0  0  -0.041929  0  4.002631  0  0  -0.05184  0  4.026605  0  0  -0.020568  -0.035357  0  3.986583  0
C  C105  1  0.72289327  0.66427186  0.47346220  1  0  -0.069368  0  3.780177  0  0  -0.041889  0  4.002785  0  0  -0.051798  0  4.026762  0  0  -0.020562  -0.035317  0  3.986737  0
C  C106  1  0.33419346  0.45638896  0.49090931  1  0  -0.071878  0  3.737148  0  0  -0.094443  0  3.97771  0  0  -0.093522  0  3.998153  0  0  -0.085043  -0.095477  0  3.964197  0
C  C107  1  0.66580993  0.54361219  0.50909257  1  0  -0.071918  0  3.737167  0  0  -0.094481  0  3.977728  0  0  -0.093561  0  3.998171  0  0  -0.085021  -0.095516  0  3.964217  0
C  C108  1  0.26830780  0.57186017  0.50770343  1  0  -0.082359  0  3.759386  0  0  -0.093237  0  4.011776  0  0  -0.097632  0  4.033886  0  0  -0.093361  -0.090466  0  3.99715  0
C  C109  1  0.73169559  0.42814099  0.49229781  1  0  -0.082406  0  3.759492  0  0  -0.093289  0  4.011877  0  0  -0.097682  0  4.033984  0  0  -0.093409  -0.090517  0  3.99725  0
C  C110  1  0.14392697  0.56744386  0.55897632  1  0  -0.047693  0  3.755611  0  0  -0.066114  0  4.008484  0  0  -0.066882  0  4.032037  0  0  -0.084994  -0.065495  0  3.992567  0
C  C111  1  0.85607449  0.43255632  0.44102588  1  0  -0.047671  0  3.755721  0  0  -0.066077  0  4.008579  0  0  -0.066842  0  4.032131  0  0  -0.084985  -0.065456  0  3.992661  0
C  C112  1  0.08589272  0.44778634  0.59386646  1  0  -0.079611  0  3.778901  0  0  -0.090924  0  4.029696  0  0  -0.094969  0  4.052247  0  0  -0.091589  -0.088299  0  4.01455  0
C  C113  1  0.91410771  0.55221483  0.40613378  1  0  -0.079626  0  3.778829  0  0  -0.090959  0  4.029633  0  0  -0.095003  0  4.052182  0  0  -0.0916  -0.088334  0  4.014489  0
C  C114  1  0.15233038  0.33202152  0.57816368  1  0  -0.076711  0  3.739118  0  0  -0.100366  0  3.984034  0  0  -0.099474  0  4.004731  0  0  -0.08486  -0.100553  0  3.970062  0
C  C115  1  0.84766906  0.66797965  0.42183666  1  0  -0.076728  0  3.739243  0  0  -0.100393  0  3.984162  0  0  -0.099503  0  4.00486  0  0  -0.084879  -0.100582  0  3.970193  0
C  C116  1  0.74943966  0.36009185  0.22462168  1  0  0.078077  0  3.677831  0  0  0.047301  0  3.940405  0  0  0.054585  0  3.948051  0  0  0.044109  0.040246  0  3.94  0
C  C117  1  0.25056182  0.63990738  0.77537613  1  0  0.07795  0  3.677815  0  0  0.047104  0  3.940466  0  0  0.054417  0  3.948061  0  0  0.044024  0.040046  0  3.940071  0
C  C118  1  0.67019581  0.29049567  0.29587900  1  0  0.04623  0  3.684757  0  0  0.012444  0  3.955027  0  0  0.016183  0  3.963804  0  0  0.039493  0.008529  0  3.952088  0
C  C119  1  0.32980651  0.70950746  0.70411887  1  0  0.04634  0  3.684629  0  0  0.012607  0  3.95485  0  0  0.016341  0  3.963635  0  0  0.03959  0.008697  0  3.951911  0
C  C120  1  0.84619967  0.15016999  0.32669372  1  0  0.016221  0  3.629038  0  0  -0.021805  0  3.895898  0  0  -0.016773  0  3.904185  0  0  0.050698  -0.026841  0  3.893409  0
C  C121  1  0.15379872  0.84983313  0.67330582  1  0  0.016047  0  3.628914  0  0  -0.022  0  3.895802  0  0  -0.016966  0  3.90409  0  0  0.050632  -0.027043  0  3.893311  0
C  C122  1  0.92846165  0.22097970  0.25566928  1  0  0.229096  0  3.665138  0  0  0.231337  0  3.919614  0  0  0.23863  0  3.934915  0  0  0.133564  0.225581  0  3.91136  0
C  C123  1  0.07153795  0.77901756  0.74433154  1  0  0.229124  0  3.665158  0  0  0.231378  0  3.919633  0  0  0.238664  0  3.934945  0  0  0.133564  0.225646  0  3.911346  0
C  C124  1  0.07272531  0.18492644  0.23909685  1  0  -0.155473  0  3.707822  0  0  -0.192698  0  3.957323  0  0  -0.195649  0  3.969105  0  0  -0.162055  -0.190396  0  3.950133  0
C  C125  1  0.92727618  0.81507278  0.76090289  1  0  -0.155489  0  3.707805  0  0  -0.192725  0  3.957304  0  0  -0.195677  0  3.969091  0  0  -0.162046  -0.190426  0  3.950101  0
C  C126  1  0.14846965  0.23101874  0.30495844  1  0  -0.269832  0  3.694672  0  0  -0.343861  0  3.939717  0  0  -0.346487  0  3.950372  0  0  -0.240671  -0.342112  0  3.932859  0
C  C127  1  0.85153089  0.76897950  0.69504281  1  0  -0.269799  0  3.694666  0  0  -0.343841  0  3.939711  0  0  -0.346464  0  3.950366  0  0  -0.240675  -0.342083  0  3.932862  0
N  N128  1  0.87748547  0.32487611  0.20281068  1  0  -0.246716  0  3.199592  0  0  -0.200366  0  3.472636  0  0  -0.207086  0  3.479117  0  0  -0.314224  -0.198437  0  3.470854  0
N  N129  1  0.12251404  0.67512312  0.79718861  1  0  -0.246645  0  3.19957  0  0  -0.200321  0  3.472654  0  0  -0.207037  0  3.479138  0  0  -0.314209  -0.198396  0  3.470869  0
N  N130  1  0.71778423  0.18244568  0.34620717  1  0  -0.191121  0  3.311276  0  0  -0.140474  0  3.596668  0  0  -0.145057  0  3.604455  0  0  -0.324577  -0.139848  0  3.594017  0
N  N131  1  0.28221719  0.81755549  0.65379233  1  0  -0.191052  0  3.31105  0  0  -0.14043  0  3.59647  0  0  -0.145016  0  3.60426  0  0  -0.324575  -0.139809  0  3.59383  0
O  O132  1  0.03913762  0.27388081  0.02163671  1  0  -0.513784  0  2.17337  0  0  -0.466526  0  2.445434  0  0  -0.497893  0  2.439382  0  0  -0.294877  -0.445295  0  2.448736  0
O  O133  1  0.96086493  0.72611645  0.97836447  1  0  -0.513782  0  2.173261  0  0  -0.466535  0  2.445343  0  0  -0.49789  0  2.43928  0  0  -0.294868  -0.445315  0  2.448674  0
O  O134  1  0.10594637  0.39809093  0.88587159  1  0  -0.515604  0  2.195352  0  0  -0.466496  0  2.467219  0  0  -0.498759  0  2.461912  0  0  -0.29893  -0.44449  0  2.470329  0
O  O135  1  0.89405402  0.60191122  0.11412853  1  0  -0.515481  0  2.195404  0  0  -0.466372  0  2.467275  0  0  -0.498633  0  2.461963  0  0  -0.298878  -0.444368  0  2.470388  0
O  O136  1  0.14034979  0.46423456  0.10871691  1  0  -0.508723  0  2.182048  0  0  -0.459119  0  2.450361  0  0  -0.49086  0  2.444073  0  0  -0.29605  -0.437031  0  2.453157  0
O  O137  1  0.85965466  0.53576466  0.89128060  1  0  -0.508783  0  2.181925  0  0  -0.459177  0  2.450251  0  0  -0.490917  0  2.443966  0  0  -0.296085  -0.437088  0  2.453058  0
O  O138  1  0.20899713  0.58754965  0.97310142  1  0  -0.522427  0  2.190536  0  0  -0.474266  0  2.466257  0  0  -0.506963  0  2.461426  0  0  -0.297327  -0.451893  0  2.468957  0
O  O139  1  0.79100231  0.41245154  0.02689569  1  0  -0.522483  0  2.190837  0  0  -0.474322  0  2.466563  0  0  -0.507018  0  2.461728  0  0  -0.29739  -0.451947  0  2.469259  0
O  O140  1  0.47889801  0.02184413  0.35035369  1  0  -0.517438  0  2.17044  0  0  -0.47014  0  2.441325  0  0  -0.502169  0  2.435568  0  0  -0.296567  -0.447799  0  2.443363  0
O  O141  1  0.52110249  0.97815510  0.64964550  1  0  -0.51744  0  2.170455  0  0  -0.470144  0  2.441328  0  0  -0.502173  0  2.435572  0  0  -0.296588  -0.447803  0  2.443369  0
O  O142  1  0.33054863  0.90135420  0.45356155  1  0  -0.514705  0  2.182322  0  0  -0.466662  0  2.452485  0  0  -0.498852  0  2.446138  0  0  -0.298437  -0.444688  0  2.455729  0
O  O143  1  0.66945077  0.09864795  0.54643738  1  0  -0.514734  0  2.182437  0  0  -0.466683  0  2.452577  0  0  -0.498871  0  2.446229  0  0  -0.298483  -0.44471  0  2.455823  0
O  O144  1  0.45866411  0.22425457  0.45727898  1  0  -0.514557  0  2.192322  0  0  -0.465112  0  2.463215  0  0  -0.49719  0  2.456925  0  0  -0.295355  -0.443083  0  2.466119  0
O  O145  1  0.54133435  0.77574661  0.54271952  1  0  -0.514501  0  2.192352  0  0  -0.465055  0  2.463239  0  0  -0.497131  0  2.456951  0  0  -0.295341  -0.443028  0  2.466144  0
O  O146  1  0.30705177  0.10502060  0.55847611  1  0  -0.522772  0  2.179601  0  0  -0.474016  0  2.450107  0  0  -0.505412  0  2.442604  0  0  -0.296847  -0.452785  0  2.454607  0
O  O147  1  0.69294862  0.89498154  0.44152401  1  0  -0.522721  0  2.179611  0  0  -0.473958  0  2.450116  0  0  -0.505354  0  2.442615  0  0  -0.296826  -0.452714  0  2.45459  0
