# generated using pymatgen
data_AlHC4O5F2
_symmetry_space_group_name_H-M   'P 1'
_cell_length_a   6.68153478
_cell_length_b   8.84070394
_cell_length_c   8.84050797
_cell_angle_alpha   72.92424294
_cell_angle_beta   75.44104214
_cell_angle_gamma   75.43926784
_symmetry_Int_Tables_number   1
_chemical_formula_structural   AlHC4O5F2
_chemical_formula_sum   'Al2 H2 C8 O10 F4'
_cell_volume   474.17086645
_cell_formula_units_Z   2
loop_
 _symmetry_equiv_pos_site_id
 _symmetry_equiv_pos_as_xyz
  1  'x, y, z'
loop_
 _atom_site_type_symbol
 _atom_site_label
 _atom_site_symmetry_multiplicity
 _atom_site_fract_x
 _atom_site_fract_y
 _atom_site_fract_z
 _atom_site_occupancy
 _atom_site_pbe_bader_charge
 _atom_site_pbe_bader_spin_density
 _atom_site_pbe_cm5_charge
 _atom_site_pbe_ddec_charge
 _atom_site_pbe_ddec_spin_density
 _atom_site_pbe_ddec_sum_bond_order
 _atom_site_pbe_magmom
Al  Al0  1  0.50001820  0.49998657  0.49999483  1  2.505818  0  0.405263  1.650703  0  2.569689  0
Al  Al1  1  0.00000324  0.49999722  0.49999217  1  2.505868  0  0.405331  1.650727  0  2.569851  0
H  H2  1  0.74998309  0.33109573  0.66903643  1  0.640191  0  0.363776  0.445997  0  0.828398  0
H  H3  1  0.24993856  0.66909356  0.33111832  1  0.635173  0  0.36377  0.446009  0  0.828287  0
C  C4  1  0.16436753  0.48902865  0.78227454  1  1.643674  0  0.265777  0.607242  0  4.157896  0
C  C5  1  0.33563823  0.21767963  0.51095807  1  1.64327  0  0.265731  0.607413  0  4.158346  0
C  C6  1  0.83567424  0.51096316  0.21769692  1  1.643271  0  0.265598  0.607066  0  4.157946  0
C  C7  1  0.66433385  0.78232833  0.48901594  1  1.642952  0  0.265678  0.607294  0  4.157849  0
C  C8  1  0.59810285  0.95377958  0.50024769  1  0.54495  0  0.103207  0.051707  0  3.966145  0
C  C9  1  0.40190154  0.04621842  0.49973101  1  0.62837  0  0.103253  0.051727  0  3.966157  0
C  C10  1  0.09810032  0.50025935  0.95376840  1  0.544716  0  0.103078  0.051299  0  3.965764  0
C  C11  1  0.90187918  0.49974982  0.04621533  1  0.628043  0  0.103301  0.051748  0  3.96603  0
O  O12  1  0.35222573  0.50531143  0.71687338  1  -1.23728  0  -0.227179  -0.561621  0  2.341165  0
O  O13  1  0.14783382  0.28312572  0.49466310  1  -1.237042  0  -0.227172  -0.561647  0  2.341639  0
O  O14  1  0.97070765  0.53650867  0.28125318  1  -1.245235  0  -0.230773  -0.580496  0  2.376169  0
O  O15  1  0.52928279  0.71875921  0.46347744  1  -1.244679  0  -0.231058  -0.580939  0  2.375413  0
O  O16  1  0.64780961  0.49468683  0.28312317  1  -1.236788  0  -0.227246  -0.561781  0  2.341082  0
O  O17  1  0.85215300  0.71687899  0.50526880  1  -1.23705  0  -0.227199  -0.561776  0  2.341587  0
O  O18  1  0.02933655  0.46345881  0.71872464  1  -1.245038  0  -0.230822  -0.58069  0  2.376149  0
O  O19  1  0.47067076  0.28124878  0.53651610  1  -1.244938  0  -0.230952  -0.581007  0  2.375919  0
O  O20  1  0.74999846  0.42319703  0.57682866  1  -1.43521  0  -0.445087  -0.990352  0  2.190962  0
O  O21  1  0.25000134  0.57682225  0.42315946  1  -1.430218  0  -0.445153  -0.990363  0  2.190625  0
F  F22  1  0.75503388  0.01601408  0.51373039  1  -0.603465  0  -0.072726  -0.069588  0  1.438928  0
F  F23  1  0.24496191  0.98396593  0.48628069  1  -0.603261  0  -0.072769  -0.069607  0  1.439035  0
F  F24  1  0.25503684  0.51368677  0.01606586  1  -0.603102  0  -0.072791  -0.069479  0  1.438883  0
F  F25  1  0.74495174  0.48627539  0.98394654  1  -0.602989  0  -0.072833  -0.069586  0  1.439056  0
