# generated using pymatgen
data_SnH17C12ClO3
_symmetry_space_group_name_H-M   'P 1'
_cell_length_a   9.78644643
_cell_length_b   12.08235258
_cell_length_c   12.63809540
_cell_angle_alpha   110.48703125
_cell_angle_beta   89.99977550
_cell_angle_gamma   90.00093979
_symmetry_Int_Tables_number   1
_chemical_formula_structural   SnH17C12ClO3
_chemical_formula_sum   'Sn4 H68 C48 Cl4 O12'
_cell_volume   1399.85329529
_cell_formula_units_Z   4
loop_
 _symmetry_equiv_pos_site_id
 _symmetry_equiv_pos_as_xyz
  1  'x, y, z'
loop_
 _atom_site_type_symbol
 _atom_site_label
 _atom_site_symmetry_multiplicity
 _atom_site_fract_x
 _atom_site_fract_y
 _atom_site_fract_z
 _atom_site_occupancy
 _atom_site_hle17_bader_spin_density
 _atom_site_hle17_ddec_charge
 _atom_site_hle17_ddec_spin_density
 _atom_site_hle17_ddec_sum_bond_order
 _atom_site_hle17_magmom
 _atom_site_hse06_10hf_bader_spin_density
 _atom_site_hse06_10hf_ddec_charge
 _atom_site_hse06_10hf_ddec_spin_density
 _atom_site_hse06_10hf_ddec_sum_bond_order
 _atom_site_hse06_10hf_magmom
 _atom_site_hse06_bader_spin_density
 _atom_site_hse06_ddec_charge
 _atom_site_hse06_ddec_spin_density
 _atom_site_hse06_ddec_sum_bond_order
 _atom_site_hse06_magmom
 _atom_site_pbe_bader_spin_density
 _atom_site_pbe_cm5_charge
 _atom_site_pbe_ddec_charge
 _atom_site_pbe_ddec_spin_density
 _atom_site_pbe_ddec_sum_bond_order
 _atom_site_pbe_magmom
Sn  Sn0  1  0.35268127  0.27867665  0.45420951  1  0  1.379758  0  2.863499  0  0  1.252562  0  3.349907  0  0  1.290456  0  3.334403  0  0  0.520602  1.226197  0  3.360597  0
Sn  Sn1  1  0.85267604  0.22131807  0.54578540  1  0  1.379596  0  2.863664  0  0  1.252446  0  3.349996  0  0  1.290343  0  3.334488  0  0  0.520526  1.226071  0  3.360671  0
Sn  Sn2  1  0.64732058  0.72132016  0.54578532  1  0  1.379619  0  2.863434  0  0  1.252465  0  3.349792  0  0  1.290361  0  3.334286  0  0  0.520557  1.226103  0  3.360475  0
Sn  Sn3  1  0.14730742  0.77868839  0.45422142  1  0  1.379615  0  2.863529  0  0  1.252465  0  3.349857  0  0  1.290364  0  3.334351  0  0  0.520547  1.226096  0  3.360527  0
H  H4  1  0.40609789  0.07621048  0.49485576  1  0  0.147972  0  1.008237  0  0  0.167145  0  1.064656  0  0  0.169481  0  1.065718  0  0  0.083409  0.165381  0  1.064297  0
H  H5  1  0.90610822  0.42379459  0.50515675  1  0  0.148016  0  1.00826  0  0  0.167159  0  1.064689  0  0  0.169502  0  1.065741  0  0  0.083442  0.165379  0  1.064352  0
H  H6  1  0.59391623  0.92379066  0.50515083  1  0  0.148078  0  1.008295  0  0  0.167277  0  1.064649  0  0  0.169615  0  1.065708  0  0  0.083484  0.165509  0  1.064297  0
H  H7  1  0.09389261  0.57621189  0.49484770  1  0  0.147976  0  1.008266  0  0  0.167142  0  1.06468  0  0  0.16948  0  1.065739  0  0  0.083448  0.16538  0  1.06432  0
H  H8  1  0.41086885  0.04619445  0.34578059  1  0  0.155664  0  0.996023  0  0  0.173392  0  1.05475  0  0  0.175734  0  1.056055  0  0  0.084094  0.171692  0  1.053995  0
H  H9  1  0.91088823  0.45379300  0.65422906  1  0  0.155635  0  0.996034  0  0  0.173336  0  1.054795  0  0  0.175679  0  1.056102  0  0  0.084056  0.171636  0  1.054042  0
H  H10  1  0.58913403  0.95379962  0.65422517  1  0  0.155637  0  0.996081  0  0  0.173381  0  1.054789  0  0  0.175725  0  1.056093  0  0  0.084095  0.171684  0  1.054031  0
H  H11  1  0.08911363  0.54621084  0.34577369  1  0  0.155681  0  0.995986  0  0  0.173365  0  1.054758  0  0  0.175708  0  1.056065  0  0  0.08407  0.171664  0  1.054009  0
H  H12  1  0.25032126  0.06003381  0.41618360  1  0  0.160567  0  0.991122  0  0  0.180166  0  1.045557  0  0  0.182542  0  1.046959  0  0  0.088485  0.178465  0  1.044747  0
H  H13  1  0.75033663  0.43996907  0.58383497  1  0  0.160476  0  0.991156  0  0  0.180057  0  1.045649  0  0  0.182436  0  1.047053  0  0  0.088435  0.178353  0  1.044847  0
H  H14  1  0.74968571  0.93996551  0.58383028  1  0  0.160643  0  0.991118  0  0  0.180199  0  1.045625  0  0  0.182572  0  1.047032  0  0  0.088539  0.178498  0  1.044815  0
H  H15  1  0.24966523  0.56004802  0.41617230  1  0  0.16049  0  0.991252  0  0  0.180062  0  1.045725  0  0  0.182435  0  1.047132  0  0  0.088447  0.178362  0  1.044924  0
H  H16  1  0.97107680  0.36908299  0.22726460  1  0  0.114446  0  0.956343  0  0  0.130998  0  1.025368  0  0  0.132749  0  1.025093  0  0  0.090169  0.129642  0  1.025653  0
H  H17  1  0.47107638  0.13091523  0.77271926  1  0  0.114467  0  0.956392  0  0  0.130989  0  1.025443  0  0  0.132739  0  1.025167  0  0  0.090159  0.129632  0  1.025726  0
H  H18  1  0.02892608  0.63090763  0.77272891  1  0  0.114408  0  0.95631  0  0  0.130985  0  1.025302  0  0  0.132737  0  1.025025  0  0  0.090176  0.129627  0  1.02559  0
H  H19  1  0.52892037  0.86909227  0.22726733  1  0  0.114469  0  0.95622  0  0  0.131007  0  1.025255  0  0  0.132757  0  1.024981  0  0  0.090173  0.129649  0  1.025534  0
H  H20  1  0.84232669  0.32769053  0.30648338  1  0  0.107942  0  0.959342  0  0  0.13138  0  1.018923  0  0  0.131913  0  1.020162  0  0  0.093045  0.130937  0  1.018149  0
H  H21  1  0.34232240  0.17230412  0.69350283  1  0  0.10788  0  0.95944  0  0  0.131342  0  1.018974  0  0  0.131874  0  1.020213  0  0  0.093023  0.130898  0  1.018201  0
H  H22  1  0.15767926  0.67230363  0.69350976  1  0  0.10789  0  0.959255  0  0  0.13131  0  1.018881  0  0  0.131843  0  1.02012  0  0  0.092993  0.130864  0  1.018112  0
H  H23  1  0.65767639  0.82771218  0.30649151  1  0  0.107986  0  0.959399  0  0  0.131418  0  1.018971  0  0  0.131952  0  1.020206  0  0  0.093066  0.13097  0  1.018201  0
H  H24  1  0.83446157  0.27450683  0.15616295  1  0  0.117407  0  0.959089  0  0  0.136247  0  1.023989  0  0  0.1376  0  1.024331  0  0  0.091357  0.135352  0  1.023518  0
H  H25  1  0.33446475  0.22548686  0.84381821  1  0  0.11752  0  0.95913  0  0  0.136267  0  1.024131  0  0  0.137624  0  1.024466  0  0  0.091358  0.135376  0  1.023643  0
H  H26  1  0.16553722  0.72548647  0.84382673  1  0  0.117424  0  0.959169  0  0  0.136205  0  1.024138  0  0  0.137561  0  1.02447  0  0  0.091342  0.135308  0  1.023662  0
H  H27  1  0.66553506  0.77451619  0.15617083  1  0  0.1175  0  0.958949  0  0  0.136273  0  1.023934  0  0  0.13763  0  1.024267  0  0  0.091368  0.135371  0  1.023464  0
H  H28  1  0.47853988  0.45032930  0.39849102  1  0  0.148721  0  1.005004  0  0  0.168845  0  1.061235  0  0  0.171068  0  1.062529  0  0  0.084717  0.16726  0  1.060258  0
H  H29  1  0.97852984  0.04966452  0.60150161  1  0  0.148726  0  1.005049  0  0  0.168876  0  1.061228  0  0  0.171094  0  1.062529  0  0  0.084709  0.167301  0  1.060231  0
H  H30  1  0.52147015  0.54966572  0.60150557  1  0  0.148746  0  1.005032  0  0  0.168889  0  1.06121  0  0  0.171109  0  1.062507  0  0  0.084714  0.167313  0  1.060223  0
H  H31  1  0.02145669  0.95034202  0.39849495  1  0  0.148786  0  1.004874  0  0  0.168865  0  1.061182  0  0  0.17109  0  1.062472  0  0  0.084702  0.167279  0  1.060198  0
H  H32  1  0.47593318  0.31676497  0.27751331  1  0  0.153823  0  1.007405  0  0  0.169159  0  1.069434  0  0  0.171953  0  1.069488  0  0  0.081273  0.167177  0  1.069273  0
H  H33  1  0.97592525  0.18322705  0.72247871  1  0  0.153896  0  1.007372  0  0  0.169228  0  1.069397  0  0  0.172022  0  1.069452  0  0  0.081316  0.167238  0  1.069242  0
H  H34  1  0.52407889  0.68322651  0.72248287  1  0  0.153831  0  1.007419  0  0  0.169176  0  1.069428  0  0  0.17197  0  1.069482  0  0  0.081272  0.167192  0  1.069264  0
H  H35  1  0.02406741  0.81677415  0.27752078  1  0  0.153873  0  1.007416  0  0  0.16923  0  1.069403  0  0  0.172023  0  1.069458  0  0  0.081296  0.167238  0  1.069249  0
H  H36  1  0.59813168  0.33491099  0.38778564  1  0  0.1516  0  1.002187  0  0  0.171623  0  1.058564  0  0  0.174022  0  1.059532  0  0  0.084842  0.16979  0  1.05815  0
H  H37  1  0.09812766  0.16508376  0.61220927  1  0  0.151647  0  1.002094  0  0  0.171658  0  1.058498  0  0  0.174055  0  1.059469  0  0  0.084845  0.169819  0  1.058083  0
H  H38  1  0.40187324  0.66508222  0.61221666  1  0  0.151623  0  1.002097  0  0  0.171605  0  1.058532  0  0  0.173999  0  1.059508  0  0  0.084829  0.169771  0  1.058118  0
H  H39  1  0.90186091  0.83491923  0.38778845  1  0  0.15161  0  1.002161  0  0  0.171648  0  1.058523  0  0  0.174043  0  1.059497  0  0  0.084855  0.169811  0  1.05811  0
H  H40  1  0.07571421  0.98973411  0.22328580  1  0  0.099562  0  0.983363  0  0  0.110381  0  1.047222  0  0  0.113314  0  1.046184  0  0  0.099944  0.108209  0  1.048264  0
H  H41  1  0.57571576  0.51026909  0.77671064  1  0  0.099532  0  0.983115  0  0  0.110395  0  1.046975  0  0  0.113334  0  1.04593  0  0  0.09995  0.108222  0  1.048017  0
H  H42  1  0.92428867  0.01026008  0.77670339  1  0  0.09951  0  0.983007  0  0  0.110388  0  1.046862  0  0  0.113326  0  1.045818  0  0  0.099938  0.108215  0  1.047899  0
H  H43  1  0.42427691  0.48973219  0.22327780  1  0  0.099484  0  0.983557  0  0  0.110341  0  1.047365  0  0  0.113272  0  1.04633  0  0  0.099958  0.108167  0  1.048419  0
H  H44  1  0.23452104  0.82015005  0.16463783  1  0  0.102399  0  0.967808  0  0  0.108028  0  1.033453  0  0  0.111857  0  1.030526  0  0  0.100752  0.105221  0  1.035655  0
H  H45  1  0.73453290  0.67985702  0.83537209  1  0  0.102442  0  0.96777  0  0  0.108049  0  1.033428  0  0  0.111874  0  1.030507  0  0  0.100741  0.105238  0  1.03563  0
H  H46  1  0.76546856  0.17984323  0.83535579  1  0  0.102511  0  0.967645  0  0  0.108131  0  1.033303  0  0  0.111957  0  1.030382  0  0  0.100793  0.105326  0  1.035503  0
H  H47  1  0.26548020  0.32013714  0.16462104  1  0  0.1024  0  0.96775  0  0  0.108033  0  1.033384  0  0  0.111858  0  1.030464  0  0  0.100742  0.105227  0  1.035584  0
H  H48  1  0.14759173  0.42640977  0.55849042  1  0  0.154794  0  1.009441  0  0  0.173741  0  1.065398  0  0  0.176182  0  1.066666  0  0  0.084646  0.171737  0  1.065073  0
H  H49  1  0.64758504  0.07359098  0.44150401  1  0  0.154724  0  1.009517  0  0  0.173658  0  1.06549  0  0  0.176099  0  1.066755  0  0  0.084615  0.171654  0  1.065165  0
H  H50  1  0.85240809  0.57358429  0.44151613  1  0  0.154711  0  1.009363  0  0  0.173659  0  1.065351  0  0  0.176098  0  1.06662  0  0  0.084637  0.171654  0  1.065029  0
H  H51  1  0.35240967  0.92641201  0.55849292  1  0  0.154683  0  1.00944  0  0  0.17362  0  1.065432  0  0  0.17606  0  1.066699  0  0  0.084599  0.17161  0  1.065114  0
H  H52  1  0.30440485  0.47733772  0.63299457  1  0  0.151899  0  1.001083  0  0  0.171184  0  1.057911  0  0  0.173603  0  1.05873  0  0  0.082605  0.169503  0  1.057264  0
H  H53  1  0.80439239  0.02265547  0.36699838  1  0  0.151908  0  1.001067  0  0  0.171198  0  1.057891  0  0  0.173615  0  1.058715  0  0  0.082631  0.169518  0  1.057237  0
H  H54  1  0.69560212  0.52265374  0.36700477  1  0  0.151847  0  1.001067  0  0  0.171148  0  1.057887  0  0  0.173565  0  1.058709  0  0  0.082567  0.169466  0  1.057244  0
H  H55  1  0.19560844  0.97734833  0.63300911  1  0  0.151902  0  1.001071  0  0  0.171184  0  1.057908  0  0  0.1736  0  1.058732  0  0  0.082644  0.169503  0  1.057254  0
H  H56  1  0.21230478  0.35820068  0.65238047  1  0  0.141652  0  1.036095  0  0  0.155488  0  1.10332  0  0  0.158014  0  1.104238  0  0  0.075132  0.153544  0  1.103001  0
H  H57  1  0.71230405  0.14179741  0.34761522  1  0  0.141664  0  1.036024  0  0  0.155481  0  1.103273  0  0  0.158007  0  1.10419  0  0  0.075129  0.153531  0  1.10296  0
H  H58  1  0.78770627  0.64178988  0.34762014  1  0  0.141622  0  1.035945  0  0  0.155432  0  1.103226  0  0  0.157957  0  1.104145  0  0  0.075113  0.153486  0  1.102909  0
H  H59  1  0.28769474  0.85820202  0.65238367  1  0  0.141614  0  1.036061  0  0  0.155433  0  1.103314  0  0  0.157959  0  1.104232  0  0  0.075124  0.153483  0  1.102999  0
H  H60  1  0.39025487  0.78681180  0.00119291  1  0  0.113054  0  0.958144  0  0  0.119468  0  1.025746  0  0  0.123703  0  1.022807  0  0  0.100902  0.116455  0  1.027884  0
H  H61  1  0.89025533  0.71319031  0.99882117  1  0  0.113138  0  0.958297  0  0  0.119607  0  1.025802  0  0  0.123838  0  1.022868  0  0  0.101003  0.116598  0  1.027934  0
H  H62  1  0.60974392  0.21317703  0.99880316  1  0  0.113196  0  0.95827  0  0  0.119668  0  1.025772  0  0  0.123899  0  1.022837  0  0  0.101042  0.116664  0  1.02791  0
H  H63  1  0.10975062  0.28680298  0.00117087  1  0  0.113078  0  0.958215  0  0  0.119523  0  1.025764  0  0  0.12376  0  1.022833  0  0  0.100939  0.116513  0  1.0279  0
H  H64  1  0.22604179  0.09755063  0.95239336  1  0  0.124868  0  0.946612  0  0  0.136959  0  1.006508  0  0  0.14041  0  1.004736  0  0  0.1072  0.134465  0  1.008063  0
H  H65  1  0.72603871  0.40244148  0.04759788  1  0  0.124833  0  0.946651  0  0  0.136901  0  1.006582  0  0  0.140351  0  1.004811  0  0  0.107171  0.134412  0  1.008141  0
H  H66  1  0.77395802  0.90244618  0.04760068  1  0  0.12491  0  0.946609  0  0  0.137  0  1.006503  0  0  0.14045  0  1.004732  0  0  0.107227  0.134509  0  1.008055  0
H  H67  1  0.27395702  0.59757124  0.95240078  1  0  0.124761  0  0.946505  0  0  0.136873  0  1.006413  0  0  0.140322  0  1.004645  0  0  0.107182  0.13438  0  1.007967  0
H  H68  1  0.91834621  0.11675993  0.22379795  1  0  0.056361  0  0.923879  0  0  0.064602  0  0.987513  0  0  0.065622  0  0.987064  0  0  0.108098  0.063675  0  0.988298  0
H  H69  1  0.41834887  0.38323669  0.77618315  1  0  0.056259  0  0.923945  0  0  0.064488  0  0.987677  0  0  0.065507  0  0.987226  0  0  0.108084  0.063571  0  0.988465  0
H  H70  1  0.08165258  0.88322897  0.77618864  1  0  0.056324  0  0.92403  0  0  0.064559  0  0.987684  0  0  0.065578  0  0.987235  0  0  0.108134  0.063636  0  0.988466  0
H  H71  1  0.58165095  0.61677425  0.22381649  1  0  0.056256  0  0.923992  0  0  0.064519  0  0.987616  0  0  0.065537  0  0.987165  0  0  0.108125  0.0636  0  0.988408  0
C  C72  1  0.35571529  0.09237597  0.42430796  1  0  -0.70994  0  3.500572  0  0  -0.750831  0  3.72651  0  0  -0.764582  0  3.733895  0  0  -0.333308  -0.741346  0  3.721979  0
C  C73  1  0.85572800  0.40762313  0.57569951  1  0  -0.709789  0  3.500591  0  0  -0.750633  0  3.726492  0  0  -0.764395  0  3.73387  0  0  -0.333238  -0.741128  0  3.721992  0
C  C74  1  0.64429372  0.90762253  0.57569773  1  0  -0.710029  0  3.500706  0  0  -0.750947  0  3.72664  0  0  -0.764697  0  3.734021  0  0  -0.333414  -0.741461  0  3.722118  0
C  C75  1  0.14427488  0.59238867  0.42430438  1  0  -0.709835  0  3.500665  0  0  -0.750648  0  3.726581  0  0  -0.7644  0  3.733973  0  0  -0.333247  -0.741163  0  3.722063  0
C  C76  1  0.90361031  0.29724077  0.22894685  1  0  -0.327341  0  3.664702  0  0  -0.412747  0  3.907555  0  0  -0.414489  0  3.915287  0  0  -0.242806  -0.411172  0  3.902075  0
C  C77  1  0.40360523  0.20276088  0.77104471  1  0  -0.327445  0  3.664881  0  0  -0.412731  0  3.907815  0  0  -0.41447  0  3.915546  0  0  -0.242772  -0.411162  0  3.902329  0
C  C78  1  0.09639666  0.70275686  0.77105616  1  0  -0.327207  0  3.664644  0  0  -0.412584  0  3.907551  0  0  -0.414327  0  3.915294  0  0  -0.242729  -0.411017  0  3.902072  0
C  C79  1  0.59638744  0.79724652  0.22895530  1  0  -0.327578  0  3.664772  0  0  -0.412885  0  3.907622  0  0  -0.414628  0  3.915357  0  0  -0.242849  -0.411309  0  3.902139  0
C  C80  1  0.14086249  0.05516454  0.09145370  1  0  0.299965  0  3.79828  0  0  0.288479  0  4.065165  0  0  0.301248  0  4.079703  0  0  0.08503  0.279516  0  4.05578  0
C  C81  1  0.64085995  0.44482542  0.90855052  1  0  0.299921  0  3.798879  0  0  0.288439  0  4.065694  0  0  0.301212  0  4.080234  0  0  0.08498  0.279461  0  4.056328  0
C  C82  1  0.85914141  0.94482424  0.90854867  1  0  0.29982  0  3.798948  0  0  0.288375  0  4.065723  0  0  0.301148  0  4.080261  0  0  0.084989  0.279404  0  4.056348  0
C  C83  1  0.35913986  0.55517390  0.09146336  1  0  0.300051  0  3.798228  0  0  0.288503  0  4.06522  0  0  0.301275  0  4.079755  0  0  0.085031  0.279539  0  4.055842  0
C  C84  1  0.49368135  0.35439185  0.36867403  1  0  -0.718258  0  3.510054  0  0  -0.758844  0  3.735798  0  0  -0.772156  0  3.741989  0  0  -0.338302  -0.749159  0  3.73121  0
C  C85  1  0.99367618  0.14560039  0.63132197  1  0  -0.718376  0  3.509956  0  0  -0.758978  0  3.735741  0  0  -0.772289  0  3.74194  0  0  -0.338349  -0.7493  0  3.731127  0
C  C86  1  0.50632357  0.64559960  0.63132689  1  0  -0.71829  0  3.509958  0  0  -0.758867  0  3.73578  0  0  -0.772172  0  3.741976  0  0  -0.338284  -0.749195  0  3.731176  0
C  C87  1  0.00631341  0.85440437  0.36867635  1  0  -0.7183  0  3.509934  0  0  -0.758931  0  3.735716  0  0  -0.772246  0  3.741906  0  0  -0.33829  -0.749238  0  3.731125  0
C  C88  1  0.08218034  0.21772205  0.32619656  1  0  0.62963  0  3.843804  0  0  0.575884  0  4.146787  0  0  0.608843  0  4.138694  0  0  0.228673  0.553544  0  4.151564  0
C  C89  1  0.58218387  0.28227607  0.67379084  1  0  0.629562  0  3.843986  0  0  0.576084  0  4.146639  0  0  0.609045  0  4.138536  0  0  0.228775  0.553736  0  4.151442  0
C  C90  1  0.91781232  0.78226677  0.67380029  1  0  0.629609  0  3.84382  0  0  0.575956  0  4.146675  0  0  0.608916  0  4.138587  0  0  0.228728  0.553618  0  4.151449  0
C  C91  1  0.41782105  0.71773746  0.32621839  1  0  0.629716  0  3.843611  0  0  0.576012  0  4.146556  0  0  0.608974  0  4.138451  0  0  0.228669  0.553686  0  4.151333  0
C  C92  1  0.14192317  0.97645710  0.15067531  1  0  -0.213704  0  3.74693  0  0  -0.237762  0  4.000428  0  0  -0.244072  0  4.019808  0  0  -0.11637  -0.233821  0  3.987964  0
C  C93  1  0.64193484  0.52354782  0.84933337  1  0  -0.213729  0  3.74608  0  0  -0.237869  0  3.99963  0  0  -0.244183  0  4.019006  0  0  -0.116414  -0.233924  0  3.987164  0
C  C94  1  0.85806540  0.02354316  0.84933177  1  0  -0.213619  0  3.746615  0  0  -0.237771  0  4.000141  0  0  -0.244087  0  4.019529  0  0  -0.116408  -0.233818  0  3.98766  0
C  C95  1  0.35807622  0.47645331  0.15067638  1  0  -0.2136  0  3.74688  0  0  -0.237671  0  4.000411  0  0  -0.243976  0  4.019777  0  0  -0.116375  -0.233735  0  3.987967  0
C  C96  1  0.23076249  0.87980659  0.11689636  1  0  -0.017807  0  3.763574  0  0  -0.028758  0  4.017538  0  0  -0.026529  0  4.035531  0  0  -0.089204  -0.030257  0  4.005421  0
C  C97  1  0.73078004  0.62020572  0.88311773  1  0  -0.017924  0  3.763325  0  0  -0.028854  0  4.017319  0  0  -0.02662  0  4.035308  0  0  -0.089199  -0.03034  0  4.005187  0
C  C98  1  0.76922813  0.12019108  0.88310272  1  0  -0.018155  0  3.763429  0  0  -0.029107  0  4.017488  0  0  -0.026876  0  4.035478  0  0  -0.089327  -0.030602  0  4.005371  0
C  C99  1  0.26924021  0.37980519  0.11688664  1  0  -0.017911  0  3.763682  0  0  -0.028876  0  4.017692  0  0  -0.026643  0  4.035683  0  0  -0.089282  -0.030365  0  4.00557  0
C  C100  1  0.31321168  0.93851956  0.96614283  1  0  0.151084  0  3.854462  0  0  0.160732  0  4.125348  0  0  0.166088  0  4.146756  0  0  0.009069  0.15715  0  4.1112  0
C  C101  1  0.81321398  0.56147718  0.03385384  1  0  0.151063  0  3.85414  0  0  0.160687  0  4.125094  0  0  0.166042  0  4.146504  0  0  0.009049  0.157103  0  4.110953  0
C  C102  1  0.68679018  0.06146846  0.03384189  1  0  0.151159  0  3.854099  0  0  0.160817  0  4.124976  0  0  0.166175  0  4.146382  0  0  0.009125  0.15724  0  4.110832  0
C  C103  1  0.18678072  0.43853030  0.96613513  1  0  0.150864  0  3.854419  0  0  0.160504  0  4.125369  0  0  0.165858  0  4.146783  0  0  0.008978  0.156928  0  4.111216  0
C  C104  1  0.24049435  0.39981926  0.59130290  1  0  -0.72461  0  3.539847  0  0  -0.767652  0  3.774477  0  0  -0.780765  0  3.780298  0  0  -0.341214  -0.75843  0  3.770938  0
C  C105  1  0.74048939  0.10017921  0.40869442  1  0  -0.724547  0  3.539897  0  0  -0.767546  0  3.774543  0  0  -0.780658  0  3.780365  0  0  -0.341209  -0.758325  0  3.771  0
C  C106  1  0.75950751  0.60017485  0.40869734  1  0  -0.724409  0  3.539523  0  0  -0.767444  0  3.774144  0  0  -0.780556  0  3.779972  0  0  -0.34115  -0.75822  0  3.770611  0
C  C107  1  0.25950531  0.89982726  0.59131082  1  0  -0.724435  0  3.539703  0  0  -0.767447  0  3.774351  0  0  -0.780562  0  3.780185  0  0  -0.341212  -0.758218  0  3.770805  0
C  C108  1  0.31795147  0.85981813  0.02485390  1  0  -0.184212  0  3.799278  0  0  -0.214942  0  4.065162  0  0  -0.219583  0  4.083988  0  0  -0.117751  -0.211906  0  4.052436  0
C  C109  1  0.81796078  0.64018479  0.97515435  1  0  -0.184274  0  3.799762  0  0  -0.215041  0  4.065659  0  0  -0.21968  0  4.084481  0  0  -0.117853  -0.211998  0  4.052909  0
C  C110  1  0.68203097  0.14017778  0.97514299  1  0  -0.184173  0  3.799311  0  0  -0.214971  0  4.06521  0  0  -0.219608  0  4.084023  0  0  -0.117835  -0.211961  0  4.052525  0
C  C111  1  0.18205129  0.35981462  0.02484769  1  0  -0.184296  0  3.79893  0  0  -0.215027  0  4.064773  0  0  -0.219676  0  4.083601  0  0  -0.117806  -0.211992  0  4.052041  0
C  C112  1  0.22622293  0.03559152  0.99746739  1  0  -0.247762  0  3.718543  0  0  -0.281162  0  3.975659  0  0  -0.287257  0  3.993017  0  0  -0.112126  -0.277532  0  3.965134  0
C  C113  1  0.72622134  0.46439969  0.00252749  1  0  -0.247666  0  3.718556  0  0  -0.281029  0  3.97562  0  0  -0.287126  0  3.992983  0  0  -0.112026  -0.277393  0  3.965103  0
C  C114  1  0.77377177  0.96439909  0.00252769  1  0  -0.247694  0  3.718673  0  0  -0.281137  0  3.975802  0  0  -0.287234  0  3.993162  0  0  -0.112077  -0.277502  0  3.965273  0
C  C115  1  0.27377541  0.53559880  0.99747977  1  0  -0.247642  0  3.718458  0  0  -0.281001  0  3.975565  0  0  -0.287099  0  3.992933  0  0  -0.11205  -0.277367  0  3.965028  0
C  C116  1  0.98681000  0.18888593  0.22313813  1  0  0.10964  0  3.630855  0  0  0.088091  0  3.885427  0  0  0.091254  0  3.893436  0  0  0.006044  0.085748  0  3.880077  0
C  C117  1  0.48680505  0.31111948  0.77686000  1  0  0.109966  0  3.6305  0  0  0.088141  0  3.885304  0  0  0.091309  0  3.893308  0  0  0.006027  0.085781  0  3.879976  0
C  C118  1  0.01319390  0.81110908  0.77686082  1  0  0.109684  0  3.630695  0  0  0.088032  0  3.885299  0  0  0.091196  0  3.893312  0  0  0.005985  0.08569  0  3.879942  0
C  C119  1  0.51319272  0.68889492  0.22315111  1  0  0.11  0  3.630181  0  0  0.088408  0  3.884786  0  0  0.091581  0  3.892782  0  0  0.006072  0.086045  0  3.879459  0
Cl  Cl120  1  0.42219819  0.91594710  0.85197056  1  0  -0.096178  0  1.379279  0  0  -0.061233  0  1.605467  0  0  -0.06627  0  1.60245  0  0  0.024377  -0.056952  0  1.607692  0
Cl  Cl121  1  0.92220241  0.58404225  0.14803117  1  0  -0.096167  0  1.379039  0  0  -0.061245  0  1.605266  0  0  -0.066281  0  1.60225  0  0  0.024379  -0.056957  0  1.60749  0
Cl  Cl122  1  0.57779652  0.08404614  0.14802780  1  0  -0.096297  0  1.378857  0  0  -0.061366  0  1.605044  0  0  -0.066405  0  1.602028  0  0  0.024313  -0.057078  0  1.607267  0
Cl  Cl123  1  0.07780864  0.41595803  0.85197197  1  0  -0.095948  0  1.379568  0  0  -0.061022  0  1.605796  0  0  -0.066057  0  1.602783  0  0  0.024498  -0.056742  0  1.608014  0
O  O124  1  0.20135170  0.25675992  0.31615475  1  0  -0.591899  0  2.045876  0  0  -0.519079  0  2.280818  0  0  -0.545371  0  2.274732  0  0  -0.26982  -0.500674  0  2.28428  0
O  O125  1  0.70135847  0.24323972  0.68385100  1  0  -0.592  0  2.045886  0  0  -0.519277  0  2.280752  0  0  -0.545581  0  2.274675  0  0  -0.269928  -0.500844  0  2.284173  0
O  O126  1  0.79863993  0.74322881  0.68385394  1  0  -0.591892  0  2.045758  0  0  -0.519182  0  2.280768  0  0  -0.545489  0  2.274695  0  0  -0.269887  -0.500757  0  2.284176  0
O  O127  1  0.29864441  0.75677553  0.31616514  1  0  -0.591937  0  2.045364  0  0  -0.51927  0  2.280529  0  0  -0.545583  0  2.274457  0  0  -0.269895  -0.500846  0  2.283943  0
O  O128  1  0.03985511  0.20342258  0.41484587  1  0  -0.647358  0  2.06355  0  0  -0.580476  0  2.311228  0  0  -0.60671  0  2.305224  0  0  -0.285447  -0.561979  0  2.314885  0
O  O129  1  0.53986653  0.29657491  0.58514778  1  0  -0.647343  0  2.06405  0  0  -0.580523  0  2.311615  0  0  -0.606791  0  2.305688  0  0  -0.285425  -0.562006  0  2.315234  0
O  O130  1  0.96012733  0.79656268  0.58515294  1  0  -0.647406  0  2.063849  0  0  -0.58047  0  2.311418  0  0  -0.606706  0  2.305423  0  0  -0.285401  -0.561976  0  2.315064  0
O  O131  1  0.46014248  0.70343776  0.41485799  1  0  -0.647402  0  2.064023  0  0  -0.580487  0  2.311662  0  0  -0.60673  0  2.305683  0  0  -0.285363  -0.561979  0  2.315277  0
O  O132  1  0.06109801  0.15442399  0.11890476  1  0  -0.293742  0  2.31593  0  0  -0.221044  0  2.541873  0  0  -0.239827  0  2.546981  0  0  -0.168118  -0.207424  0  2.537934  0
O  O133  1  0.56109155  0.34558534  0.88108494  1  0  -0.293676  0  2.316499  0  0  -0.220791  0  2.542308  0  0  -0.239571  0  2.547413  0  0  -0.168011  -0.207164  0  2.53837  0
O  O134  1  0.93890589  0.84558163  0.88109544  1  0  -0.293607  0  2.316428  0  0  -0.220808  0  2.542266  0  0  -0.239588  0  2.54737  0  0  -0.168068  -0.207194  0  2.538326  0
O  O135  1  0.43889805  0.65443090  0.11891650  1  0  -0.293872  0  2.315605  0  0  -0.221163  0  2.541591  0  0  -0.239948  0  2.546692  0  0  -0.168153  -0.207541  0  2.537654  0
