# generated using pymatgen
data_CdH19C29(NO2)5
_symmetry_space_group_name_H-M   'P 1'
_cell_length_a   9.25413883
_cell_length_b   10.87969888
_cell_length_c   14.10000000
_cell_angle_alpha   87.86210683
_cell_angle_beta   72.90959969
_cell_angle_gamma   84.74054096
_symmetry_Int_Tables_number   1
_chemical_formula_structural   CdH19C29(NO2)5
_chemical_formula_sum   'Cd2 H38 C58 N10 O20'
_cell_volume   1351.13937492
_cell_formula_units_Z   2
loop_
 _symmetry_equiv_pos_site_id
 _symmetry_equiv_pos_as_xyz
  1  'x, y, z'
loop_
 _atom_site_type_symbol
 _atom_site_label
 _atom_site_symmetry_multiplicity
 _atom_site_fract_x
 _atom_site_fract_y
 _atom_site_fract_z
 _atom_site_occupancy
 _atom_site_hle17_bader_spin_density
 _atom_site_hle17_ddec_charge
 _atom_site_hle17_ddec_spin_density
 _atom_site_hle17_ddec_sum_bond_order
 _atom_site_hle17_magmom
 _atom_site_hse06_10hf_bader_spin_density
 _atom_site_hse06_10hf_ddec_charge
 _atom_site_hse06_10hf_ddec_spin_density
 _atom_site_hse06_10hf_ddec_sum_bond_order
 _atom_site_hse06_10hf_magmom
 _atom_site_hse06_bader_spin_density
 _atom_site_hse06_ddec_charge
 _atom_site_hse06_ddec_spin_density
 _atom_site_hse06_ddec_sum_bond_order
 _atom_site_hse06_magmom
 _atom_site_pbe_bader_charge
 _atom_site_pbe_bader_spin_density
 _atom_site_pbe_cm5_charge
 _atom_site_pbe_ddec_charge
 _atom_site_pbe_ddec_spin_density
 _atom_site_pbe_ddec_sum_bond_order
 _atom_site_pbe_magmom
Cd  Cd0  1  0.25472283  0.18025522  0.45596985  1  0  1.148455  0  1.678677  0  0  0.952442  0  2.126126  0  0  1.008988  0  2.07505  0  1.315423  0  0.786211  0.912422  0  2.160383  0
Cd  Cd1  1  0.74527087  0.81974748  0.54403122  1  0  1.148494  0  1.678601  0  0  0.952477  0  2.126026  0  0  1.009031  0  2.074943  0  1.31542  0  0.786208  0.912454  0  2.160282  0
H  H2  1  0.57098677  0.07923937  0.68899642  1  0  0.403772  0  0.88609  0  0  0.371131  0  0.966749  0  0  0.384394  0  0.952268  0  0.647405  0  0.299582  0.361738  0  0.976966  0
H  H3  1  0.42901426  0.92076886  0.31100378  1  0  0.403739  0  0.886149  0  0  0.371115  0  0.966778  0  0  0.384378  0  0.952297  0  0.64737  0  0.299574  0.361721  0  0.976998  0
H  H4  1  0.83713447  0.53009666  0.91238197  1  0  0.364479  0  0.912985  0  0  0.319975  0  1.018094  0  0  0.332533  0  1.005408  0  0.650924  0  0.295657  0.311147  0  1.026975  0
H  H5  1  0.16286639  0.46990235  0.08761782  1  0  0.364524  0  0.912896  0  0  0.320031  0  1.017999  0  0  0.332589  0  1.005313  0  0.650911  0  0.295673  0.311205  0  1.02688  0
H  H6  1  0.14295621  0.07758798  0.27650107  1  0  0.404202  0  0.881265  0  0  0.371984  0  0.96123  0  0  0.385472  0  0.946457  0  0.644107  0  0.304032  0.362515  0  0.971537  0
H  H7  1  0.85704078  0.92241565  0.72349934  1  0  0.404169  0  0.881274  0  0  0.371968  0  0.961213  0  0  0.385458  0  0.946437  0  0.644111  0  0.303999  0.362501  0  0.971517  0
H  H8  1  0.31517307  0.06702420  0.01634824  1  0  0.104154  0  0.959073  0  0  0.110932  0  1.028229  0  0  0.114777  0  1.024683  0  0.108871  0  0.109214  0.108336  0  1.030452  0
H  H9  1  0.68482769  0.93297573  0.98365296  1  0  0.104164  0  0.959125  0  0  0.110948  0  1.028267  0  0  0.114794  0  1.024719  0  0.108953  0  0.109224  0.108341  0  1.030503  0
H  H10  1  0.65851816  0.28661388  0.83678388  1  0  0.108769  0  0.948638  0  0  0.116115  0  1.014937  0  0  0.120045  0  1.011074  0  0.099347  0  0.110859  0.113427  0  1.017204  0
H  H11  1  0.34148458  0.71338882  0.16321969  1  0  0.108788  0  0.948578  0  0  0.116137  0  1.014879  0  0  0.120066  0  1.011016  0  0.099417  0  0.110911  0.11345  0  1.017145  0
H  H12  1  0.48825286  0.34607618  0.15130526  1  0  0.107376  0  0.963045  0  0  0.111561  0  1.034457  0  0  0.115914  0  1.030138  0  0.133447  0  0.108858  0.108731  0  1.036739  0
H  H13  1  0.51174659  0.65392560  0.84869757  1  0  0.107351  0  0.962956  0  0  0.11152  0  1.034407  0  0  0.115873  0  1.030089  0  0.133499  0  0.108843  0.108692  0  1.036685  0
H  H14  1  0.56391800  0.28669603  0.30104857  1  0  0.075414  0  0.921227  0  0  0.0861  0  0.98123  0  0  0.088496  0  0.978506  0  0.1116  0  0.119105  0.084199  0  0.983545  0
H  H15  1  0.43608541  0.71330021  0.69895507  1  0  0.075444  0  0.921204  0  0  0.086138  0  0.981215  0  0  0.088536  0  0.978486  0  0.111644  0  0.119099  0.084241  0  0.983523  0
H  H16  1  0.68151853  0.48564832  0.25195887  1  0  0.118955  0  0.95102  0  0  0.126669  0  1.012932  0  0  0.13001  0  1.011636  0  0.12584  0  0.111145  0.124233  0  1.014112  0
H  H17  1  0.31848017  0.51434977  0.74804137  1  0  0.118965  0  0.951074  0  0  0.12668  0  1.012977  0  0  0.130022  0  1.01168  0  0.12582  0  0.111162  0.124245  0  1.014155  0
H  H18  1  0.55188813  0.67899471  0.34625757  1  0  0.116147  0  0.940339  0  0  0.125438  0  1.001788  0  0  0.128893  0  0.998794  0  0.157369  0  0.111671  0.123022  0  1.003859  0
H  H19  1  0.44810831  0.32100337  0.65373884  1  0  0.116141  0  0.940271  0  0  0.125432  0  1.001724  0  0  0.128888  0  0.998728  0  0.157332  0  0.111654  0.123022  0  1.003792  0
H  H20  1  0.33702311  0.77481360  0.48067384  1  0  0.107103  0  0.962622  0  0  0.118156  0  1.02112  0  0  0.12031  0  1.021259  0  0.08128  0  0.104918  0.116775  0  1.020876  0
H  H21  1  0.66297653  0.22518633  0.51932829  1  0  0.107034  0  0.96266  0  0  0.118079  0  1.021168  0  0  0.120233  0  1.021308  0  0.08124  0  0.104888  0.1167  0  1.020921  0
H  H22  1  0.09816822  0.75380328  0.61708866  1  0  0.106947  0  0.963663  0  0  0.114545  0  1.028528  0  0  0.117789  0  1.027009  0  0.126316  0  0.103238  0.11245  0  1.02901  0
H  H23  1  0.90182906  0.24619757  0.38291177  1  0  0.107004  0  0.963718  0  0  0.114581  0  1.028588  0  0  0.117825  0  1.027069  0  0.126367  0  0.103253  0.112485  0  1.02907  0
H  H24  1  0.89353461  0.62342783  0.71064041  1  0  0.109283  0  0.95585  0  0  0.11807  0  1.019403  0  0  0.120761  0  1.017368  0  0.136657  0  0.110608  0.116229  0  1.020377  0
H  H25  1  0.10645927  0.37657302  0.28935783  1  0  0.109304  0  0.955842  0  0  0.118088  0  1.019405  0  0  0.12078  0  1.017371  0  0.136463  0  0.110631  0.116249  0  1.020375  0
H  H26  1  0.79116201  0.41692195  0.73931676  1  0  0.112291  0  0.961482  0  0  0.124038  0  1.017182  0  0  0.127155  0  1.015861  0  0.119029  0  0.110364  0.121883  0  1.017976  0
H  H27  1  0.20883442  0.58307614  0.26068321  1  0  0.112328  0  0.961474  0  0  0.12404  0  1.017212  0  0  0.127156  0  1.015892  0  0.119054  0  0.110378  0.121885  0  1.018008  0
H  H28  1  0.94080174  0.23759443  0.63777427  1  0  0.082419  0  0.943522  0  0  0.093227  0  1.002083  0  0  0.095091  0  1.000638  0  0.133569  0  0.118092  0.09155  0  1.003814  0
H  H29  1  0.05919695  0.76240366  0.36222525  1  0  0.082396  0  0.943609  0  0  0.093213  0  1.002162  0  0  0.095077  0  1.00072  0  0.133576  0  0.118115  0.091538  0  1.003888  0
H  H30  1  0.78638299  0.62449399  0.12397926  1  0  0.121874  0  0.973854  0  0  0.129911  0  1.036483  0  0  0.133361  0  1.034196  0  0.150648  0  0.106079  0.127588  0  1.037647  0
H  H31  1  0.21361778  0.37550594  0.87601982  1  0  0.12188  0  0.973841  0  0  0.129918  0  1.036459  0  0  0.133379  0  1.034159  0  0.150659  0  0.106077  0.127589  0  1.037631  0
H  H32  1  0.83395080  0.76975971  0.24522438  1  0  0.09781  0  0.943311  0  0  0.11021  0  0.998486  0  0  0.112866  0  0.998118  0  0.098215  0  0.101523  0.10809  0  0.999074  0
H  H33  1  0.16605572  0.23023929  0.75477219  1  0  0.097765  0  0.94327  0  0  0.110196  0  0.998416  0  0  0.112852  0  0.998047  0  0.098117  0  0.101491  0.108076  0  0.999004  0
H  H34  1  0.02397363  0.92134118  0.18923779  1  0  0.096857  0  0.953456  0  0  0.105714  0  1.016464  0  0  0.109216  0  1.013704  0  0.092329  0  0.100088  0.102915  0  1.018765  0
H  H35  1  0.97603647  0.07865598  0.81075673  1  0  0.096845  0  0.953534  0  0  0.105756  0  1.016486  0  0  0.109259  0  1.013721  0  0.091995  0  0.100118  0.102954  0  1.018793  0
H  H36  1  0.17072365  0.94129917  0.00964752  1  0  0.114653  0  0.964619  0  0  0.123776  0  1.026494  0  0  0.126927  0  1.024922  0  0.071096  0  0.10616  0.121578  0  1.027251  0
H  H37  1  0.82928457  0.05869429  0.99034533  1  0  0.114653  0  0.964496  0  0  0.123777  0  1.02639  0  0  0.126927  0  1.024836  0  0.071175  0  0.106181  0.121581  0  1.027143  0
H  H38  1  0.18813895  0.82677861  0.81882461  1  0  0.313334  0  0.833906  0  0  0.306942  0  0.873751  0  0  0.312922  0  0.87005  0  0.505042  0  0.36072  0.302501  0  0.876739  0
H  H39  1  0.81185900  0.17321578  0.18117091  1  0  0.31336  0  0.833952  0  0  0.306974  0  0.873787  0  0  0.312954  0  0.870087  0  0.504593  0  0.360711  0.302533  0  0.876776  0
C  C40  1  0.39045586  0.20326216  0.09498982  1  0  -0.080437  0  3.777649  0  0  -0.057119  0  4.020399  0  0  -0.069142  0  4.044037  0  -0.027379  0  -0.017262  -0.049478  0  4.003969  0
C  C41  1  0.60954255  0.79673869  0.90500897  1  0  -0.080396  0  3.777737  0  0  -0.057114  0  4.020457  0  0  -0.069136  0  4.044095  0  -0.027316  0  -0.017262  -0.049473  0  4.004026  0
C  C42  1  0.38905944  0.14069000  0.01084610  1  0  -0.027859  0  3.672549  0  0  -0.071996  0  3.926801  0  0  -0.066346  0  3.945091  0  -0.042688  0  -0.05968  -0.074659  0  3.913733  0
C  C43  1  0.61094359  0.85930993  0.98915325  1  0  -0.027836  0  3.672542  0  0  -0.072027  0  3.926726  0  0  -0.066378  0  3.945014  0  -0.042877  0  -0.059658  -0.074686  0  3.913652  0
C  C44  1  0.48492360  0.17117577  0.91782936  1  0  -0.084738  0  3.74721  0  0  -0.056481  0  3.982516  0  0  -0.068594  0  4.007273  0  0.035779  0  -0.013877  -0.048963  0  3.964949  0
C  C45  1  0.51508027  0.82882693  0.08216974  1  0  -0.08476  0  3.747146  0  0  -0.056296  0  3.982193  0  0  -0.06841  0  4.006951  0  0.036137  0  -0.013778  -0.048778  0  3.964625  0
C  C46  1  0.58279366  0.26485310  0.90919614  1  0  -0.020234  0  3.629553  0  0  -0.062805  0  3.880637  0  0  -0.055961  0  3.896311  0  -0.002511  0  -0.058198  -0.066507  0  3.867783  0
C  C47  1  0.41721012  0.73515053  0.09080579  1  0  -0.02016  0  3.629513  0  0  -0.062784  0  3.880612  0  0  -0.055931  0  3.896279  0  -0.002772  0  -0.058273  -0.066485  0  3.867756  0
C  C48  1  0.58400908  0.32812312  0.99375895  1  0  -0.083912  0  3.758939  0  0  -0.05825  0  3.997723  0  0  -0.069656  0  4.021179  0  -0.009323  0  -0.016273  -0.050761  0  3.981278  0
C  C49  1  0.41599253  0.67187958  0.00624272  1  0  -0.08401  0  3.758984  0  0  -0.058476  0  3.997916  0  0  -0.069882  0  4.021374  0  -0.009605  0  -0.016366  -0.050985  0  3.981471  0
C  C50  1  0.48738194  0.29677611  0.08586750  1  0  -0.027237  0  3.66927  0  0  -0.07071  0  3.920711  0  0  -0.063897  0  3.935377  0  -0.034031  0  -0.062977  -0.073587  0  3.908896  0
C  C51  1  0.51261637  0.70322567  0.91413696  1  0  -0.027159  0  3.669069  0  0  -0.070605  0  3.920587  0  0  -0.063792  0  3.935253  0  -0.034108  0  -0.062962  -0.073483  0  3.908773  0
C  C52  1  0.29616399  0.17255024  0.19612896  1  0  0.668669  0  3.794113  0  0  0.615583  0  4.092833  0  0  0.649982  0  4.084413  0  1.522173  0  0.234634  0.592376  0  4.09777  0
C  C53  1  0.70383309  0.82745246  0.80387217  1  0  0.668557  0  3.794371  0  0  0.615593  0  4.092896  0  0  0.649992  0  4.084476  0  1.522344  0  0.234699  0.592388  0  4.09783  0
C  C54  1  0.48035728  0.09876168  0.83082006  1  0  0.645747  0  3.842294  0  0  0.598971  0  4.139229  0  0  0.631363  0  4.132384  0  1.559905  0  0.223796  0.577109  0  4.143435  0
C  C55  1  0.51964452  0.90123918  0.16917808  1  0  0.645986  0  3.841968  0  0  0.599154  0  4.138872  0  0  0.631546  0  4.132025  0  1.559827  0  0.22386  0.577291  0  4.14308  0
C  C56  1  0.68631854  0.42694018  0.99431868  1  0  0.640799  0  3.838892  0  0  0.593236  0  4.135435  0  0  0.625611  0  4.129179  0  1.540473  0  0.226373  0.57062  0  4.140575  0
C  C57  1  0.31368052  0.57306529  0.00568482  1  0  0.640789  0  3.838725  0  0  0.59335  0  4.135162  0  0  0.625718  0  4.128916  0  1.540326  0  0.226499  0.570734  0  4.140303  0
C  C58  1  0.51213138  0.37158560  0.34018727  1  0  0.159136  0  3.704917  0  0  0.124997  0  3.966721  0  0  0.133907  0  3.982931  0  0.500605  0  0.060048  0.119119  0  3.956338  0
C  C59  1  0.48786855  0.62841156  0.65981772  1  0  0.159207  0  3.70491  0  0  0.125036  0  3.966697  0  0  0.133944  0  3.982911  0  0.500536  0  0.060113  0.119159  0  3.956316  0
C  C60  1  0.57734521  0.48405323  0.31293390  1  0  -0.113997  0  3.713669  0  0  -0.128116  0  3.97023  0  0  -0.134961  0  3.991083  0  -0.092881  0  -0.079573  -0.124057  0  3.957096  0
C  C61  1  0.42265358  0.51594393  0.68706634  1  0  -0.114125  0  3.713864  0  0  -0.128246  0  3.970437  0  0  -0.135091  0  3.991289  0  -0.092781  0  -0.079683  -0.124189  0  3.957306  0
C  C62  1  0.50596479  0.58935126  0.36414739  1  0  -0.033577  0  3.643157  0  0  -0.058171  0  3.891152  0  0  -0.055283  0  3.908037  0  0.028634  0  -0.058804  -0.060558  0  3.880995  0
C  C63  1  0.49403607  0.41064774  0.63585169  1  0  -0.033541  0  3.643213  0  0  -0.058112  0  3.891209  0  0  -0.055224  0  3.908093  0  0.028482  0  -0.058755  -0.06051  0  3.88107  0
C  C64  1  0.36992996  0.58122535  0.44210125  1  0  0.027082  0  3.783486  0  0  0.042453  0  4.015954  0  0  0.039647  0  4.040841  0  -0.041298  0  -0.001677  0.043864  0  4.001168  0
C  C65  1  0.63006864  0.41877365  0.55790039  1  0  0.027101  0  3.783333  0  0  0.042436  0  4.015901  0  0  0.03963  0  4.040788  0  -0.041523  0  -0.001674  0.043845  0  4.001116  0
C  C66  1  0.28991870  0.68588553  0.49885810  1  0  -0.098207  0  3.734023  0  0  -0.119094  0  3.987077  0  0  -0.122357  0  4.011248  0  -0.003615  0  -0.085634  -0.117671  0  3.971924  0
C  C67  1  0.71008000  0.31411255  0.50114355  1  0  -0.098064  0  3.733994  0  0  -0.118928  0  3.987036  0  0  -0.122191  0  4.011209  0  -0.003392  0  -0.085567  -0.117503  0  3.971878  0
C  C68  1  0.15907268  0.67427868  0.57375815  1  0  -0.108693  0  3.754611  0  0  -0.135794  0  4.019134  0  0  -0.139992  0  4.042965  0  -0.108604  0  -0.08812  -0.131379  0  4.00363  0
C  C69  1  0.84092612  0.32571848  0.42624280  1  0  -0.108862  0  3.754784  0  0  -0.135943  0  4.019279  0  0  -0.140142  0  4.043113  0  -0.108643  0  -0.088184  -0.131526  0  4.003775  0
C  C70  1  0.09547207  0.55787041  0.59572868  1  0  0.024817  0  3.796523  0  0  0.040989  0  4.030554  0  0  0.03845  0  4.055165  0  0.030656  0  -0.001897  0.041015  0  4.016339  0
C  C71  1  0.90452870  0.44212952  0.40427110  1  0  0.024846  0  3.796697  0  0  0.04104  0  4.030672  0  0  0.038503  0  4.055285  0  0.03068  0  -0.001906  0.041064  0  4.01646  0
C  C72  1  0.95581046  0.54370661  0.66844892  1  0  -0.026863  0  3.647685  0  0  -0.05557  0  3.901989  0  0  -0.052344  0  3.918009  0  -0.073921  0  -0.058404  -0.05674  0  3.891152  0
C  C73  1  0.04418588  0.45629240  0.33155103  1  0  -0.026954  0  3.647845  0  0  -0.055668  0  3.90216  0  0  -0.052441  0  3.918174  0  -0.073792  0  -0.058434  -0.056839  0  3.891325  0
C  C74  1  0.89829963  0.42958758  0.68360024  1  0  -0.104978  0  3.719174  0  0  -0.120062  0  3.976023  0  0  -0.126377  0  3.996084  0  -0.000728  0  -0.080925  -0.115761  0  3.961967  0
C  C75  1  0.10170000  0.57041235  0.31640047  1  0  -0.104971  0  3.719169  0  0  -0.120029  0  3.976039  0  0  -0.126339  0  3.996098  0  -0.000665  0  -0.080917  -0.115729  0  3.961986  0
C  C76  1  0.98112835  0.32950867  0.62690994  1  0  0.147782  0  3.71324  0  0  0.114461  0  3.971807  0  0  0.123011  0  3.989689  0  0.498802  0  0.056776  0.108338  0  3.960724  0
C  C77  1  0.01887139  0.67049034  0.37309078  1  0  0.147753  0  3.713408  0  0  0.114418  0  3.97199  0  0  0.122961  0  3.989879  0  0.498808  0  0.056703  0.108294  0  3.96091  0
C  C78  1  0.17105159  0.45190498  0.54092307  1  0  0.130029  0  3.75938  0  0  0.123179  0  3.994331  0  0  0.127601  0  4.017496  0  0.480432  0  0.115273  0.11953  0  3.980316  0
C  C79  1  0.82894918  0.54809495  0.45907955  1  0  0.13001  0  3.759348  0  0  0.123178  0  3.994303  0  0  0.127598  0  4.017469  0  0.480477  0  0.115312  0.119528  0  3.980291  0
C  C80  1  0.31234525  0.46343061  0.46384000  1  0  0.122117  0  3.775246  0  0  0.116783  0  4.01101  0  0  0.120812  0  4.03456  0  0.508728  0  0.115502  0.114314  0  3.996375  0
C  C81  1  0.68765655  0.53657024  0.53616310  1  0  0.122313  0  3.775053  0  0  0.116901  0  4.010914  0  0  0.120932  0  4.034464  0  0.508705  0  0.115559  0.114433  0  3.99628  0
C  C82  1  0.99727649  0.00703667  0.44530305  1  0  0.543181  0  3.907119  0  0  0.496964  0  4.202084  0  0  0.52656  0  4.195727  0  1.582834  0  0.205862  0.476929  0  4.20542  0
C  C83  1  0.00272457  0.99296049  0.55470102  1  0  0.543483  0  3.906962  0  0  0.497208  0  4.201989  0  0  0.526805  0  4.19563  0  1.600204  0  0.20603  0.477173  0  4.205325  0
C  C84  1  0.49736483  0.03925691  0.54570282  1  0  0.536295  0  3.908194  0  0  0.491234  0  4.199438  0  0  0.520962  0  4.192825  0  1.600657  0  0.206177  0.471176  0  4.20249  0
C  C85  1  0.50262499  0.96075040  0.45430028  1  0  0.536281  0  3.907985  0  0  0.491191  0  4.199259  0  0  0.520914  0  4.192648  0  1.576373  0  0.206116  0.471137  0  4.202311  0
C  C86  1  0.95090920  0.70462137  0.00064823  1  0  0.110396  0  3.798818  0  0  0.111086  0  4.04475  0  0  0.11055  0  4.068181  0  0.320108  0  0.094242  0.110276  0  4.03063  0
C  C87  1  0.04908846  0.29537579  0.99935153  1  0  0.110324  0  3.799018  0  0  0.111067  0  4.044864  0  0  0.110535  0  4.068301  0  0.319994  0  0.094282  0.110251  0  4.030736  0
C  C88  1  0.86842160  0.69327113  0.10124827  1  0  -0.122126  0  3.711838  0  0  -0.144457  0  3.96442  0  0  -0.145851  0  3.984532  0  -0.029257  0  -0.086217  -0.143306  0  3.950875  0
C  C89  1  0.13158030  0.30672880  0.89874988  1  0  -0.122064  0  3.711805  0  0  -0.144401  0  3.964342  0  0  -0.145802  0  3.98445  0  -0.029234  0  -0.086189  -0.143246  0  3.950801  0
C  C90  1  0.89692101  0.77321851  0.16667558  1  0  -0.063436  0  3.751158  0  0  -0.080712  0  4.009438  0  0  -0.084444  0  4.032691  0  -0.01821  0  -0.091979  -0.077932  0  3.993405  0
C  C91  1  0.10308212  0.22678050  0.83332094  1  0  -0.063417  0  3.7511  0  0  -0.080717  0  4.009395  0  0  -0.084451  0  4.032656  0  -0.018289  0  -0.091943  -0.077934  0  3.993356  0
C  C92  1  0.00510626  0.86151149  0.13455017  1  0  -0.045277  0  3.741308  0  0  -0.065635  0  4.000722  0  0  -0.066128  0  4.021855  0  -0.025248  0  -0.086771  -0.064955  0  3.985747  0
C  C93  1  0.99490054  0.13848475  0.86544501  1  0  -0.045383  0  3.741271  0  0  -0.065805  0  4.000736  0  0  -0.066294  0  4.021869  0  -0.024448  0  -0.086878  -0.065122  0  3.985757  0
C  C94  1  0.08748505  0.87396389  0.03563797  1  0  -0.155396  0  3.760606  0  0  -0.171022  0  4.01332  0  0  -0.176126  0  4.036051  0  0.040262  0  -0.090755  -0.168033  0  3.997345  0
C  C95  1  0.91251836  0.12603235  0.96435645  1  0  -0.155238  0  3.760302  0  0  -0.170913  0  4.013088  0  0  -0.176018  0  4.035805  0  0.039656  0  -0.090704  -0.167931  0  3.997102  0
C  C96  1  0.05720266  0.79415959  0.96947101  1  0  0.146889  0  3.811689  0  0  0.13466  0  4.058237  0  0  0.138753  0  4.081654  0  0.350602  0  0.10632  0.131855  0  4.043187  0
C  C97  1  0.94279746  0.20583572  0.03052336  1  0  0.146854  0  3.811816  0  0  0.134649  0  4.05832  0  0  0.138725  0  4.081763  0  0.350713  0  0.106215  0.131869  0  4.043239  0
N  N98  1  0.38418595  0.36152768  0.41290029  1  0  -0.353853  0  3.264656  0  0  -0.285057  0  3.526887  0  0  -0.304806  0  3.545993  0  -1.226136  0  -0.324113  -0.271364  0  3.513797  0
N  N99  1  0.61581143  0.63847225  0.58710440  1  0  -0.354081  0  3.264704  0  0  -0.285203  0  3.526906  0  0  -0.304954  0  3.546013  0  -1.225976  0  -0.324181  -0.271512  0  3.513818  0
N  N100  1  0.11282353  0.34047952  0.55756427  1  0  -0.367823  0  3.267785  0  0  -0.295848  0  3.532281  0  0  -0.316447  0  3.551719  0  -1.257636  0  -0.327261  -0.281558  0  3.520179  0
N  N101  1  0.88717827  0.65952133  0.44243671  1  0  -0.367755  0  3.267741  0  0  -0.29577  0  3.532237  0  0  -0.316366  0  3.551673  0  -1.257667  0  -0.327215  -0.281482  0  3.520138  0
N  N102  1  0.94934010  0.64225320  0.91732981  1  0  -0.242974  0  3.04659  0  0  -0.201937  0  3.321786  0  0  -0.209632  0  3.333654  0  -0.602132  0  -0.177138  -0.196978  0  3.314895  0
N  N103  1  0.05065756  0.35774396  0.08266782  1  0  -0.242977  0  3.046731  0  0  -0.201988  0  3.321941  0  0  -0.209676  0  3.333797  0  -0.602075  0  -0.177247  -0.197032  0  3.315051  0
N  N104  1  0.04573668  0.68738924  0.83906655  1  0  -0.020331  0  2.888989  0  0  -0.028159  0  3.184238  0  0  -0.021478  0  3.192972  0  -0.065715  0  -0.076655  -0.032798  0  3.178895  0
N  N105  1  0.95426230  0.31260607  0.16093088  1  0  -0.020352  0  2.888993  0  0  -0.02815  0  3.184201  0  0  -0.021471  0  3.192934  0  -0.065569  0  -0.07665  -0.032787  0  3.178859  0
N  N106  1  0.11112530  0.77850224  0.86924025  1  0  -0.214614  0  3.419367  0  0  -0.165857  0  3.671299  0  0  -0.178422  0  3.68402  0  -0.802192  0  -0.256139  -0.158018  0  3.663256  0
N  N107  1  0.88887378  0.22149215  0.13075577  1  0  -0.214625  0  3.41944  0  0  -0.165894  0  3.671377  0  0  -0.178453  0  3.6841  0  -0.801745  0  -0.256023  -0.158064  0  3.663327  0
O  O108  1  0.39817844  0.01356841  0.83877616  1  0  -0.565923  0  1.884729  0  0  -0.531759  0  2.093785  0  0  -0.55109  0  2.087337  0  -1.162723  0  -0.310603  -0.518788  0  2.0979  0
O  O109  1  0.60182976  0.98643613  0.16122135  1  0  -0.566097  0  1.884379  0  0  -0.531924  0  2.09344  0  0  -0.551254  0  2.086992  0  -1.162858  0  -0.31068  -0.51895  0  2.097553  0
O  O110  1  0.57478164  0.13514318  0.74524820  1  0  -0.561753  0  2.075996  0  0  -0.513691  0  2.295768  0  0  -0.535577  0  2.280619  0  -1.173957  0  -0.342386  -0.498297  0  2.30554  0
O  O111  1  0.42522420  0.86486228  0.25475186  1  0  -0.561828  0  2.07608  0  0  -0.513779  0  2.295846  0  0  -0.53567  0  2.280695  0  -1.17384  0  -0.342397  -0.498386  0  2.305621  0
O  O112  1  0.76816462  0.46371492  0.90508926  1  0  -0.544095  0  2.145639  0  0  -0.489536  0  2.37933  0  0  -0.51328  0  2.368866  0  -1.18566  0  -0.325725  -0.472861  0  2.386339  0
O  O113  1  0.23183757  0.53628224  0.09490962  1  0  -0.544063  0  2.145656  0  0  -0.489535  0  2.379307  0  0  -0.513278  0  2.368847  0  -1.185296  0  -0.325715  -0.472856  0  2.386301  0
O  O114  1  0.69211406  0.46940296  0.07284594  1  0  -0.557638  0  1.950759  0  0  -0.521834  0  2.174286  0  0  -0.542592  0  2.169314  0  -1.159216  0  -0.293074  -0.507323  0  2.17748  0
O  O115  1  0.30788293  0.53060066  0.92715376  1  0  -0.557708  0  1.950479  0  0  -0.521953  0  2.173961  0  0  -0.542713  0  2.168992  0  -1.159105  0  -0.293174  -0.507443  0  2.177154  0
O  O116  1  0.30942677  0.22471094  0.26965309  1  0  -0.59223  0  2.026995  0  0  -0.538974  0  2.272322  0  0  -0.563116  0  2.263041  0  -1.163154  0  -0.29217  -0.521966  0  2.27765  0
O  O117  1  0.69057380  0.77529083  0.73034951  1  0  -0.592245  0  2.027143  0  0  -0.539032  0  2.272403  0  0  -0.563171  0  2.26312  0  -1.163106  0  -0.292244  -0.522022  0  2.277724  0
O  O118  1  0.19912771  0.08797913  0.20196760  1  0  -0.541758  0  2.073576  0  0  -0.493874  0  2.296453  0  0  -0.516242  0  2.282382  0  -1.152126  0  -0.326838  -0.478115  0  2.305263  0
O  O119  1  0.80086805  0.91202541  0.79803372  1  0  -0.54167  0  2.073568  0  0  -0.49381  0  2.296354  0  0  -0.516183  0  2.28229  0  -1.152349  0  -0.326781  -0.478049  0  2.305159  0
O  O120  1  0.41268092  0.13765951  0.56263750  1  0  -0.565018  0  2.03185  0  0  -0.516625  0  2.279009  0  0  -0.54038  0  2.269388  0  -1.158013  0  -0.304317  -0.499395  0  2.284409  0
O  O121  1  0.58730599  0.86234319  0.43736771  1  0  -0.565098  0  2.031674  0  0  -0.51668  0  2.278842  0  0  -0.540436  0  2.269224  0  -1.157731  0  -0.304336  -0.499433  0  2.284202  0
O  O122  1  0.58384540  0.99748637  0.59783593  1  0  -0.604952  0  2.121704  0  0  -0.535858  0  2.362001  0  0  -0.564254  0  2.351927  0  -1.162215  0  -0.308825  -0.515996  0  2.367855  0
O  O123  1  0.41615111  0.00252187  0.40216302  1  0  -0.604911  0  2.121744  0  0  -0.535803  0  2.362028  0  0  -0.564187  0  2.351948  0  -1.162056  0  -0.308799  -0.515941  0  2.367883  0
O  O124  1  0.08716388  0.08159508  0.39084908  1  0  -0.622494  0  2.15972  0  0  -0.551164  0  2.402006  0  0  -0.579769  0  2.391522  0  -1.168705  0  -0.310046  -0.530841  0  2.408044  0
O  O125  1  0.91283594  0.91840300  0.60915236  1  0  -0.622562  0  2.159686  0  0  -0.551245  0  2.402013  0  0  -0.579851  0  2.391527  0  -1.168337  0  -0.310078  -0.530926  0  2.408055  0
O  O126  1  0.90852178  0.94728537  0.41694956  1  0  -0.564821  0  2.003708  0  0  -0.515366  0  2.237773  0  0  -0.538593  0  2.228538  0  -1.156983  0  -0.308847  -0.49922  0  2.243477  0
O  O127  1  0.09148031  0.05271271  0.58305357  1  0  -0.56493  0  2.003673  0  0  -0.515459  0  2.23777  0  0  -0.538685  0  2.228535  0  -1.156731  0  -0.30889  -0.499311  0  2.243475  0
