# generated using pymatgen
data_Zn4H24C24N2O15
_symmetry_space_group_name_H-M   'P 1'
_cell_length_a   11.19370716
_cell_length_b   11.35481826
_cell_length_c   11.63336105
_cell_angle_alpha   71.31415528
_cell_angle_beta   69.53124139
_cell_angle_gamma   84.41105122
_symmetry_Int_Tables_number   1
_chemical_formula_structural   Zn4H24C24N2O15
_chemical_formula_sum   'Zn8 H48 C48 N4 O30'
_cell_volume   1312.07601089
_cell_formula_units_Z   2
loop_
 _symmetry_equiv_pos_site_id
 _symmetry_equiv_pos_as_xyz
  1  'x, y, z'
loop_
 _atom_site_type_symbol
 _atom_site_label
 _atom_site_symmetry_multiplicity
 _atom_site_fract_x
 _atom_site_fract_y
 _atom_site_fract_z
 _atom_site_occupancy
 _atom_site_hle17_bader_spin_density
 _atom_site_hle17_ddec_charge
 _atom_site_hle17_ddec_spin_density
 _atom_site_hle17_ddec_sum_bond_order
 _atom_site_hle17_magmom
 _atom_site_hse06_10hf_bader_spin_density
 _atom_site_hse06_10hf_ddec_charge
 _atom_site_hse06_10hf_ddec_spin_density
 _atom_site_hse06_10hf_ddec_sum_bond_order
 _atom_site_hse06_10hf_magmom
 _atom_site_hse06_bader_spin_density
 _atom_site_hse06_ddec_charge
 _atom_site_hse06_ddec_spin_density
 _atom_site_hse06_ddec_sum_bond_order
 _atom_site_hse06_magmom
 _atom_site_pbe_bader_spin_density
 _atom_site_pbe_cm5_charge
 _atom_site_pbe_ddec_charge
 _atom_site_pbe_ddec_spin_density
 _atom_site_pbe_ddec_sum_bond_order
 _atom_site_pbe_magmom
Zn  Zn0  1  0.00635987  0.16764797  0.46531124  1  0  1.21922  0  1.718709  0  0  1.064725  0  2.164715  0  0  1.111757  0  2.103756  0  0  0.673744  1.031341  0  2.206846  0
Zn  Zn1  1  0.31759672  0.28554487  0.37818953  1  0  1.130228  0  1.729207  0  0  0.964567  0  2.165968  0  0  1.013571  0  2.109148  0  0  0.652823  0.929969  0  2.204981  0
Zn  Zn2  1  0.09482448  0.25915784  0.65823382  1  0  1.143554  0  1.735231  0  0  0.978579  0  2.173227  0  0  1.027968  0  2.115545  0  0  0.660409  0.943638  0  2.212892  0
Zn  Zn3  1  0.38846021  0.37546877  0.57419283  1  0  1.189199  0  1.724392  0  0  1.023998  0  2.181502  0  0  1.07409  0  2.116893  0  0  0.681346  0.9884  0  2.226322  0
Zn  Zn4  1  0.53273198  0.66124980  0.47246459  1  0  1.190738  0  1.71621  0  0  1.026884  0  2.170489  0  0  1.076603  0  2.106814  0  0  0.681509  0.991573  0  2.214632  0
Zn  Zn5  1  0.82775357  0.78605391  0.38303103  1  0  1.142653  0  1.735806  0  0  0.978099  0  2.175029  0  0  1.027178  0  2.117297  0  0  0.654953  0.943376  0  2.214709  0
Zn  Zn6  1  0.60529828  0.76041318  0.66319284  1  0  1.130986  0  1.723205  0  0  0.964942  0  2.157715  0  0  1.014484  0  2.100836  0  0  0.659124  0.929943  0  2.196808  0
Zn  Zn7  1  0.91642774  0.86797540  0.58084362  1  0  1.216736  0  1.729738  0  0  1.062889  0  2.177165  0  0  1.109723  0  2.115992  0  0  0.672524  1.029651  0  2.21946  0
H  H8  1  0.20291653  0.08242234  0.53837716  1  0  0.407987  0  0.894362  0  0  0.377415  0  0.962816  0  0  0.387227  0  0.948713  0  0  0.2817  0.370376  0  0.972923  0
H  H9  1  0.20472451  0.47016265  0.50448961  1  0  0.415578  0  0.893367  0  0  0.380883  0  0.9646  0  0  0.392104  0  0.948485  0  0  0.277175  0.372895  0  0.97604  0
H  H10  1  0.71605825  0.57174361  0.54492202  1  0  0.41462  0  0.894344  0  0  0.382329  0  0.961855  0  0  0.392539  0  0.947302  0  0  0.27933  0.375044  0  0.972223  0
H  H11  1  0.71908794  0.95981833  0.50906469  1  0  0.410338  0  0.888844  0  0  0.380079  0  0.95477  0  0  0.390673  0  0.939465  0  0  0.281157  0.372462  0  0.965759  0
H  H12  1  0.34223222  0.48921583  0.99077269  1  0  0.118754  0  0.934071  0  0  0.127485  0  0.996743  0  0  0.132016  0  0.992546  0  0  0.110109  0.124178  0  0.999869  0
H  H13  1  0.97171880  0.32136933  0.12326637  1  0  0.113112  0  0.936399  0  0  0.12481  0  0.99471  0  0  0.128212  0  0.992625  0  0  0.110008  0.122307  0  0.996299  0
H  H14  1  0.16030881  0.50274121  0.71703896  1  0  0.104904  0  0.984271  0  0  0.109396  0  1.058217  0  0  0.113513  0  1.054267  0  0  0.105299  0.106393  0  1.061169  0
H  H15  1  0.92215435  0.26634444  0.94674449  1  0  0.080749  0  0.905963  0  0  0.100821  0  0.963951  0  0  0.101163  0  0.96354  0  0  0.113678  0.100494  0  0.964321  0
H  H16  1  0.85305837  0.41437633  0.94127462  1  0  0.057975  0  0.948822  0  0  0.075921  0  1.012625  0  0  0.075333  0  1.014369  0  0  0.099578  0.076241  0  1.011531  0
H  H17  1  0.81231572  0.26102873  0.79383344  1  0  0.072162  0  0.931599  0  0  0.087271  0  0.984843  0  0  0.087852  0  0.985823  0  0  0.116596  0.086826  0  0.984254  0
H  H18  1  0.69211776  0.42153577  0.89445950  1  0  0.102089  0  0.957653  0  0  0.124164  0  1.019715  0  0  0.125488  0  1.019597  0  0  0.088064  0.123149  0  1.019883  0
H  H19  1  0.63765336  0.40867451  0.77307374  1  0  0.120966  0  0.935633  0  0  0.143409  0  0.993371  0  0  0.145105  0  0.992762  0  0  0.095346  0.142167  0  0.993832  0
H  H20  1  0.73739242  0.53506380  0.74050216  1  0  0.115225  0  0.982166  0  0  0.135569  0  1.043299  0  0  0.137563  0  1.042551  0  0  0.091259  0.134041  0  1.044016  0
H  H21  1  0.57070734  0.56262050  0.05516292  1  0  0.119653  0  0.930316  0  0  0.128573  0  0.992185  0  0  0.133039  0  0.988036  0  0  0.113023  0.125333  0  0.995232  0
H  H22  1  0.75347492  0.53267434  0.33078003  1  0  0.097881  0  0.991769  0  0  0.104549  0  1.063219  0  0  0.108676  0  1.059026  0  0  0.105086  0.101579  0  1.066267  0
H  H23  1  0.94619684  0.71947511  0.92578184  1  0  0.115088  0  0.930426  0  0  0.126434  0  0.988024  0  0  0.130241  0  0.985409  0  0  0.110539  0.123652  0  0.989978  0
H  H24  1  0.05822641  0.59820997  0.12255336  1  0  0.058487  0  0.959618  0  0  0.07577  0  1.023033  0  0  0.075021  0  1.024998  0  0  0.100223  0.076245  0  1.021753  0
H  H25  1  0.01195715  0.75545254  0.09967378  1  0  0.080314  0  0.904874  0  0  0.101074  0  0.958325  0  0  0.101251  0  0.958442  0  0  0.113008  0.100882  0  0.958323  0
H  H26  1  0.10042503  0.52590903  0.34456131  1  0  0.076854  0  0.919817  0  0  0.086763  0  0.980644  0  0  0.088594  0  0.980103  0  0  0.112274  0.085413  0  0.981181  0
H  H27  1  0.22318034  0.67504026  0.14114921  1  0  0.105884  0  0.952112  0  0  0.125957  0  1.015899  0  0  0.127502  0  1.01575  0  0  0.091526  0.12483  0  1.016025  0
H  H28  1  0.26626717  0.69077086  0.26817016  1  0  0.121363  0  0.933906  0  0  0.143352  0  0.990042  0  0  0.145285  0  0.989236  0  0  0.097743  0.141924  0  0.990683  0
H  H29  1  0.16535927  0.80311584  0.20217945  1  0  0.107238  0  0.97434  0  0  0.124648  0  1.041675  0  0  0.125408  0  1.043339  0  0  0.087939  0.124026  0  1.040599  0
H  H30  1  0.08060844  0.08050393  0.02873416  1  0  0.115995  0  0.932681  0  0  0.124833  0  0.996138  0  0  0.128947  0  0.992437  0  0  0.111439  0.121826  0  0.998889  0
H  H31  1  0.24230986  0.04150227  0.32296922  1  0  0.102182  0  0.978616  0  0  0.109201  0  1.047971  0  0  0.113409  0  1.043828  0  0  0.106963  0.106088  0  1.051127  0
H  H32  1  0.45564588  0.22929924  0.92468687  1  0  0.10847  0  0.937372  0  0  0.120145  0  0.996286  0  0  0.123691  0  0.993945  0  0  0.108314  0.117573  0  0.998005  0
H  H33  1  0.55294910  0.09472217  0.13007108  1  0  0.057675  0  0.952337  0  0  0.075659  0  1.015026  0  0  0.074837  0  1.017066  0  0  0.099857  0.076188  0  1.01369  0
H  H34  1  0.51432629  0.25414813  0.10216633  1  0  0.07843  0  0.908162  0  0  0.098988  0  0.962937  0  0  0.099194  0  0.963077  0  0  0.112428  0.098764  0  0.962949  0
H  H35  1  0.58874682  0.02618033  0.35199753  1  0  0.075515  0  0.923419  0  0  0.084269  0  0.985413  0  0  0.086167  0  0.984813  0  0  0.110371  0.08284  0  0.986063  0
H  H36  1  0.71735130  0.17068443  0.15280166  1  0  0.105633  0  0.952698  0  0  0.126187  0  1.01508  0  0  0.127775  0  1.014906  0  0  0.090732  0.125038  0  1.015212  0
H  H37  1  0.75476723  0.19500641  0.27943486  1  0  0.126109  0  0.95503  0  0  0.146194  0  1.014884  0  0  0.148477  0  1.013738  0  0  0.095115  0.144486  0  1.015782  0
H  H38  1  0.65568586  0.30197265  0.20641044  1  0  0.105483  0  0.982172  0  0  0.123304  0  1.048996  0  0  0.12406  0  1.050709  0  0  0.086748  0.122698  0  1.047887  0
H  H39  1  0.83537865  0.96907015  0.01683220  1  0  0.117857  0  0.932313  0  0  0.125824  0  0.996201  0  0  0.130263  0  0.992158  0  0  0.109658  0.122582  0  0.9992  0
H  H40  1  0.46185454  0.81546936  0.12513412  1  0  0.107278  0  0.944654  0  0  0.118334  0  1.005873  0  0  0.121582  0  1.003887  0  0  0.107288  0.115952  0  1.007387  0
H  H41  1  0.67457927  0.99193285  0.72430001  1  0  0.10587  0  0.973818  0  0  0.111966  0  1.04553  0  0  0.116044  0  1.041652  0  0  0.106105  0.108943  0  1.048484  0
H  H42  1  0.41868659  0.76935305  0.94387374  1  0  0.081747  0  0.906695  0  0  0.100876  0  0.965116  0  0  0.101341  0  0.964665  0  0  0.113194  0.100458  0  0.965539  0
H  H43  1  0.35836774  0.92145291  0.93246355  1  0  0.056407  0  0.950632  0  0  0.074689  0  1.013151  0  0  0.074042  0  1.014978  0  0  0.099047  0.075061  0  1.012003  0
H  H44  1  0.31885571  0.76892338  0.78176528  1  0  0.069503  0  0.932991  0  0  0.084279  0  0.986809  0  0  0.084874  0  0.987741  0  0  0.114491  0.083774  0  0.986324  0
H  H45  1  0.20492288  0.93631240  0.87586348  1  0  0.103723  0  0.956244  0  0  0.1261  0  1.017321  0  0  0.127454  0  1.017141  0  0  0.087775  0.12505  0  1.01753  0
H  H46  1  0.15204777  0.92184170  0.75467792  1  0  0.120491  0  0.949285  0  0  0.144134  0  1.006159  0  0  0.145699  0  1.005796  0  0  0.094782  0.142936  0  1.006505  0
H  H47  1  0.25711374  0.04591554  0.71962640  1  0  0.115486  0  0.982179  0  0  0.134141  0  1.046896  0  0  0.136125  0  1.046277  0  0  0.08963  0.132621  0  1.047529  0
H  H48  1  0.11660472  0.73358185  0.58492690  1  0  0.415683  0  0.881198  0  0  0.385346  0  0.948528  0  0  0.395934  0  0.933088  0  0  0.290659  0.377889  0  0.959382  0
H  H49  1  0.80399470  0.30277450  0.46279401  1  0  0.415507  0  0.878995  0  0  0.386142  0  0.946294  0  0  0.396205  0  0.9316  0  0  0.293756  0.37898  0  0.956735  0
H  H50  1  0.17636878  0.86505985  0.56065452  1  0  0.419386  0  0.886783  0  0  0.390066  0  0.947523  0  0  0.399887  0  0.933337  0  0  0.291309  0.383174  0  0.957462  0
H  H51  1  0.74385630  0.17132852  0.49070014  1  0  0.423782  0  0.880219  0  0  0.394405  0  0.940622  0  0  0.404209  0  0.926477  0  0  0.293168  0.387511  0  0.950555  0
H  H52  1  0.98359783  0.47506058  0.70650474  1  0  0.257359  0  0.905176  0  0  0.251366  0  0.957516  0  0  0.256193  0  0.955149  0  0  0.29571  0.247907  0  0.959319  0
H  H53  1  0.49828488  0.97558244  0.70050036  1  0  0.26086  0  0.926903  0  0  0.252174  0  0.981669  0  0  0.257779  0  0.97852  0  0  0.290186  0.248175  0  0.984017  0
H  H54  1  0.90110072  0.56687507  0.34948973  1  0  0.245807  0  0.936925  0  0  0.236463  0  0.996887  0  0  0.241682  0  0.993498  0  0  0.290434  0.2327  0  0.999432  0
H  H55  1  0.39310665  0.06739066  0.35216120  1  0  0.25108  0  0.954516  0  0  0.240631  0  1.014774  0  0  0.24661  0  1.010569  0  0  0.287645  0.236418  0  1.017741  0
C  C56  1  0.37845380  0.56289714  0.73722464  1  0  0.66515  0  3.859338  0  0  0.611001  0  4.149245  0  0  0.646173  0  4.142114  0  0  0.21787  0.58699  0  4.153502  0
C  C57  1  0.26036661  0.50405666  0.84379952  1  0  -0.077241  0  3.782689  0  0  -0.05057  0  4.021698  0  0  -0.060774  0  4.046372  0  0  -0.02441  -0.043973  0  4.005091  0
C  C58  1  0.25949790  0.46975155  0.97069107  1  0  -0.070583  0  3.70353  0  0  -0.114482  0  3.960257  0  0  -0.111456  0  3.977987  0  0  -0.078176  -0.116214  0  3.948272  0
C  C59  1  0.15451607  0.40424292  0.07074000  1  0  -0.078508  0  3.787527  0  0  -0.051796  0  4.025678  0  0  -0.060952  0  4.049034  0  0  -0.022338  -0.045968  0  4.01001  0
C  C60  1  0.15700107  0.35114083  0.20589662  1  0  0.665822  0  3.903997  0  0  0.610341  0  4.201373  0  0  0.645381  0  4.194414  0  0  0.216926  0.586522  0  4.205422  0
C  C61  1  0.05083930  0.37522430  0.04322839  1  0  -0.091168  0  3.668926  0  0  -0.127364  0  3.919026  0  0  -0.126134  0  3.938265  0  0  -0.073752  -0.127821  0  3.905921  0
C  C62  1  0.05051681  0.40915814  0.91659873  1  0  0.075125  0  3.723277  0  0  0.098659  0  3.968756  0  0  0.096093  0  3.992952  0  0  -0.006026  0.10011  0  3.952397  0
C  C63  1  0.15544319  0.47542879  0.81721360  1  0  -0.101326  0  3.674535  0  0  -0.138142  0  3.923733  0  0  -0.136354  0  3.941616  0  0  -0.083731  -0.139072  0  3.911699  0
C  C64  1  0.93839602  0.36658026  0.89553667  1  0  0.007811  0  3.658151  0  0  -0.057546  0  3.918838  0  0  -0.052807  0  3.930403  0  0  -0.062001  -0.060587  0  3.910796  0
C  C65  1  0.83445719  0.36061550  0.74237207  1  0  0.041651  0  3.655036  0  0  0.030518  0  3.895518  0  0  0.029528  0  3.910214  0  0  -0.008429  0.031127  0  3.885408  0
C  C66  1  0.71945639  0.43578538  0.79070304  1  0  -0.329353  0  3.705584  0  0  -0.416261  0  3.950515  0  0  -0.418038  0  3.959284  0  0  -0.255626  -0.414722  0  3.944464  0
C  C67  1  0.86692888  0.37280569  0.59949277  1  0  0.658105  0  3.800484  0  0  0.603551  0  4.099693  0  0  0.636272  0  4.093241  0  0  0.221606  0.581258  0  4.103455  0
C  C68  1  0.75783819  0.69765808  0.84265489  1  0  0.665518  0  3.908725  0  0  0.609057  0  4.202965  0  0  0.644104  0  4.19642  0  0  0.21794  0.585297  0  4.206685  0
C  C69  1  0.75998204  0.64384772  0.97733278  1  0  -0.070804  0  3.775905  0  0  -0.045196  0  4.015616  0  0  -0.054417  0  4.039605  0  0  -0.018601  -0.039327  0  3.999524  0
C  C70  1  0.65387826  0.57927352  0.07615150  1  0  -0.06707  0  3.697931  0  0  -0.110482  0  3.955944  0  0  -0.107354  0  3.972962  0  0  -0.075406  -0.112308  0  3.944469  0
C  C71  1  0.65380733  0.54082741  0.20260960  1  0  -0.07292  0  3.808355  0  0  -0.047099  0  4.045531  0  0  -0.056835  0  4.069577  0  0  -0.022313  -0.0408  0  4.029354  0
C  C72  1  0.53868281  0.47777853  0.30882018  1  0  0.67686  0  3.847337  0  0  0.623977  0  4.130974  0  0  0.659376  0  4.123581  0  0  0.223391  0.599799  0  4.135416  0
C  C73  1  0.75933433  0.56491930  0.23017494  1  0  -0.108846  0  3.694479  0  0  -0.145421  0  3.941594  0  0  -0.144331  0  3.960207  0  0  -0.084079  -0.145906  0  3.929069  0
C  C74  1  0.86576823  0.62933581  0.13204463  1  0  0.073085  0  3.742325  0  0  0.097194  0  3.985851  0  0  0.094658  0  4.010566  0  0  -0.006763  0.098631  0  3.969196  0
C  C75  1  0.86545844  0.66751245  0.00523829  1  0  -0.091497  0  3.664165  0  0  -0.12747  0  3.913961  0  0  -0.126635  0  3.933476  0  0  -0.072356  -0.127665  0  3.900692  0
C  C76  1  0.98036362  0.65919692  0.15737130  1  0  0.004913  0  3.670399  0  0  -0.055719  0  3.923782  0  0  -0.051353  0  3.93594  0  0  -0.063464  -0.058602  0  3.915433  0
C  C77  1  0.07354915  0.62436064  0.32943815  1  0  0.048602  0  3.604218  0  0  0.036183  0  3.85021  0  0  0.035174  0  3.863385  0  0  -0.002523  0.036786  0  3.841166  0
C  C78  1  0.18870838  0.70418347  0.22827438  1  0  -0.316144  0  3.655311  0  0  -0.397302  0  3.896473  0  0  -0.399712  0  3.906186  0  0  -0.241313  -0.39532  0  3.889706  0
C  C79  1  0.04705092  0.65005144  0.45721622  1  0  0.665903  0  3.80247  0  0  0.610039  0  4.105328  0  0  0.643093  0  4.09861  0  0  0.221768  0.587564  0  4.10922  0
C  C80  1  0.27569212  0.21689722  0.82636657  1  0  0.67157  0  3.872551  0  0  0.616742  0  4.162435  0  0  0.652533  0  4.155621  0  0  0.222099  0.592424  0  4.166343  0
C  C81  1  0.27052351  0.15823297  0.96301002  1  0  -0.074839  0  3.770285  0  0  -0.047949  0  4.008244  0  0  -0.057798  0  4.032732  0  0  -0.019286  -0.041653  0  3.991824  0
C  C82  1  0.16020939  0.09428283  0.05668645  1  0  -0.067041  0  3.685873  0  0  -0.110676  0  3.944219  0  0  -0.107361  0  3.961557  0  0  -0.074735  -0.112628  0  3.932523  0
C  C83  1  0.15131136  0.05410172  0.18613155  1  0  -0.068779  0  3.775552  0  0  -0.042806  0  4.013556  0  0  -0.051984  0  4.036766  0  0  -0.018154  -0.036908  0  3.99796  0
C  C84  1  0.03290509  0.99148444  0.29036606  1  0  0.690583  0  3.821182  0  0  0.638095  0  4.107042  0  0  0.673945  0  4.098269  0  0  0.227646  0.613608  0  4.112443  0
C  C85  1  0.25376723  0.07409635  0.22093629  1  0  -0.10265  0  3.684233  0  0  -0.139058  0  3.930561  0  0  -0.137794  0  3.948484  0  0  -0.081512  -0.139665  0  3.918539  0
C  C86  1  0.36467653  0.13557733  0.12823618  1  0  0.07257  0  3.742741  0  0  0.097043  0  3.985801  0  0  0.094625  0  4.010225  0  0  -0.006714  0.098416  0  3.969334  0
C  C87  1  0.37183871  0.17754889  0.99909738  1  0  -0.089362  0  3.673789  0  0  -0.12656  0  3.922703  0  0  -0.125508  0  3.942337  0  0  -0.073469  -0.126929  0  3.909358  0
C  C88  1  0.47720350  0.15956405  0.16029184  1  0  0.008418  0  3.669237  0  0  -0.053405  0  3.922861  0  0  -0.049094  0  3.935274  0  0  -0.06262  -0.056275  0  3.914422  0
C  C89  1  0.56274047  0.12482623  0.33697176  1  0  0.047605  0  3.597935  0  0  0.038075  0  3.838858  0  0  0.037092  0  3.852328  0  0  -0.004248  0.038667  0  3.829618  0
C  C90  1  0.67933908  0.20355499  0.23751393  1  0  -0.325441  0  3.658757  0  0  -0.405899  0  3.895734  0  0  -0.408646  0  3.905333  0  0  -0.247413  -0.403714  0  3.889124  0
C  C91  1  0.53164214  0.14640444  0.46786172  1  0  0.680056  0  3.777935  0  0  0.622227  0  4.084696  0  0  0.655671  0  4.07711  0  0  0.224402  0.599448  0  4.089213  0
C  C92  1  0.88661784  0.04672925  0.75541375  1  0  0.681555  0  3.824363  0  0  0.627942  0  4.11542  0  0  0.66357  0  4.106903  0  0  0.223851  0.603606  0  4.120645  0
C  C93  1  0.76572988  0.98809988  0.85996516  1  0  -0.073569  0  3.757706  0  0  -0.048421  0  3.998825  0  0  -0.058107  0  4.022945  0  0  -0.021289  -0.042177  0  3.982611  0
C  C94  1  0.75597783  0.95279362  0.98982360  1  0  -0.07327  0  3.689972  0  0  -0.115006  0  3.946327  0  0  -0.112132  0  3.964262  0  0  -0.077643  -0.116645  0  3.934203  0
C  C95  1  0.64570261  0.89000605  0.08500421  1  0  -0.077168  0  3.772008  0  0  -0.050912  0  4.010562  0  0  -0.060388  0  4.034375  0  0  -0.0215  -0.044843  0  3.994582  0
C  C96  1  0.64017993  0.83446762  0.22275265  1  0  0.672256  0  3.86336  0  0  0.618013  0  4.158359  0  0  0.653658  0  4.151227  0  0  0.221076  0.593738  0  4.162544  0
C  C97  1  0.54517258  0.86697491  0.04954146  1  0  -0.092678  0  3.673281  0  0  -0.129459  0  3.92306  0  0  -0.1283  0  3.942551  0  0  -0.075235  -0.12991  0  3.909857  0
C  C98  1  0.55270107  0.90345992  0.92024634  1  0  0.077401  0  3.723357  0  0  0.101587  0  3.966535  0  0  0.099436  0  3.990375  0  0  -0.004579  0.102771  0  3.950453  0
C  C99  1  0.66350607  0.96443580  0.82615884  1  0  -0.100527  0  3.671323  0  0  -0.137598  0  3.919333  0  0  -0.136087  0  3.937281  0  0  -0.082203  -0.138359  0  3.907284  0
C  C100  1  0.44166033  0.86856341  0.89164351  1  0  0.009224  0  3.658546  0  0  -0.05487  0  3.915041  0  0  -0.050224  0  3.92696  0  0  -0.061676  -0.057925  0  3.906886  0
C  C101  1  0.34661610  0.86732079  0.72996738  1  0  0.043534  0  3.642517  0  0  0.033291  0  3.880946  0  0  0.032469  0  3.895679  0  0  -0.007661  0.033804  0  3.870753  0
C  C102  1  0.23429701  0.94770120  0.77249437  1  0  -0.335157  0  3.704493  0  0  -0.422655  0  3.94785  0  0  -0.42448  0  3.956556  0  0  -0.259529  -0.421068  0  3.941875  0
C  C103  1  0.38602636  0.87990478  0.58562792  1  0  0.673721  0  3.771056  0  0  0.61635  0  4.074233  0  0  0.649865  0  4.066739  0  0  0.227099  0.593533  0  4.078708  0
N  N104  1  0.95436409  0.38488441  0.75985786  1  0  -0.431869  0  3.176643  0  0  -0.368  0  3.430699  0  0  -0.385126  0  3.439513  0  0  -0.46525  -0.355952  0  3.424292  0
N  N105  1  0.95590546  0.64565530  0.29408254  1  0  -0.433677  0  3.173252  0  0  -0.370027  0  3.428146  0  0  -0.387358  0  3.436986  0  0  -0.467586  -0.357739  0  3.4217  0
N  N106  1  0.44739914  0.14706893  0.29748489  1  0  -0.443242  0  3.184249  0  0  -0.379436  0  3.441077  0  0  -0.397304  0  3.449305  0  0  -0.473237  -0.366768  0  3.434954  0
N  N107  1  0.46414984  0.88655260  0.75465520  1  0  -0.438317  0  3.184771  0  0  -0.37276  0  3.43868  0  0  -0.390704  0  3.447483  0  0  -0.469183  -0.360056  0  3.432149  0
O  O108  1  0.06176135  0.28274705  0.28503733  1  0  -0.643758  0  2.148605  0  0  -0.575555  0  2.42196  0  0  -0.604533  0  2.409652  0  0  -0.315253  -0.555348  0  2.429825  0
O  O109  1  0.25312727  0.37649002  0.22892447  1  0  -0.630844  0  2.055842  0  0  -0.562167  0  2.321621  0  0  -0.589798  0  2.307504  0  0  -0.314183  -0.542958  0  2.330777  0
O  O110  1  0.46045653  0.60710513  0.76350497  1  0  -0.601112  0  2.063315  0  0  -0.540434  0  2.315626  0  0  -0.566493  0  2.30503  0  0  -0.29329  -0.522381  0  2.322362  0
O  O111  1  0.38835364  0.56382669  0.62139577  1  0  -0.69129  0  2.08978  0  0  -0.605279  0  2.370265  0  0  -0.635879  0  2.350384  0  0  -0.321451  -0.583784  0  2.383376  0
O  O112  1  0.97351417  0.32708386  0.54648202  1  0  -0.673652  0  2.17571  0  0  -0.599427  0  2.456421  0  0  -0.629608  0  2.443421  0  0  -0.317517  -0.578344  0  2.464758  0
O  O113  1  0.78983745  0.42160774  0.54077557  1  0  -0.611149  0  1.96724  0  0  -0.545316  0  2.178548  0  0  -0.56897  0  2.16805  0  0  -0.30431  -0.528995  0  2.185596  0
O  O114  1  0.16825483  0.16528405  0.51052356  1  0  -0.983761  0  1.91574  0  0  -0.887363  0  2.209546  0  0  -0.9202  0  2.170542  0  0  -0.566718  -0.863968  0  2.236135  0
O  O115  1  0.82366789  0.22200204  0.44545822  1  0  -0.826285  0  1.922493  0  0  -0.767401  0  2.120869  0  0  -0.789373  0  2.089288  0  0  -0.578136  -0.751751  0  2.142758  0
O  O116  1  0.23738157  0.38425617  0.52486267  1  0  -0.995241  0  1.95237  0  0  -0.893411  0  2.256005  0  0  -0.927676  0  2.214897  0  0  -0.575155  -0.869058  0  2.283961  0
O  O117  1  0.46095853  0.42875927  0.28157177  1  0  -0.595923  0  2.07873  0  0  -0.531287  0  2.329307  0  0  -0.557809  0  2.317699  0  0  -0.292596  -0.512948  0  2.336773  0
O  O118  1  0.52787784  0.47773123  0.42459156  1  0  -0.691906  0  2.101689  0  0  -0.604551  0  2.382645  0  0  -0.635368  0  2.362066  0  0  -0.319624  -0.582892  0  2.396174  0
O  O119  1  0.65409019  0.68838621  0.82416391  1  0  -0.635654  0  2.131715  0  0  -0.561043  0  2.398933  0  0  -0.590519  0  2.387132  0  0  -0.305408  -0.540546  0  2.406273  0
O  O120  1  0.86114984  0.74857199  0.75896775  1  0  -0.64204  0  2.138853  0  0  -0.575373  0  2.413076  0  0  -0.603557  0  2.399867  0  0  -0.316231  -0.555747  0  2.421552  0
O  O121  1  0.12517191  0.61039645  0.51723289  1  0  -0.623486  0  1.980764  0  0  -0.558607  0  2.196313  0  0  -0.583472  0  2.185558  0  0  -0.305038  -0.541491  0  2.203541  0
O  O122  1  0.94921556  0.71345709  0.49594787  1  0  -0.665805  0  2.175662  0  0  -0.585821  0  2.44955  0  0  -0.616233  0  2.436685  0  0  -0.313426  -0.564585  0  2.457741  0
O  O123  1  0.68543587  0.65733002  0.51830079  1  0  -0.994287  0  1.94435  0  0  -0.894179  0  2.244301  0  0  -0.928362  0  2.204774  0  0  -0.572199  -0.869872  0  2.271175  0
O  O124  1  0.75485987  0.87656593  0.53292024  1  0  -0.981355  0  1.9221  0  0  -0.884411  0  2.217033  0  0  -0.917313  0  2.176696  0  0  -0.568457  -0.860981  0  2.244574  0
O  O125  1  0.37869363  0.27807969  0.74838536  1  0  -0.64403  0  2.064664  0  0  -0.573511  0  2.336641  0  0  -0.60254  0  2.319723  0  0  -0.317979  -0.5533  0  2.347741  0
O  O126  1  0.17871333  0.20413127  0.79928338  1  0  -0.637066  0  2.137392  0  0  -0.564913  0  2.407277  0  0  -0.5937  0  2.394838  0  0  -0.3013  -0.544921  0  2.415265  0
O  O127  1  0.96433620  0.93055144  0.26275677  1  0  -0.604309  0  2.032003  0  0  -0.541473  0  2.283002  0  0  -0.568249  0  2.270403  0  0  -0.298281  -0.522889  0  2.291066  0
O  O128  1  0.01147500  0.00156184  0.40384919  1  0  -0.702794  0  2.145366  0  0  -0.620836  0  2.424099  0  0  -0.651172  0  2.406498  0  0  -0.31759  -0.599583  0  2.435622  0
O  O129  1  0.43470072  0.21139433  0.50515345  1  0  -0.666922  0  2.138172  0  0  -0.589489  0  2.417084  0  0  -0.619999  0  2.403232  0  0  -0.311321  -0.568136  0  2.425959  0
O  O130  1  0.60384675  0.09744289  0.53308231  1  0  -0.642376  0  2.000913  0  0  -0.579504  0  2.222767  0  0  -0.603526  0  2.210973  0  0  -0.313413  -0.562877  0  2.230666  0
O  O131  1  0.09711745  0.81387467  0.60404824  1  0  -0.826575  0  1.914045  0  0  -0.770005  0  2.11242  0  0  -0.791706  0  2.079885  0  0  -0.582887  -0.754566  0  2.134839  0
O  O132  1  0.90797644  0.03495019  0.64257424  1  0  -0.702727  0  2.14383  0  0  -0.62113  0  2.424833  0  0  -0.651211  0  2.407264  0  0  -0.316963  -0.599987  0  2.436302  0
O  O133  1  0.95831373  0.10593840  0.78141275  1  0  -0.607886  0  2.02508  0  0  -0.547372  0  2.278037  0  0  -0.573742  0  2.266368  0  0  -0.297684  -0.52911  0  2.285587  0
O  O134  1  0.73063748  0.85985026  0.25301791  1  0  -0.630797  0  2.059034  0  0  -0.564064  0  2.326549  0  0  -0.591083  0  2.311855  0  0  -0.308838  -0.545295  0  2.336134  0
O  O135  1  0.54357892  0.76244109  0.29802723  1  0  -0.647029  0  2.069243  0  0  -0.575907  0  2.34056  0  0  -0.60537  0  2.324597  0  0  -0.318774  -0.555367  0  2.350987  0
O  O136  1  0.49070856  0.82860220  0.53807432  1  0  -0.674786  0  2.161806  0  0  -0.60239  0  2.447783  0  0  -0.632617  0  2.433646  0  0  -0.315211  -0.581238  0  2.456818  0
O  O137  1  0.31680316  0.93816436  0.52070413  1  0  -0.623004  0  2.012714  0  0  -0.554391  0  2.228729  0  0  -0.578753  0  2.218438  0  0  -0.304312  -0.537665  0  2.235627  0
