# generated using pymatgen
data_AgH12C8N12O2F3
_symmetry_space_group_name_H-M   'P 1'
_cell_length_a   8.76259942
_cell_length_b   8.80911747
_cell_length_c   11.66619783
_cell_angle_alpha   109.75416723
_cell_angle_beta   102.05346709
_cell_angle_gamma   95.60327005
_symmetry_Int_Tables_number   1
_chemical_formula_structural   AgH12C8N12O2F3
_chemical_formula_sum   'Ag2 H24 C16 N24 O4 F6'
_cell_volume   814.88212874
_cell_formula_units_Z   2
loop_
 _symmetry_equiv_pos_site_id
 _symmetry_equiv_pos_as_xyz
  1  'x, y, z'
loop_
 _atom_site_type_symbol
 _atom_site_label
 _atom_site_symmetry_multiplicity
 _atom_site_fract_x
 _atom_site_fract_y
 _atom_site_fract_z
 _atom_site_occupancy
 _atom_site_hle17_bader_spin_density
 _atom_site_hle17_ddec_charge
 _atom_site_hle17_ddec_spin_density
 _atom_site_hle17_ddec_sum_bond_order
 _atom_site_hle17_magmom
 _atom_site_hse06_10hf_bader_spin_density
 _atom_site_hse06_10hf_ddec_charge
 _atom_site_hse06_10hf_ddec_spin_density
 _atom_site_hse06_10hf_ddec_sum_bond_order
 _atom_site_hse06_10hf_magmom
 _atom_site_hse06_bader_spin_density
 _atom_site_hse06_ddec_charge
 _atom_site_hse06_ddec_spin_density
 _atom_site_hse06_ddec_sum_bond_order
 _atom_site_hse06_magmom
 _atom_site_pbe_bader_spin_density
 _atom_site_pbe_cm5_charge
 _atom_site_pbe_ddec_charge
 _atom_site_pbe_ddec_spin_density
 _atom_site_pbe_ddec_sum_bond_order
 _atom_site_pbe_magmom
Ag  Ag0  1  0.99413315  0.02153082  0.75856243  1  0  0.537852  0  1.465416  0  0  0.39023  0  1.899462  0  0  0.421747  0  1.853601  0  0  0.480588  0.368055  0  1.93145  0
Ag  Ag1  1  0.00586712  0.97847140  0.24143896  1  0  0.537787  0  1.465433  0  0  0.390192  0  1.899494  0  0  0.421707  0  1.853629  0  0  0.480574  0.368019  0  1.931482  0
H  H2  1  0.11199382  0.78130113  0.00598226  1  0  0.35039  0  0.924263  0  0  0.327565  0  0.993854  0  0  0.337495  0  0.984534  0  0  0.295055  0.320545  0  1.000385  0
H  H3  1  0.88800506  0.21869988  0.99401774  1  0  0.350405  0  0.924241  0  0  0.327536  0  0.993884  0  0  0.337466  0  0.984563  0  0  0.295064  0.320516  0  1.000414  0
H  H4  1  0.11190685  0.82276300  0.86843673  1  0  0.315839  0  0.889003  0  0  0.300863  0  0.954712  0  0  0.30982  0  0.944663  0  0  0.301198  0.294298  0  0.962217  0
H  H5  1  0.88809297  0.17723676  0.13156310  1  0  0.315828  0  0.889002  0  0  0.300854  0  0.954712  0  0  0.30981  0  0.944663  0  0  0.301182  0.294289  0  0.962214  0
H  H6  1  0.47535062  0.83772083  0.04538078  1  0  0.353311  0  0.864535  0  0  0.336435  0  0.923273  0  0  0.343443  0  0.917784  0  0  0.313356  0.331507  0  0.927146  0
H  H7  1  0.52464873  0.16228263  0.95461992  1  0  0.353376  0  0.864526  0  0  0.336497  0  0.923252  0  0  0.343504  0  0.917767  0  0  0.313386  0.331568  0  0.927127  0
H  H8  1  0.64782611  0.80812566  0.13581157  1  0  0.328629  0  0.918443  0  0  0.304168  0  0.994436  0  0  0.311247  0  0.989103  0  0  0.300393  0.299194  0  0.998175  0
H  H9  1  0.35217276  0.19187534  0.86418928  1  0  0.328577  0  0.918495  0  0  0.3041  0  0.994537  0  0  0.311178  0  0.989193  0  0  0.300354  0.299126  0  0.998268  0
H  H10  1  0.49023780  0.88747992  0.66150790  1  0  0.335258  0  0.878866  0  0  0.320178  0  0.938599  0  0  0.327302  0  0.932673  0  0  0.309214  0.315142  0  0.942799  0
H  H11  1  0.50976109  0.11252110  0.33849124  1  0  0.335261  0  0.8789  0  0  0.320189  0  0.93862  0  0  0.327313  0  0.932695  0  0  0.309206  0.315155  0  0.942821  0
H  H12  1  0.67115604  0.88308444  0.61657293  1  0  0.335122  0  0.918367  0  0  0.309494  0  0.993275  0  0  0.317901  0  0.986466  0  0  0.294492  0.303547  0  0.998113  0
H  H13  1  0.32884260  0.11691533  0.38342757  1  0  0.334977  0  0.918558  0  0  0.309481  0  0.993263  0  0  0.317888  0  0.986454  0  0  0.294481  0.303536  0  0.998098  0
H  H14  1  0.18890182  0.87557294  0.60917374  1  0  0.312315  0  0.892892  0  0  0.300348  0  0.954457  0  0  0.308444  0  0.945709  0  0  0.302684  0.294423  0  0.960984  0
H  H15  1  0.81110032  0.12442679  0.39082646  1  0  0.312309  0  0.892882  0  0  0.300343  0  0.954457  0  0  0.30844  0  0.945708  0  0  0.302686  0.29442  0  0.960982  0
H  H16  1  0.21190168  0.87139758  0.46167938  1  0  0.355584  0  0.911321  0  0  0.332967  0  0.980945  0  0  0.342185  0  0.972755  0  0  0.296394  0.326454  0  0.986654  0
H  H17  1  0.78809928  0.12860217  0.53832149  1  0  0.355483  0  0.911478  0  0  0.332957  0  0.980954  0  0  0.342176  0  0.972763  0  0  0.296397  0.326444  0  0.986662  0
H  H18  1  0.11997283  0.50277014  0.46897935  1  0  0.341454  0  0.873936  0  0  0.328444  0  0.927715  0  0  0.335015  0  0.922575  0  0  0.314916  0.323815  0  0.931344  0
H  H19  1  0.88002862  0.49723207  0.53102137  1  0  0.341465  0  0.873938  0  0  0.328455  0  0.927723  0  0  0.335025  0  0.922584  0  0  0.314918  0.323828  0  0.931345  0
H  H20  1  0.14802549  0.32097151  0.35987743  1  0  0.329727  0  0.928268  0  0  0.305084  0  1.00378  0  0  0.312532  0  0.99789  0  0  0.296043  0.299851  0  1.007905  0
H  H21  1  0.85197480  0.67903071  0.64012225  1  0  0.329743  0  0.928246  0  0  0.305101  0  1.003734  0  0  0.312548  0  0.997845  0  0  0.296058  0.299869  0  1.007856  0
H  H22  1  0.15431845  0.35266888  0.91396703  1  0  0.329487  0  0.923393  0  0  0.305948  0  0.995725  0  0  0.314427  0  0.988504  0  0  0.295053  0.299961  0  1.000822  0
H  H23  1  0.84568139  0.64733090  0.08603109  1  0  0.329453  0  0.923437  0  0  0.305941  0  0.995726  0  0  0.31441  0  0.988514  0  0  0.295033  0.299955  0  1.000822  0
H  H24  1  0.14219176  0.53185553  0.87851299  1  0  0.340953  0  0.883219  0  0  0.325753  0  0.941608  0  0  0.332637  0  0.936368  0  0  0.310866  0.320874  0  0.945391  0
H  H25  1  0.85780832  0.46814547  0.12148548  1  0  0.340907  0  0.88328  0  0  0.325726  0  0.941641  0  0  0.332604  0  0.936403  0  0  0.310867  0.320848  0  0.945423  0
C  C26  1  0.73869686  0.27127782  0.78359982  1  0  0.500369  0  4.049183  0  0  0.446494  0  4.355173  0  0  0.476159  0  4.349608  0  0  0.191062  0.42648  0  4.358402  0
C  C27  1  0.26130407  0.72872191  0.21640275  1  0  0.500739  0  4.048767  0  0  0.446669  0  4.355185  0  0  0.476339  0  4.349612  0  0  0.191128  0.426654  0  4.358414  0
C  C28  1  0.61773584  0.36675411  0.73316427  1  0  0.661443  0  3.654788  0  0  0.590093  0  3.998918  0  0  0.617841  0  3.971086  0  0  0.290293  0.570229  0  4.018847  0
C  C29  1  0.38226467  0.63324319  0.26683504  1  0  0.662241  0  3.653185  0  0  0.589924  0  3.999062  0  0  0.617672  0  3.971227  0  0  0.290272  0.570062  0  4.018987  0
C  C30  1  0.89842925  0.81611124  0.90848786  1  0  0.685622  0  3.884042  0  0  0.627235  0  4.168626  0  0  0.65727  0  4.174422  0  0  0.336613  0.607049  0  4.163922  0
C  C31  1  0.10156940  0.18388854  0.09151178  1  0  0.685612  0  3.88413  0  0  0.62724  0  4.168674  0  0  0.657272  0  4.174467  0  0  0.33659  0.607054  0  4.16397  0
C  C32  1  0.66636146  0.82329343  0.96837242  1  0  0.687287  0  3.869505  0  0  0.636479  0  4.156183  0  0  0.666645  0  4.158578  0  0  0.34081  0.616185  0  4.154027  0
C  C33  1  0.33363905  0.17670387  0.03162689  1  0  0.687325  0  3.869582  0  0  0.636537  0  4.156208  0  0  0.666702  0  4.158599  0  0  0.340817  0.61624  0  4.154056  0
C  C34  1  0.67697342  0.86425097  0.78815425  1  0  0.692125  0  3.857798  0  0  0.635454  0  4.145587  0  0  0.666624  0  4.148333  0  0  0.340572  0.614436  0  4.143192  0
C  C35  1  0.32302404  0.13574882  0.21184691  1  0  0.692152  0  3.857818  0  0  0.635459  0  4.145655  0  0  0.666631  0  4.148397  0  0  0.340547  0.61444  0  4.143263  0
C  C36  1  0.18814843  0.09220936  0.58515509  1  0  0.687565  0  3.859485  0  0  0.630327  0  4.146973  0  0  0.660392  0  4.151999  0  0  0.33803  0.610064  0  4.142895  0
C  C37  1  0.81185256  0.90779039  0.41484408  1  0  0.687805  0  3.858931  0  0  0.630345  0  4.146951  0  0  0.660392  0  4.152001  0  0  0.338074  0.610097  0  4.142858  0
C  C38  1  0.15915594  0.31933477  0.53694123  1  0  0.680937  0  3.887058  0  0  0.631086  0  4.173646  0  0  0.660724  0  4.176853  0  0  0.338486  0.611148  0  4.170947  0
C  C39  1  0.84084410  0.68066622  0.46305895  1  0  0.681108  0  3.886778  0  0  0.631111  0  4.173663  0  0  0.660749  0  4.176869  0  0  0.338486  0.611173  0  4.170963  0
C  C40  1  0.15319290  0.32967469  0.73253878  1  0  0.702135  0  3.844976  0  0  0.645517  0  4.13254  0  0  0.676769  0  4.134937  0  0  0.343114  0.62445  0  4.13038  0
C  C41  1  0.84680810  0.67032508  0.26745953  1  0  0.702085  0  3.845233  0  0  0.645545  0  4.132619  0  0  0.676796  0  4.135018  0  0  0.343132  0.624478  0  4.130459  0
N  N42  1  0.83658935  0.85949329  0.80922774  1  0  -0.667563  0  3.169662  0  0  -0.571068  0  3.445474  0  0  -0.602787  0  3.451008  0  0  -0.396423  -0.549542  0  3.441224  0
N  N43  1  0.16340953  0.14050772  0.19077225  1  0  -0.6675  0  3.169649  0  0  -0.571047  0  3.445476  0  0  -0.602765  0  3.451011  0  0  -0.396406  -0.549519  0  3.441227  0
N  N44  1  0.81827556  0.79465366  0.98964557  1  0  -0.662131  0  3.015519  0  0  -0.601944  0  3.287771  0  0  -0.627983  0  3.290962  0  0  -0.365066  -0.584326  0  3.285278  0
N  N45  1  0.18172168  0.20534491  0.01035438  1  0  -0.662218  0  3.015618  0  0  -0.601971  0  3.287734  0  0  -0.628034  0  3.290988  0  0  -0.365073  -0.584353  0  3.285244  0
N  N46  1  0.58982004  0.85267176  0.86743103  1  0  -0.628258  0  2.910203  0  0  -0.591336  0  3.184631  0  0  -0.615081  0  3.187043  0  0  -0.372573  -0.575339  0  3.18271  0
N  N47  1  0.41017744  0.14732804  0.13256928  1  0  -0.628239  0  2.910324  0  0  -0.591342  0  3.184714  0  0  -0.615088  0  3.187127  0  0  -0.372551  -0.575345  0  3.182795  0
N  N48  1  0.16349537  0.16620652  0.70081222  1  0  -0.665162  0  3.139976  0  0  -0.573454  0  3.417678  0  0  -0.604396  0  3.422347  0  0  -0.393896  -0.552363  0  3.413919  0
N  N49  1  0.83650584  0.83379446  0.29918815  1  0  -0.66517  0  3.139989  0  0  -0.573427  0  3.417646  0  0  -0.604366  0  3.422329  0  0  -0.393895  -0.552349  0  3.413903  0
N  N50  1  0.18799067  0.16326969  0.50008738  1  0  -0.646186  0  3.01591  0  0  -0.587966  0  3.2877  0  0  -0.613761  0  3.291665  0  0  -0.363209  -0.570573  0  3.284797  0
N  N51  1  0.81201054  0.83673129  0.49991298  1  0  -0.645892  0  3.015277  0  0  -0.587979  0  3.287754  0  0  -0.61377  0  3.291729  0  0  -0.363205  -0.570588  0  3.284844  0
N  N52  1  0.14606697  0.40904430  0.65193730  1  0  -0.632079  0  2.906949  0  0  -0.596953  0  3.183229  0  0  -0.620422  0  3.185235  0  0  -0.376517  -0.581185  0  3.181622  0
N  N53  1  0.85393308  0.59095669  0.34806288  1  0  -0.632165  0  2.906911  0  0  -0.597001  0  3.183207  0  0  -0.620471  0  3.185212  0  0  -0.37654  -0.581232  0  3.181602  0
N  N54  1  0.04961072  0.79219578  0.92419222  1  0  -0.694341  0  3.082802  0  0  -0.654024  0  3.319704  0  0  -0.675665  0  3.311195  0  0  -0.575682  -0.638875  0  3.325298  0
N  N55  1  0.95038655  0.20780280  0.07580603  1  0  -0.694338  0  3.082817  0  0  -0.653987  0  3.31976  0  0  -0.675629  0  3.311258  0  0  -0.575662  -0.638838  0  3.32535  0
N  N56  1  0.58898291  0.81954183  0.05510895  1  0  -0.671049  0  3.092454  0  0  -0.635113  0  3.332746  0  0  -0.65511  0  3.326272  0  0  -0.563507  -0.621327  0  3.336916  0
N  N57  1  0.41101712  0.18045916  0.94489208  1  0  -0.671048  0  3.092551  0  0  -0.635146  0  3.332893  0  0  -0.655134  0  3.326414  0  0  -0.563496  -0.621356  0  3.337065  0
N  N58  1  0.60738853  0.88224841  0.68109920  1  0  -0.671116  0  3.086596  0  0  -0.63177  0  3.324581  0  0  -0.653026  0  3.318307  0  0  -0.567405  -0.617108  0  3.328638  0
N  N59  1  0.39260919  0.11775261  0.31890061  1  0  -0.671364  0  3.08711  0  0  -0.631771  0  3.324613  0  0  -0.653029  0  3.318341  0  0  -0.567373  -0.617108  0  3.328671  0
N  N60  1  0.21762285  0.93712982  0.55488702  1  0  -0.693563  0  3.038794  0  0  -0.656843  0  3.273073  0  0  -0.677703  0  3.264786  0  0  -0.576217  -0.642233  0  3.278536  0
N  N61  1  0.78237836  0.06287116  0.44511334  1  0  -0.693582  0  3.03876  0  0  -0.656846  0  3.273072  0  0  -0.677696  0  3.264782  0  0  -0.576238  -0.642238  0  3.278525  0
N  N62  1  0.14067827  0.38686800  0.44841276  1  0  -0.694839  0  3.1046  0  0  -0.657923  0  3.341799  0  0  -0.677844  0  3.334733  0  0  -0.573466  -0.644107  0  3.346372  0
N  N63  1  0.85932296  0.61313299  0.55158676  1  0  -0.694952  0  3.10457  0  0  -0.657966  0  3.341784  0  0  -0.677887  0  3.334717  0  0  -0.573492  -0.644147  0  3.346357  0
N  N64  1  0.15108501  0.41173627  0.85127511  1  0  -0.659327  0  3.084482  0  0  -0.618709  0  3.31657  0  0  -0.640019  0  3.310626  0  0  -0.562928  -0.604028  0  3.320442  0
N  N65  1  0.84891643  0.58826593  0.14872561  1  0  -0.659311  0  3.084704  0  0  -0.618689  0  3.316692  0  0  -0.63998  0  3.310767  0  0  -0.562925  -0.604006  0  3.320563  0
O  O66  1  0.81685481  0.20649180  0.70653918  1  0  -0.591781  0  2.148612  0  0  -0.538843  0  2.398889  0  0  -0.566185  0  2.392406  0  0  -0.319359  -0.519703  0  2.402714  0
O  O67  1  0.18314759  0.79350917  0.29345967  1  0  -0.591718  0  2.14836  0  0  -0.538924  0  2.399142  0  0  -0.566264  0  2.392651  0  0  -0.319387  -0.519783  0  2.40297  0
O  O68  1  0.74548006  0.27023898  0.89166388  1  0  -0.564559  0  2.008838  0  0  -0.52502  0  2.232129  0  0  -0.547424  0  2.224479  0  0  -0.314727  -0.509376  0  2.236911  0
O  O69  1  0.25452070  0.72975954  0.10833492  1  0  -0.564847  0  2.008642  0  0  -0.525099  0  2.231967  0  0  -0.547503  0  2.224308  0  0  -0.314751  -0.509452  0  2.236753  0
F  F70  1  0.52372011  0.26977919  0.61628143  1  0  -0.252918  0  1.182761  0  0  -0.204268  0  1.338207  0  0  -0.213945  0  1.322535  0  0  -0.107752  -0.19732  0  1.349116  0
F  F71  1  0.47628133  0.73021686  0.38371771  1  0  -0.253681  0  1.182611  0  0  -0.204262  0  1.338252  0  0  -0.21394  0  1.322579  0  0  -0.107767  -0.197313  0  1.349159  0
F  F72  1  0.52069512  0.42237582  0.80829412  1  0  -0.233284  0  1.194957  0  0  -0.185646  0  1.350267  0  0  -0.195784  0  1.335751  0  0  -0.096543  -0.178368  0  1.360349  0
F  F73  1  0.47930374  0.57761903  0.19170515  1  0  -0.23319  0  1.194538  0  0  -0.185566  0  1.350291  0  0  -0.195703  0  1.335774  0  0  -0.096509  -0.178286  0  1.36037  0
F  F74  1  0.69565285  0.49956832  0.71951130  1  0  -0.235436  0  1.175584  0  0  -0.199257  0  1.348934  0  0  -0.209453  0  1.333326  0  0  -0.103978  -0.191924  0  1.359772  0
F  F75  1  0.30434555  0.50043023  0.28048884  1  0  -0.235234  0  1.174961  0  0  -0.199202  0  1.348922  0  0  -0.209397  0  1.333314  0  0  -0.103971  -0.191867  0  1.359756  0
