# generated using pymatgen
data_CuH10C15NO4
_symmetry_space_group_name_H-M   'P 1'
_cell_length_a   10.31497025
_cell_length_b   13.19327126
_cell_length_c   13.19325923
_cell_angle_alpha   101.99470373
_cell_angle_beta   105.81842065
_cell_angle_gamma   105.81884469
_symmetry_Int_Tables_number   1
_chemical_formula_structural   CuH10C15NO4
_chemical_formula_sum   'Cu4 H40 C60 N4 O16'
_cell_volume   1582.96023373
_cell_formula_units_Z   4
loop_
 _symmetry_equiv_pos_site_id
 _symmetry_equiv_pos_as_xyz
  1  'x, y, z'
loop_
 _atom_site_type_symbol
 _atom_site_label
 _atom_site_symmetry_multiplicity
 _atom_site_fract_x
 _atom_site_fract_y
 _atom_site_fract_z
 _atom_site_occupancy
 _atom_site_pbe_bader_charge
 _atom_site_pbe_bader_spin_density
 _atom_site_pbe_cm5_charge
 _atom_site_pbe_ddec_charge
 _atom_site_pbe_ddec_spin_density
 _atom_site_pbe_ddec_sum_bond_order
 _atom_site_pbe_magmom
Cu  Cu0  1  0.88805306  0.27076637  0.82719394  1  1.076299  0.582615  0.687437  0.771227  0.738048  2.381766  0.584
Cu  Cu1  1  0.61194753  0.17280685  0.72923251  1  1.075223  0.582571  0.687423  0.771252  0.73804  2.381706  0.584
Cu  Cu2  1  0.11194821  0.72923257  0.17280697  1  1.075186  0.582571  0.687431  0.771236  0.738041  2.381716  0.584
Cu  Cu3  1  0.38805321  0.82719538  0.27076667  1  1.076286  0.582613  0.687454  0.771181  0.738046  2.381805  0.584
H  H4  1  0.58599941  0.83130202  0.65935817  1  0.09166  0.000273  0.105717  0.105784  0.000187  1.031871  0.0
H  H5  1  0.91399724  0.34064077  0.16869508  1  0.091726  0.000273  0.105731  0.105794  0.000187  1.031799  0.0
H  H6  1  0.41399479  0.16869690  0.34063971  1  0.091755  0.000273  0.105721  0.105818  0.000187  1.031874  0.0
H  H7  1  0.08600402  0.65935816  0.83130431  1  0.091772  0.000273  0.105715  0.105786  0.000187  1.031781  0.0
H  H8  1  0.59183256  0.65150274  0.67978565  1  0.0911  0.000457  0.106262  0.10738  0.000232  0.995814  0.0
H  H9  1  0.90816925  0.32021147  0.34849400  1  0.091137  0.000457  0.106276  0.107384  0.000232  0.995874  0.0
H  H10  1  0.40816329  0.34849536  0.32021317  1  0.09113  0.000457  0.106263  0.107391  0.000232  0.995875  0.0
H  H11  1  0.09183944  0.67978829  0.65150563  1  0.091165  0.000457  0.106236  0.10732  0.000232  0.995835  0.0
H  H12  1  0.00489470  0.99617307  0.91101307  1  0.075239  0.000445  0.102806  0.10598  0.000299  1.018353  0.0
H  H13  1  0.49509885  0.08898190  0.00382826  1  0.075014  0.000445  0.102812  0.106014  0.000299  1.018292  0.0
H  H14  1  0.99509849  0.00382581  0.08898079  1  0.07498  0.000446  0.102802  0.105979  0.000299  1.018299  0.0
H  H15  1  0.50490116  0.91101872  0.99617650  1  0.074934  0.000446  0.102809  0.105953  0.000299  1.018333  0.0
H  H16  1  0.35925552  0.61459789  0.99294428  1  0.080524  -9.4e-05  0.103351  0.106273  -0.000114  1.055547  0.0
H  H17  1  0.14073886  0.00704829  0.38539929  1  0.080415  -9.4e-05  0.103325  0.106212  -0.000114  1.055538  0.0
H  H18  1  0.64073755  0.38539851  0.00704906  1  0.080389  -9.4e-05  0.103318  0.106193  -0.000114  1.055552  0.0
H  H19  1  0.85925348  0.99294650  0.61459887  1  0.080507  -9.4e-05  0.103314  0.106231  -0.000114  1.055513  0.0
H  H20  1  0.09814188  0.50783360  0.92398638  1  0.108224  -5.1e-05  0.116882  0.095903  -9e-06  1.014942  0.0
H  H21  1  0.40185218  0.07601079  0.49216279  1  0.1083  -5.1e-05  0.11688  0.095867  -9e-06  1.014965  0.0
H  H22  1  0.90185109  0.49216037  0.07601100  1  0.108007  -5.1e-05  0.116887  0.095871  -9e-06  1.014896  0.0
H  H23  1  0.59814064  0.92398729  0.50783387  1  0.1082  -5.1e-05  0.116916  0.095959  -9e-06  1.014946  0.0
H  H24  1  0.16694816  0.21041679  0.88474526  1  0.074384  -4.8e-05  0.114599  0.085342  -2.5e-05  1.00549  0.0
H  H25  1  0.33304469  0.11525618  0.78958016  1  0.074346  -4.8e-05  0.114614  0.085415  -2.5e-05  1.005494  0.0
H  H26  1  0.83304997  0.78957968  0.11525600  1  0.07446  -4.8e-05  0.114586  0.08533  -2.5e-05  1.005543  0.0
H  H27  1  0.66695063  0.88474522  0.21041846  1  0.074314  -4.8e-05  0.114616  0.085379  -2.5e-05  1.00549  0.0
H  H28  1  0.43146654  0.30287665  0.94966434  1  0.08903  -1.6e-05  0.106858  0.115153  2.1e-05  1.024901  0.0
H  H29  1  0.06852785  0.05033484  0.69712137  1  0.088999  -1.6e-05  0.106872  0.115131  2.1e-05  1.024963  0.0
H  H30  1  0.56853272  0.69712230  0.05033765  1  0.089034  -1.6e-05  0.106877  0.115156  2.1e-05  1.024925  0.0
H  H31  1  0.93146874  0.94966492  0.30287794  1  0.089039  -1.6e-05  0.106879  0.115177  2.1e-05  1.024909  0.0
H  H32  1  0.00932689  0.81461219  0.93687153  1  0.102489  0.000289  0.101762  0.113972  0.000152  1.031719  0.0
H  H33  1  0.49067521  0.06312307  0.18539408  1  0.102397  0.000289  0.101746  0.113991  0.000152  1.031817  0.0
H  H34  1  0.99066881  0.18539002  0.06312505  1  0.102402  0.000289  0.101752  0.113988  0.000152  1.031706  0.0
H  H35  1  0.50933122  0.93687839  0.81461299  1  0.10235  0.000289  0.101815  0.114025  0.000152  1.031804  0.0
H  H36  1  0.59715203  0.50555743  0.72129466  1  0.051138  0.002343  0.108287  0.127634  0.001184  0.99188  0.001
H  H37  1  0.90286112  0.27870211  0.49444121  1  0.050853  0.002343  0.108284  0.127635  0.001184  0.991692  0.001
H  H38  1  0.40285252  0.49443984  0.27870282  1  0.051075  0.002342  0.108299  0.127645  0.001184  0.991742  0.001
H  H39  1  0.09715098  0.72129849  0.50556083  1  0.05096  0.002343  0.108243  0.127571  0.001184  0.991803  0.001
H  H40  1  0.91103443  0.61916448  0.88280141  1  0.119159  0.000414  0.107766  0.111427  0.000347  1.023739  0.0
H  H41  1  0.58897287  0.11719947  0.38084298  1  0.118972  0.000415  0.107801  0.111417  0.000347  1.023705  0.0
H  H42  1  0.08896781  0.38084106  0.11719876  1  0.118894  0.000415  0.10779  0.111368  0.000347  1.023784  0.0
H  H43  1  0.41103632  0.88280364  0.61916273  1  0.118986  0.000414  0.107798  0.111434  0.000347  1.023728  0.0
C  C44  1  0.78361620  0.03438753  0.77687564  1  1.522935  -0.001317  0.209762  0.559365  -0.001663  4.187889  -0.004
C  C45  1  0.71637369  0.22312174  0.96561172  1  1.522933  -0.001317  0.209774  0.559373  -0.001662  4.187623  -0.004
C  C46  1  0.21637398  0.96561138  0.22312213  1  1.522975  -0.001317  0.209768  0.559394  -0.001663  4.187653  -0.004
C  C47  1  0.28362153  0.77687720  0.03438865  1  1.522977  -0.001317  0.209732  0.559271  -0.001663  4.18774  -0.004
C  C48  1  0.79389988  0.92558681  0.78536849  1  -0.030896  0.014878  -0.02122  -0.041  0.010525  3.980145  0.012
C  C49  1  0.70609615  0.21463046  0.07441396  1  -0.031227  0.014878  -0.021204  -0.041066  0.010525  3.980107  0.012
C  C50  1  0.20609406  0.07441375  0.21462814  1  -0.03112  0.014879  -0.021259  -0.041169  0.010525  3.980141  0.012
C  C51  1  0.29390385  0.78537013  0.92558701  1  -0.031254  0.014878  -0.021183  -0.041013  0.010525  3.980136  0.012
C  C52  1  0.67841991  0.82736407  0.72012033  1  -0.014547  0.00088  -0.083317  -0.089788  0.000396  3.991163  0.001
C  C53  1  0.82157949  0.27987934  0.17263703  1  -0.014521  0.00088  -0.083342  -0.089769  0.000396  3.99113  0.001
C  C54  1  0.32157770  0.17263570  0.27988072  1  -0.014693  0.00088  -0.083312  -0.089771  0.000396  3.991104  0.001
C  C55  1  0.17842391  0.72012209  0.82736484  1  -0.014572  0.00088  -0.083314  -0.089798  0.000396  3.991084  0.001
C  C56  1  0.68215221  0.72642965  0.73231973  1  -0.095839  0.000249  -0.082938  -0.117633  -5.2e-05  3.94888  0.0
C  C57  1  0.81784910  0.26767671  0.27356934  1  -0.09606  0.000248  -0.082947  -0.117688  -5.3e-05  3.949103  0.0
C  C58  1  0.31784513  0.27357174  0.26767855  1  -0.096301  0.000249  -0.082924  -0.117649  -5.3e-05  3.94886  0.0
C  C59  1  0.18215683  0.73232140  0.72643012  1  -0.096382  0.000249  -0.082926  -0.117529  -5.2e-05  3.948763  0.0
C  C60  1  0.91462889  0.92006214  0.86159483  1  -0.020432  0.001289  -0.086078  -0.093568  0.000738  3.97375  0.001
C  C61  1  0.58537140  0.13840316  0.07994131  1  -0.020057  0.001289  -0.086073  -0.093576  0.000739  3.973712  0.001
C  C62  1  0.08536893  0.07994256  0.13840346  1  -0.020083  0.001289  -0.086053  -0.093508  0.000739  3.973798  0.001
C  C63  1  0.41463264  0.86159745  0.92006204  1  -0.020084  0.001289  -0.086108  -0.093525  0.000739  3.973783  0.001
C  C64  1  0.32284519  0.52493854  0.96949822  1  0.040781  9.8e-05  -0.081818  -0.161825  1.4e-05  3.926126  0.0
C  C65  1  0.17714958  0.03049717  0.47506017  1  0.040881  9.8e-05  -0.081844  -0.161808  1.4e-05  3.926031  0.0
C  C66  1  0.67714889  0.47505788  0.03049686  1  0.040835  9.7e-05  -0.081781  -0.161683  1.4e-05  3.926  0.0
C  C67  1  0.82284414  0.96949845  0.52493922  1  0.040836  9.8e-05  -0.081769  -0.161802  1.5e-05  3.926012  0.0
C  C68  1  0.17615536  0.46583200  0.93097639  1  0.447179  -0.00049  0.047684  0.105237  -0.000612  3.931051  0.0
C  C69  1  0.32384014  0.06902228  0.53416607  1  0.44737  -0.000491  0.047705  0.105296  -0.000612  3.931055  0.0
C  C70  1  0.82384011  0.53416528  0.06902294  1  0.447657  -0.00049  0.047661  0.105253  -0.000611  3.931066  0.0
C  C71  1  0.67615407  0.93097664  0.46583257  1  0.447349  -0.000491  0.047645  0.10516  -0.000612  3.93111  0.0
C  C72  1  0.21501922  0.30035206  0.90945222  1  0.461884  -0.000585  0.045541  0.096507  -0.000695  3.963551  0.0
C  C73  1  0.28497389  0.09054666  0.69964553  1  0.462024  -0.000584  0.045504  0.096394  -0.000695  3.963584  0.0
C  C74  1  0.78497854  0.69964358  0.09054803  1  0.46198  -0.000584  0.045553  0.096536  -0.000695  3.963503  0.0
C  C75  1  0.71501931  0.90945226  0.30035289  1  0.461882  -0.000585  0.045512  0.096436  -0.000695  3.963495  0.0
C  C76  1  0.36330570  0.35316429  0.94671446  1  0.08741  0.000176  -0.079796  -0.167572  9.6e-05  3.924789  0.0
C  C77  1  0.13668964  0.05328493  0.64683465  1  0.087484  0.000176  -0.079772  -0.167528  9.6e-05  3.924857  0.0
C  C78  1  0.63669116  0.64683381  0.05328458  1  0.087572  0.000175  -0.079806  -0.167597  9.6e-05  3.924783  0.0
C  C79  1  0.86330557  0.94671401  0.35316572  1  0.087422  0.000176  -0.079806  -0.167634  9.7e-05  3.924884  0.0
C  C80  1  0.91717593  0.81877853  0.87546638  1  -0.054924  0.000805  -0.083567  -0.122276  0.000387  3.92972  0.001
C  C81  1  0.58282508  0.12453032  0.18122434  1  -0.055525  0.000805  -0.083572  -0.122347  0.000387  3.929743  0.001
C  C82  1  0.08282407  0.18122205  0.12453231  1  -0.055531  0.000804  -0.08358  -0.122328  0.000386  3.929847  0.001
C  C83  1  0.41717971  0.87547195  0.81878026  1  -0.055563  0.000804  -0.083608  -0.12234  0.000387  3.929855  0.001
C  C84  1  0.42151210  0.46932288  0.97897949  1  -0.065968  -0.000543  0.013163  0.105211  -0.000598  3.960817  0.0
C  C85  1  0.07848227  0.02101560  0.53067694  1  -0.095777  -0.000545  0.013194  0.105264  -0.000599  3.960701  0.0
C  C86  1  0.57848311  0.53067603  0.02101784  1  -0.095767  -0.000544  0.013185  0.105248  -0.000598  3.960681  0.0
C  C87  1  0.92151183  0.97898086  0.46932269  1  -0.065975  -0.000543  0.013149  0.105291  -0.000599  3.960758  0.0
C  C88  1  0.80076036  0.72010871  0.81140186  1  0.005467  0.000905  -0.005841  0.105686  0.000465  4.021171  0.001
C  C89  1  0.69924489  0.18859568  0.27989518  1  0.006461  0.000905  -0.005792  0.105822  0.000465  4.021185  0.001
C  C90  1  0.19923874  0.27989434  0.18859713  1  0.00676  0.000905  -0.0058  0.105763  0.000464  4.02117  0.001
C  C91  1  0.30076494  0.81140659  0.72010898  1  0.007303  0.000905  -0.005808  0.105679  0.000465  4.021115  0.001
C  C92  1  0.80929260  0.61531882  0.82586624  1  -0.123956  -0.001  -0.07173  -0.070346  -0.001836  3.963217  0.0
C  C93  1  0.69071833  0.17413551  0.38468838  1  -0.123812  -0.001002  -0.071741  -0.070241  -0.001838  3.963194  0.0
C  C94  1  0.19071065  0.38468673  0.17413490  1  -0.123704  -0.001002  -0.071707  -0.070197  -0.001837  3.963087  0.0
C  C95  1  0.30929288  0.82586760  0.61531701  1  -0.124191  -0.001001  -0.071775  -0.070331  -0.001837  3.963327  0.0
C  C96  1  0.70393142  0.51554195  0.77500053  1  0.051417  0.018791  -0.096771  -0.227424  0.013514  3.904182  0.014
C  C97  1  0.79607680  0.22499748  0.48445927  1  0.051585  0.018789  -0.096803  -0.227515  0.013512  3.904257  0.014
C  C98  1  0.29607473  0.48446111  0.22499846  1  0.051392  0.018788  -0.096817  -0.227492  0.013512  3.904146  0.014
C  C99  1  0.20393365  0.77500395  0.51554335  1  0.051566  0.01879  -0.096724  -0.227341  0.013513  3.904237  0.014
C  C100  1  0.72318248  0.41079631  0.78506962  1  1.497438  -0.001402  0.202156  0.60735  -0.002054  4.190106  -0.005
C  C101  1  0.77683215  0.21493464  0.58920501  1  1.497304  -0.001403  0.202162  0.607346  -0.002054  4.190289  -0.005
C  C102  1  0.27682760  0.58920430  0.21493275  1  1.497277  -0.001402  0.20219  0.607415  -0.002053  4.190065  -0.005
C  C103  1  0.22318144  0.78506927  0.41079726  1  1.497362  -0.001402  0.20215  0.607305  -0.002054  4.190171  -0.005
N  N104  1  0.12167662  0.35485525  0.90154886  1  -1.224694  -0.001111  -0.332929  -0.240589  -0.000437  3.492105  0.0
N  N105  1  0.37831723  0.09845170  0.64514230  1  -1.225086  -0.001113  -0.332912  -0.240582  -0.000438  3.49201  0.0
N  N106  1  0.87831911  0.64514038  0.09845020  1  -1.225113  -0.001113  -0.332925  -0.240616  -0.000438  3.492044  0.0
N  N107  1  0.62167709  0.90154970  0.35485762  1  -1.224934  -0.001111  -0.332942  -0.240545  -0.000436  3.492074  0.0
O  O108  1  0.89944880  0.11882338  0.81723502  1  -1.125272  0.089026  -0.312623  -0.526313  0.056554  2.36876  0.081
O  O109  1  0.60054518  0.18276626  0.88117913  1  -1.125438  0.089002  -0.312668  -0.526372  0.056539  2.368789  0.081
O  O110  1  0.10054552  0.88117803  0.18276490  1  -1.125463  0.089007  -0.312631  -0.526317  0.056542  2.368812  0.081
O  O111  1  0.39945292  0.81723683  0.11882497  1  -1.12536  0.089022  -0.312639  -0.526277  0.056552  2.368695  0.081
O  O112  1  0.85026328  0.41159214  0.83054046  1  -1.101882  0.106412  -0.312495  -0.521175  0.067151  2.358809  0.096
O  O113  1  0.64974395  0.16946258  0.58841166  1  -1.101628  0.10644  -0.312563  -0.52127  0.067169  2.35856  0.096
O  O114  1  0.14974351  0.58841008  0.16945849  1  -1.101637  0.106434  -0.312571  -0.521297  0.067165  2.358652  0.096
O  O115  1  0.35026334  0.83054298  0.41159186  1  -1.101822  0.10642  -0.312507  -0.52117  0.067157  2.358773  0.096
O  O116  1  0.60819426  0.32534374  0.74382791  1  -1.088654  0.103308  -0.319083  -0.518981  0.065264  2.306606  0.093
O  O117  1  0.89181217  0.25617343  0.67465600  1  -1.088754  0.103282  -0.319066  -0.518939  0.065248  2.306875  0.093
O  O118  1  0.39180877  0.67465686  0.25617371  1  -1.088673  0.103289  -0.319109  -0.519002  0.065252  2.306672  0.093
O  O119  1  0.10819589  0.74382716  0.32534518  1  -1.088633  0.103299  -0.319083  -0.518957  0.065258  2.306646  0.093
O  O120  1  0.65739799  0.03448004  0.73061931  1  -1.111172  0.083034  -0.3098  -0.52694  0.052531  2.408862  0.076
O  O121  1  0.84259584  0.26937699  0.96551980  1  -1.111015  0.083051  -0.30981  -0.526929  0.052541  2.408641  0.076
O  O122  1  0.34259595  0.96552052  0.26937808  1  -1.111034  0.083046  -0.309812  -0.526929  0.052539  2.408635  0.076
O  O123  1  0.15740139  0.73062193  0.03447872  1  -1.111134  0.083039  -0.309806  -0.5269  0.052534  2.408701  0.076
