# generated using pymatgen
data_CuH10C10(NO2)2
_symmetry_space_group_name_H-M   'P 1'
_cell_length_a   6.64342478
_cell_length_b   8.95445563
_cell_length_c   9.47025343
_cell_angle_alpha   98.58685763
_cell_angle_beta   90.00080293
_cell_angle_gamma   90.00079964
_symmetry_Int_Tables_number   1
_chemical_formula_structural   CuH10C10(NO2)2
_chemical_formula_sum   'Cu2 H20 C20 N4 O8'
_cell_volume   557.05383130
_cell_formula_units_Z   2
loop_
 _symmetry_equiv_pos_site_id
 _symmetry_equiv_pos_as_xyz
  1  'x, y, z'
loop_
 _atom_site_type_symbol
 _atom_site_label
 _atom_site_symmetry_multiplicity
 _atom_site_fract_x
 _atom_site_fract_y
 _atom_site_fract_z
 _atom_site_occupancy
 _atom_site_hle17_ddec_charge
 _atom_site_hle17_ddec_spin_density
 _atom_site_hle17_ddec_sum_bond_order
 _atom_site_hle17_magmom
 _atom_site_hse06_10hf_ddec_charge
 _atom_site_hse06_10hf_ddec_spin_density
 _atom_site_hse06_10hf_ddec_sum_bond_order
 _atom_site_hse06_10hf_magmom
 _atom_site_hse06_ddec_charge
 _atom_site_hse06_ddec_spin_density
 _atom_site_hse06_ddec_sum_bond_order
 _atom_site_hse06_magmom
 _atom_site_pbe_cm5_charge
 _atom_site_pbe_ddec_charge
 _atom_site_pbe_ddec_spin_density
 _atom_site_pbe_ddec_sum_bond_order
 _atom_site_pbe_magmom
Cu  Cu0  1  0.84868366  0.06279348  0.58999931  1  0.853149  0.691847  1.824288  0.487  0.836989  0.79073  2.208008  0.611  0.926607  0.874343  2.143991  0.704  0.745069  0.78465  0.719386  2.25039  0.544
Cu  Cu1  1  0.34868160  0.93720503  0.40999711  1  0.853015  -0.691859  1.824546  -0.487  0.836792  -0.790725  2.208261  -0.611  0.926381  -0.874331  2.144242  -0.704  0.74506  0.78449  -0.719388  2.250638  -0.544
H  H2  1  0.81928213  0.41136885  0.87933507  1  0.090753  0.003104  0.898068  0.004  0.109438  0.002005  0.949566  0.002  0.110564  0.001269  0.948555  0.002  0.109917  0.107184  0.002663  0.952553  0.003
H  H3  1  0.31925202  0.58863975  0.12067284  1  0.090684  -0.003102  0.898263  -0.004  0.109408  -0.002005  0.949726  -0.002  0.110534  -0.001269  0.948714  -0.002  0.109912  0.107158  -0.002662  0.952706  -0.003
H  H4  1  0.03353650  0.30245146  0.80939290  1  0.112233  -0.000111  0.939631  0.0  0.127405  -0.000108  0.99988  0.0  0.129616  -0.000129  0.99755  0.0  0.119685  0.125899  -8.4e-05  1.001107  0.0
H  H5  1  0.53351832  0.69754233  0.19060317  1  0.112298  0.000114  0.939585  0.0  0.127454  0.000107  0.999843  0.0  0.129659  0.000128  0.997528  0.0  0.119716  0.125958  8.5e-05  1.00106  0.0
H  H6  1  0.83943024  0.61790483  0.72502709  1  0.124441  0.000443  0.983192  0.0  0.129847  0.000488  1.049593  0.0  0.135832  0.000398  1.045295  0.0  0.105679  0.125691  0.000762  1.053374  0.001
H  H7  1  0.33942047  0.38209588  0.27497162  1  0.124439  -0.000444  0.983146  0.0  0.129832  -0.000487  1.04957  0.0  0.135819  -0.000398  1.045271  0.0  0.105668  0.125683  -0.000762  1.053359  -0.001
H  H8  1  0.81482350  0.68430084  0.48134487  1  0.110072  6e-05  0.944531  0.0  0.118575  -0.0001  1.005889  0.0  0.120747  -9.9e-05  1.004498  0.0  0.11031  0.116838  -9.2e-05  1.007246  0.0
H  H9  1  0.31485227  0.31569512  0.51865515  1  0.110105  -6e-05  0.944457  0.0  0.118587  9.9e-05  1.005843  0.0  0.120759  0.0001  1.004452  0.0  0.110333  0.116829  9.2e-05  1.007236  0.0
H  H10  1  0.80805308  0.47369423  0.26915408  1  0.097234  0.000438  0.941656  0.0  0.113043  0.000472  0.990906  0.0  0.116151  0.00035  0.990295  0.0  0.107776  0.110831  0.000534  0.991614  0.0
H  H11  1  0.30809051  0.52630069  0.73085210  1  0.097262  -0.000436  0.941614  0.0  0.113111  -0.000472  0.990839  0.0  0.116215  -0.00035  0.990232  0.0  0.107832  0.110892  -0.000534  0.991546  0.0
H  H12  1  0.82451387  0.20583114  0.31692374  1  0.090175  0.001494  0.918101  0.002  0.100517  0.001476  0.974987  0.002  0.10268  0.001076  0.97262  0.001  0.124678  0.09894  0.00149  0.976484  0.002
H  H13  1  0.32452390  0.79416966  0.68308540  1  0.090149  -0.001497  0.917999  -0.002  0.100509  -0.001477  0.974878  -0.002  0.102669  -0.001076  0.972521  -0.001  0.124655  0.098925  -0.00149  0.976363  -0.002
H  H14  1  0.99769817  0.11344290  0.91926715  1  0.122051  -5e-05  0.931524  0.0  0.13394  -0.00013  0.994872  0.0  0.136298  -7.8e-05  0.993365  0.0  0.119383  0.132413  -0.000138  0.995643  0.0
H  H15  1  0.49768205  0.88655684  0.08071075  1  0.122028  4.9e-05  0.931408  0.0  0.133902  0.00013  0.994795  0.0  0.136259  7.8e-05  0.99329  0.0  0.119373  0.132373  0.000138  0.99557  0.0
H  H16  1  0.75081255  0.09630788  0.99040615  1  0.104318  0.001689  0.919372  0.002  0.11814  0.001445  0.977818  0.001  0.119994  0.000993  0.97696  0.001  0.110118  0.117154  0.001485  0.977875  0.001
H  H17  1  0.25077567  0.90370099  0.00959904  1  0.104161  -0.00169  0.919385  -0.002  0.117942  -0.001444  0.977909  -0.001  0.119793  -0.000992  0.977055  -0.001  0.110039  0.116956  -0.001485  0.977954  -0.001
H  H18  1  0.48782767  0.18568768  0.90547849  1  0.12593  0.002103  0.975623  0.003  0.13597  0.001014  1.040793  0.002  0.139572  0.000756  1.038253  0.001  0.112154  0.133347  0.001134  1.042813  0.002
H  H19  1  0.98781875  0.81432038  0.09452143  1  0.125931  -0.002098  0.975675  -0.003  0.13597  -0.001013  1.040819  -0.002  0.139569  -0.000757  1.038281  -0.001  0.112168  0.133342  -0.001134  1.042837  -0.002
H  H20  1  0.51309635  0.32160064  0.78944224  1  0.097402  0.000908  0.931602  0.001  0.11248  0.000432  0.991932  0.0  0.113832  0.000297  0.991541  0.0  0.114141  0.111791  0.000438  0.992022  0.001
H  H21  1  0.01308798  0.67839374  0.21054209  1  0.09736  -0.000907  0.931652  -0.001  0.112463  -0.000433  0.991926  0.0  0.113813  -0.000297  0.991539  0.0  0.114171  0.111777  -0.000438  0.992014  -0.001
C  C22  1  0.87306286  0.32466524  0.79246326  1  -0.10157  -0.001646  3.648391  -0.004  -0.167917  0.000791  3.906833  -0.002  -0.164791  0.00011  3.917301  -0.002  -0.064577  -0.169992  0.001396  3.900749  -0.001
C  C23  1  0.37304081  0.67533468  0.20753356  1  -0.101646  0.001633  3.648509  0.004  -0.168058  -0.000792  3.90699  0.002  -0.164933  -0.00011  3.917456  0.002  -0.064577  -0.170133  -0.001397  3.900901  0.001
C  C24  1  0.84935269  0.37784402  0.64958420  1  0.222153  -0.003264  3.72362  -0.003  0.227634  0.000111  3.971157  0.0  0.236019  -0.000835  3.993986  -0.002  0.116165  0.222637  0.001  3.954888  0.001
C  C25  1  0.34935223  0.62215799  0.35041687  1  0.222261  0.003279  3.723611  0.003  0.227715  -0.000106  3.971141  0.0  0.236102  0.000834  3.99397  0.002  0.116163  0.222715  -0.001  3.954877  -0.001
C  C26  1  0.83768681  0.52910526  0.63240135  1  -0.167249  0.005629  3.710755  0.005  -0.183985  0.002717  3.95433  0.003  -0.192149  0.002757  3.973118  0.003  -0.086752  -0.178283  0.002681  3.940869  0.003
C  C27  1  0.33768075  0.47089672  0.36760384  1  -0.16734  -0.005645  3.710671  -0.005  -0.184038  -0.002719  3.954222  -0.003  -0.192205  -0.002756  3.973008  -0.003  -0.086752  -0.178338  -0.002682  3.940768  -0.003
C  C28  1  0.82471046  0.56582335  0.49460684  1  0.020356  -0.006754  3.689527  -0.006  -0.001919  -0.00265  3.943253  -0.003  0.00432  -0.00287  3.960384  -0.003  -0.061544  -0.006061  -0.002637  3.931919  -0.002
C  C29  1  0.32471115  0.43417975  0.50540363  1  0.020423  0.006774  3.689384  0.006  -0.001838  0.002652  3.943093  0.003  0.004406  0.00287  3.960215  0.003  -0.061505  -0.005966  0.002637  3.931777  0.002
C  C30  1  0.82128365  0.45030551  0.37843357  1  -0.127427  0.007428  3.749917  0.008  -0.139356  0.003609  4.001449  0.004  -0.147437  0.00345  4.021965  0.004  -0.081449  -0.134487  0.003635  3.987989  0.004
C  C31  1  0.32131166  0.54970082  0.62157303  1  -0.127511  -0.007457  3.749935  -0.008  -0.139487  -0.003609  4.001499  -0.004  -0.147571  -0.003449  4.022019  -0.004  -0.081502  -0.134612  -0.003635  3.988003  -0.004
C  C32  1  0.83094012  0.30102674  0.40309196  1  0.158439  -0.006453  3.665013  -0.007  0.129208  -0.001644  3.922343  -0.003  0.140407  -0.002407  3.937942  -0.004  0.058558  0.121845  -0.001097  3.911912  -0.002
C  C33  1  0.33093591  0.69897387  0.59690666  1  0.158452  0.006485  3.664856  0.007  0.129209  0.001648  3.922161  0.003  0.140402  0.002406  3.937762  0.004  0.058546  0.121859  0.001096  3.911703  0.002
C  C34  1  0.84079958  0.08218365  0.89182450  1  -0.184903  -0.002772  3.604582  -0.006  -0.241269  0.000114  3.858582  -0.003  -0.241923  -0.00034  3.867443  -0.003  -0.074538  -0.240561  0.000689  3.852578  -0.003
C  C35  1  0.34077864  0.91782147  0.10816946  1  -0.184543  0.002775  3.604375  0.006  -0.24091  -0.000117  3.858338  0.003  -0.241562  0.000342  3.867203  0.003  -0.074419  -0.24019  -0.000689  3.852329  0.003
C  C36  1  0.84427960  0.91480049  0.82464401  1  0.659166  -0.002166  3.871094  -0.003  0.620495  0.001551  4.180106  0.001  0.655243  0.001175  4.176032  0.001  0.199769  0.59665  0.002164  4.182213  0.001
C  C37  1  0.34427544  0.08519917  0.17535568  1  0.658978  0.00216  3.871488  0.003  0.620316  -0.001546  4.180489  -0.001  0.655062  -0.001176  4.176422  -0.001  0.199785  0.596478  -0.002164  4.182596  -0.001
C  C38  1  0.54475819  0.20318348  0.79981743  1  -0.190633  -0.011024  3.60782  -0.015  -0.242802  -0.005497  3.852159  -0.009  -0.245035  -0.004378  3.860575  -0.007  -0.079281  -0.241435  -0.004857  3.846221  -0.008
C  C39  1  0.04474890  0.79681832  0.20017865  1  -0.190515  0.010997  3.607943  0.015  -0.242683  0.005505  3.852178  0.009  -0.244919  0.004376  3.860599  0.007  -0.079228  -0.241319  0.004857  3.846238  0.008
C  C40  1  0.41180658  0.11073636  0.68698924  1  0.671674  0.00552  3.877091  0.008  0.635212  0.001735  4.181569  0.004  0.671814  0.001474  4.17255  0.003  0.202337  0.611025  0.001865  4.186891  0.004
C  C41  1  0.91180079  0.88925167  0.31300970  1  0.671597  -0.0055  3.877214  -0.008  0.635125  -0.001736  4.18171  -0.004  0.671727  -0.001475  4.172695  -0.003  0.202294  0.610939  -0.001864  4.187027  -0.004
N  N42  1  0.76520891  0.17964809  0.79028705  1  -0.120656  0.103909  3.286446  0.128  -0.05429  0.070129  3.547778  0.093  -0.083362  0.055702  3.577022  0.078  -0.338943  -0.037445  0.076988  3.52971  0.098
N  N43  1  0.26520028  0.82035407  0.20971324  1  -0.120695  -0.103876  3.286454  -0.128  -0.054224  -0.070129  3.547739  -0.093  -0.083265  -0.055701  3.576914  -0.078  -0.339012  -0.037393  -0.076984  3.529688  -0.098
N  N44  1  0.84578897  0.26650158  0.53574081  1  -0.335424  0.065242  3.320711  0.08  -0.293514  0.048803  3.615202  0.063  -0.32373  0.042183  3.635249  0.058  -0.351938  -0.275517  0.051249  3.602918  0.064
N  N45  1  0.34577807  0.73349695  0.46425770  1  -0.335421  -0.065252  3.320693  -0.08  -0.293479  -0.048807  3.615177  -0.063  -0.323678  -0.042182  3.635198  -0.058  -0.351983  -0.275488  -0.051248  3.602885  -0.064
O  O46  1  0.85245284  0.88631899  0.68693914  1  -0.587679  0.076098  2.05356  0.1  -0.56034  0.05009  2.332081  0.071  -0.603296  0.039837  2.326668  0.059  -0.3337  -0.531594  0.055977  2.335335  0.077
O  O47  1  0.35245972  0.11368424  0.31306422  1  -0.587621  -0.076116  2.0537  -0.1  -0.560271  -0.050104  2.332192  -0.071  -0.603238  -0.039847  2.326797  -0.059  -0.333729  -0.531532  -0.055985  2.335451  -0.077
O  O48  1  0.84591417  0.81510485  0.90391510  1  -0.592697  0.027823  1.894719  0.035  -0.562305  0.013168  2.112489  0.018  -0.590403  0.006313  2.105614  0.009  -0.329188  -0.543983  0.015906  2.117858  0.02
O  O49  1  0.34591779  0.18489836  0.09609030  1  -0.592654  -0.027819  1.89495  -0.035  -0.562261  -0.01317  2.11272  -0.018  -0.590361  -0.006314  2.105853  -0.009  -0.329182  -0.543937  -0.015905  2.118091  -0.02
O  O50  1  0.50109749  0.03822695  0.57670579  1  -0.633752  -0.060561  2.197956  -0.079  -0.611052  -0.041687  2.514675  -0.059  -0.653295  -0.033968  2.50132  -0.05  -0.335076  -0.584146  -0.046145  2.525109  -0.063
O  O51  1  0.00109469  0.96177993  0.42328837  1  -0.633747  0.060561  2.197737  0.079  -0.611055  0.041685  2.514462  0.059  -0.653305  0.033969  2.501116  0.05  -0.335079  -0.584149  0.046149  2.524891  0.063
O  O52  1  0.22654098  0.11732756  0.70828756  1  -0.617532  -0.001038  1.950658  -0.001  -0.590115  -0.001159  2.202174  -0.001  -0.614235  -0.000652  2.189295  0.0  -0.318755  -0.573378  -0.001327  2.21109  -0.001
O  O53  1  0.72654364  0.88264501  0.29171730  1  -0.61747  0.001033  1.950968  0.001  -0.59006  0.001157  2.202482  0.001  -0.614174  0.000651  2.189598  0.0  -0.318742  -0.573331  0.001327  2.211408  0.001
