# generated using pymatgen
data_CuH10C5S2I
_symmetry_space_group_name_H-M   'P 1'
_cell_length_a   8.32295025
_cell_length_b   8.59571787
_cell_length_c   12.37160631
_cell_angle_alpha   90.00028423
_cell_angle_beta   94.39455480
_cell_angle_gamma   90.00057585
_symmetry_Int_Tables_number   1
_chemical_formula_structural   CuH10C5S2I
_chemical_formula_sum   'Cu4 H40 C20 S8 I4'
_cell_volume   882.48402722
_cell_formula_units_Z   4
loop_
 _symmetry_equiv_pos_site_id
 _symmetry_equiv_pos_as_xyz
  1  'x, y, z'
loop_
 _atom_site_type_symbol
 _atom_site_label
 _atom_site_symmetry_multiplicity
 _atom_site_fract_x
 _atom_site_fract_y
 _atom_site_fract_z
 _atom_site_occupancy
 _atom_site_hle17_bader_spin_density
 _atom_site_hle17_ddec_charge
 _atom_site_hle17_ddec_spin_density
 _atom_site_hle17_ddec_sum_bond_order
 _atom_site_hle17_magmom
 _atom_site_hse06_10hf_bader_spin_density
 _atom_site_hse06_10hf_ddec_charge
 _atom_site_hse06_10hf_ddec_spin_density
 _atom_site_hse06_10hf_ddec_sum_bond_order
 _atom_site_hse06_10hf_magmom
 _atom_site_hse06_bader_spin_density
 _atom_site_hse06_ddec_charge
 _atom_site_hse06_ddec_spin_density
 _atom_site_hse06_ddec_sum_bond_order
 _atom_site_hse06_magmom
 _atom_site_pbe_bader_spin_density
 _atom_site_pbe_cm5_charge
 _atom_site_pbe_ddec_charge
 _atom_site_pbe_ddec_spin_density
 _atom_site_pbe_ddec_sum_bond_order
 _atom_site_pbe_magmom
Cu  Cu0  1  0.37342683  0.41166210  0.51650142  1  0  0.131755  0  2.349546  0  0  0.064933  0  2.830593  0  0  0.072808  0  2.782436  0  0  0.228902  0.061272  0  2.86187  0
Cu  Cu1  1  0.62657810  0.91166045  0.98349904  1  0  0.131773  0  2.349577  0  0  0.064936  0  2.830603  0  0  0.072852  0  2.782475  0  0  0.228906  0.061268  0  2.861876  0
Cu  Cu2  1  0.62657747  0.58833721  0.48349616  1  0  0.131753  0  2.349469  0  0  0.064952  0  2.830459  0  0  0.072847  0  2.782356  0  0  0.228909  0.061286  0  2.861758  0
Cu  Cu3  1  0.37342863  0.08833769  0.01650432  1  0  0.131778  0  2.349526  0  0  0.06497  0  2.830486  0  0  0.07284  0  2.782417  0  0  0.228922  0.061299  0  2.861778  0
H  H4  1  0.27289629  0.00635109  0.68180718  1  0  0.108333  0  0.964142  0  0  0.127519  0  1.028271  0  0  0.129074  0  1.028706  0  0  0.082153  0.126357  0  1.02805  0
H  H5  1  0.72711024  0.50634108  0.81819680  1  0  0.108376  0  0.964081  0  0  0.12756  0  1.028249  0  0  0.129117  0  1.028671  0  0  0.082157  0.126398  0  1.028027  0
H  H6  1  0.72710925  0.99365403  0.31819773  1  0  0.108397  0  0.964072  0  0  0.127577  0  1.028244  0  0  0.129131  0  1.028668  0  0  0.082158  0.126414  0  1.028023  0
H  H7  1  0.27289525  0.49365823  0.18180003  1  0  0.108347  0  0.9641  0  0  0.127568  0  1.028212  0  0  0.129126  0  1.028635  0  0  0.082161  0.126405  0  1.027992  0
H  H8  1  0.44224250  0.00139746  0.77855212  1  0  0.101773  0  0.986587  0  0  0.113581  0  1.069444  0  0  0.116673  0  1.066136  0  0  0.077771  0.111173  0  1.071993  0
H  H9  1  0.55775192  0.50139444  0.72145125  1  0  0.101719  0  0.986651  0  0  0.113565  0  1.069503  0  0  0.116658  0  1.066189  0  0  0.077774  0.111156  0  1.072056  0
H  H10  1  0.55775942  0.99860302  0.22145262  1  0  0.101704  0  0.986663  0  0  0.113565  0  1.069492  0  0  0.116656  0  1.066184  0  0  0.077765  0.111159  0  1.07204  0
H  H11  1  0.44225239  0.49860254  0.27854956  1  0  0.101735  0  0.986627  0  0  0.113582  0  1.069486  0  0  0.116675  0  1.066173  0  0  0.077777  0.111183  0  1.072015  0
H  H12  1  0.45792756  0.09108009  0.64861648  1  0  0.105613  0  0.984154  0  0  0.120877  0  1.058698  0  0  0.123045  0  1.0577  0  0  0.075234  0.119239  0  1.059518  0
H  H13  1  0.54207266  0.59106855  0.85138506  1  0  0.105683  0  0.984168  0  0  0.12094  0  1.05873  0  0  0.123108  0  1.057728  0  0  0.07526  0.119301  0  1.05955  0
H  H14  1  0.54207798  0.90892387  0.35138762  1  0  0.105636  0  0.984243  0  0  0.120919  0  1.058766  0  0  0.123084  0  1.057767  0  0  0.075266  0.119283  0  1.059583  0
H  H15  1  0.45792921  0.40893076  0.14861078  1  0  0.105725  0  0.984236  0  0  0.120975  0  1.058795  0  0  0.123142  0  1.057795  0  0  0.075269  0.119336  0  1.059614  0
H  H16  1  0.29267440  0.57494970  0.75923455  1  0  0.089652  0  0.958155  0  0  0.107887  0  1.018557  0  0  0.108391  0  1.019958  0  0  0.089327  0.107407  0  1.017765  0
H  H17  1  0.70731602  0.07493986  0.74077050  1  0  0.089701  0  0.958089  0  0  0.10792  0  1.018507  0  0  0.108422  0  1.019909  0  0  0.089315  0.107433  0  1.017725  0
H  H18  1  0.70731905  0.42505077  0.24076331  1  0  0.089719  0  0.958057  0  0  0.107953  0  1.018464  0  0  0.108458  0  1.019863  0  0  0.089352  0.107466  0  1.017679  0
H  H19  1  0.29267744  0.92505945  0.25922897  1  0  0.089699  0  0.95804  0  0  0.107897  0  1.018502  0  0  0.108402  0  1.019899  0  0  0.089283  0.107409  0  1.01772  0
H  H20  1  0.11420249  0.59142650  0.67196442  1  0  0.088489  0  0.97641  0  0  0.098783  0  1.048012  0  0  0.100322  0  1.0479  0  0  0.084924  0.097626  0  1.048171  0
H  H21  1  0.88579173  0.09142482  0.82804087  1  0  0.088523  0  0.976409  0  0  0.098811  0  1.048025  0  0  0.100351  0  1.047913  0  0  0.084928  0.097654  0  1.048184  0
H  H22  1  0.88578375  0.40856932  0.32803551  1  0  0.088581  0  0.976377  0  0  0.098872  0  1.047997  0  0  0.10041  0  1.047888  0  0  0.084948  0.097718  0  1.048146  0
H  H23  1  0.11420534  0.90857565  0.17195797  1  0  0.088488  0  0.976409  0  0  0.09877  0  1.04805  0  0  0.100307  0  1.047938  0  0  0.084908  0.097612  0  1.048208  0
H  H24  1  0.43963959  0.29078462  0.79512286  1  0  0.078511  0  0.949149  0  0  0.092343  0  1.007073  0  0  0.093037  0  1.008421  0  0  0.095161  0.09169  0  1.006384  0
H  H25  1  0.56035800  0.79078151  0.70487924  1  0  0.078497  0  0.949071  0  0  0.092269  0  1.007004  0  0  0.092961  0  1.008354  0  0  0.095139  0.091616  0  1.006316  0
H  H26  1  0.56035750  0.70921585  0.20488002  1  0  0.07852  0  0.949147  0  0  0.092311  0  1.007084  0  0  0.092999  0  1.008443  0  0  0.095123  0.091657  0  1.006396  0
H  H27  1  0.43964027  0.20921431  0.29511885  1  0  0.078436  0  0.949184  0  0  0.092244  0  1.007079  0  0  0.092928  0  1.00844  0  0  0.095111  0.091592  0  1.00639  0
H  H28  1  0.96540827  0.42480387  0.79653321  1  0  0.074369  0  0.938569  0  0  0.093032  0  0.999347  0  0  0.093936  0  0.99958  0  0  0.087431  0.092316  0  0.999249  0
H  H29  1  0.03458962  0.92480618  0.70347584  1  0  0.074421  0  0.938477  0  0  0.093096  0  0.999222  0  0  0.094  0  0.999456  0  0  0.087433  0.092382  0  0.999124  0
H  H30  1  0.03459363  0.57518729  0.20346830  1  0  0.074359  0  0.938506  0  0  0.093028  0  0.999288  0  0  0.093932  0  0.999521  0  0  0.087424  0.092317  0  0.999189  0
H  H31  1  0.96540505  0.07519196  0.29652530  1  0  0.074405  0  0.938511  0  0  0.093066  0  0.999291  0  0  0.093971  0  0.99952  0  0  0.08741  0.09235  0  0.999197  0
H  H32  1  0.04522075  0.59578250  0.86045730  1  0  0.073431  0  0.95858  0  0  0.085049  0  1.03481  0  0  0.085815  0  1.035352  0  0  0.082792  0.084327  0  1.034654  0
H  H33  1  0.95477593  0.09578129  0.63954893  1  0  0.073456  0  0.958679  0  0  0.085075  0  1.034866  0  0  0.085837  0  1.035412  0  0  0.082789  0.08436  0  1.034708  0
H  H34  1  0.95477394  0.40421332  0.13954547  1  0  0.073427  0  0.958546  0  0  0.08505  0  1.03477  0  0  0.085813  0  1.035315  0  0  0.082784  0.084342  0  1.034603  0
H  H35  1  0.04521993  0.90422034  0.36044823  1  0  0.073451  0  0.958677  0  0  0.085057  0  1.03488  0  0  0.085821  0  1.035424  0  0  0.082821  0.084357  0  1.034708  0
H  H36  1  0.09115233  0.37096774  0.98445672  1  0  0.094645  0  0.946919  0  0  0.112566  0  1.006313  0  0  0.113351  0  1.007146  0  0  0.094294  0.111928  0  1.005882  0
H  H37  1  0.90885459  0.87096312  0.51554855  1  0  0.094653  0  0.94693  0  0  0.112593  0  1.006278  0  0  0.113378  0  1.00711  0  0  0.094296  0.111953  0  1.00585  0
H  H38  1  0.90885199  0.62903739  0.01554571  1  0  0.09469  0  0.946981  0  0  0.112603  0  1.006358  0  0  0.113387  0  1.007192  0  0  0.094306  0.111965  0  1.005926  0
H  H39  1  0.09114487  0.12903851  0.48444798  1  0  0.094702  0  0.946927  0  0  0.11262  0  1.006277  0  0  0.11341  0  1.007113  0  0  0.094297  0.111979  0  1.005848  0
H  H40  1  0.27977848  0.44069624  0.94576815  1  0  0.089876  0  0.952201  0  0  0.104555  0  1.018234  0  0  0.106017  0  1.018212  0  0  0.084061  0.103403  0  1.018417  0
H  H41  1  0.72022436  0.94068312  0.55423312  1  0  0.089884  0  0.952137  0  0  0.104559  0  1.018182  0  0  0.106004  0  1.018182  0  0  0.084068  0.103407  0  1.018367  0
H  H42  1  0.72022584  0.55931004  0.05423428  1  0  0.089925  0  0.95215  0  0  0.104603  0  1.018168  0  0  0.106053  0  1.018161  0  0  0.084091  0.103452  0  1.01835  0
H  H43  1  0.27977631  0.05931851  0.44576347  1  0  0.089923  0  0.952094  0  0  0.104555  0  1.018172  0  0  0.106008  0  1.018173  0  0  0.084072  0.103403  0  1.018355  0
C  C44  1  0.37881334  0.07180058  0.71445879  1  0  -0.320527  0  3.706971  0  0  -0.399399  0  3.950369  0  0  -0.402735  0  3.959312  0  0  -0.258132  -0.396733  0  3.944293  0
C  C45  1  0.62118667  0.57179282  0.78554510  1  0  -0.320586  0  3.707168  0  0  -0.39948  0  3.950326  0  0  -0.402839  0  3.959329  0  0  -0.258173  -0.396812  0  3.94425  0
C  C46  1  0.62119099  0.92820105  0.28554607  1  0  -0.320541  0  3.70717  0  0  -0.399441  0  3.950391  0  0  -0.402776  0  3.959355  0  0  -0.258149  -0.396775  0  3.94431  0
C  C47  1  0.37881762  0.42820533  0.21445248  1  0  -0.320656  0  3.707129  0  0  -0.399567  0  3.95029  0  0  -0.402919  0  3.959277  0  0  -0.258178  -0.396897  0  3.944214  0
C  C48  1  0.17951237  0.51642457  0.73212066  1  0  -0.144534  0  3.655341  0  0  -0.17845  0  3.908566  0  0  -0.17938  0  3.921359  0  0  -0.160169  -0.177739  0  3.899864  0
C  C49  1  0.82049068  0.01641834  0.76788804  1  0  -0.144509  0  3.655376  0  0  -0.17835  0  3.908444  0  0  -0.179277  0  3.921235  0  0  -0.160098  -0.177632  0  3.899728  0
C  C50  1  0.82048834  0.48357707  0.26788240  1  0  -0.144663  0  3.655308  0  0  -0.17861  0  3.908638  0  0  -0.17954  0  3.921428  0  0  -0.160202  -0.177888  0  3.899913  0
C  C51  1  0.17950519  0.98358213  0.23211074  1  0  -0.144445  0  3.655442  0  0  -0.178286  0  3.908524  0  0  -0.17921  0  3.921312  0  0  -0.160068  -0.177562  0  3.8998  0
C  C52  1  0.33245046  0.22671720  0.76204750  1  0  0.00484  0  3.585486  0  0  0.01464  0  3.832295  0  0  0.015102  0  3.848209  0  0  -0.068826  0.014165  0  3.82153  0
C  C53  1  0.66755005  0.72670954  0.73795776  1  0  0.004777  0  3.585749  0  0  0.01481  0  3.83221  0  0  0.015274  0  3.848121  0  0  -0.068762  0.014352  0  3.821402  0
C  C54  1  0.66755143  0.77328560  0.23795239  1  0  0.004751  0  3.585656  0  0  0.014667  0  3.832322  0  0  0.015132  0  3.848233  0  0  -0.068773  0.014198  0  3.821544  0
C  C55  1  0.33245304  0.27328861  0.26204138  1  0  0.004887  0  3.585593  0  0  0.014878  0  3.832083  0  0  0.015346  0  3.84799  0  0  -0.068752  0.014403  0  3.821317  0
C  C56  1  0.07804625  0.48274137  0.82628157  1  0  -0.105158  0  3.736838  0  0  -0.147339  0  3.996325  0  0  -0.149025  0  4.012252  0  0  -0.17565  -0.145897  0  3.98519  0
C  C57  1  0.92194742  0.98274150  0.67372020  1  0  -0.105376  0  3.737065  0  0  -0.147576  0  3.996634  0  0  -0.149258  0  4.012556  0  0  -0.17569  -0.146129  0  3.985461  0
C  C58  1  0.92194841  0.51725561  0.17371716  1  0  -0.105174  0  3.736823  0  0  -0.147384  0  3.996412  0  0  -0.149066  0  4.012335  0  0  -0.175672  -0.145968  0  3.98529  0
C  C59  1  0.07805086  0.01726130  0.32627870  1  0  -0.1053  0  3.737184  0  0  -0.147485  0  3.996727  0  0  -0.149158  0  4.012659  0  0  -0.175677  -0.146053  0  3.985555  0
C  C60  1  0.16540070  0.38608351  0.91552462  1  0  -0.144857  0  3.630968  0  0  -0.181873  0  3.89229  0  0  -0.182327  0  3.904072  0  0  -0.158271  -0.181441  0  3.884192  0
C  C61  1  0.83460998  0.88607868  0.58447764  1  0  -0.144808  0  3.631072  0  0  -0.181826  0  3.892384  0  0  -0.182276  0  3.904185  0  0  -0.15828  -0.181396  0  3.884298  0
C  C62  1  0.83460963  0.61391812  0.08447648  1  0  -0.144979  0  3.631181  0  0  -0.181949  0  3.892464  0  0  -0.1824  0  3.904261  0  0  -0.158314  -0.181521  0  3.88437  0
C  C63  1  0.16539070  0.11392528  0.41551976  1  0  -0.144953  0  3.6311  0  0  -0.181881  0  3.892352  0  0  -0.182368  0  3.904197  0  0  -0.158301  -0.181452  0  3.884267  0
S  S64  1  0.22413205  0.34302073  0.65651849  1  0  0.026571  0  2.747768  0  0  0.043957  0  3.166011  0  0  0.045171  0  3.152514  0  0  -0.03526  0.042587  0  3.175264  0
S  S65  1  0.77586371  0.84301835  0.84348532  1  0  0.026597  0  2.748063  0  0  0.04392  0  3.166209  0  0  0.045121  0  3.152738  0  0  -0.035297  0.042544  0  3.17545  0
S  S66  1  0.77586863  0.65697858  0.34347891  1  0  0.02665  0  2.747884  0  0  0.044001  0  3.166122  0  0  0.045206  0  3.152641  0  0  -0.035254  0.042623  0  3.175383  0
S  S67  1  0.22412975  0.15698329  0.15651415  1  0  0.026505  0  2.74802  0  0  0.043827  0  3.166182  0  0  0.045037  0  3.1527  0  0  -0.035305  0.04245  0  3.175438  0
S  S68  1  0.20668880  0.18854683  0.87339740  1  0  0.040414  0  2.696838  0  0  0.063937  0  3.094424  0  0  0.063029  0  3.084688  0  0  -0.021129  0.064021  0  3.101217  0
S  S69  1  0.79330767  0.68854539  0.62660429  1  0  0.040406  0  2.697041  0  0  0.063868  0  3.094545  0  0  0.062962  0  3.084804  0  0  -0.021145  0.063947  0  3.101341  0
S  S70  1  0.79330706  0.81145248  0.12659976  1  0  0.040446  0  2.697066  0  0  0.063936  0  3.094606  0  0  0.063026  0  3.084868  0  0  -0.021161  0.06402  0  3.101389  0
S  S71  1  0.20669785  0.31145973  0.37339739  1  0  0.040458  0  2.69699  0  0  0.063904  0  3.094512  0  0  0.063019  0  3.084765  0  0  -0.021137  0.063985  0  3.101299  0
I  I72  1  0.65803894  0.28476071  0.50817554  1  0  -0.393201  0  1.430563  0  0  -0.336667  0  1.810104  0  0  -0.352362  0  1.77889  0  0  -0.204616  -0.325772  0  1.83085  0
I  I73  1  0.34195976  0.78476337  0.99182255  1  0  -0.393208  0  1.43057  0  0  -0.33667  0  1.810094  0  0  -0.352373  0  1.7789  0  0  -0.204611  -0.325772  0  1.830839  0
I  I74  1  0.34196173  0.71523394  0.49182186  1  0  -0.393187  0  1.43053  0  0  -0.336653  0  1.810063  0  0  -0.352349  0  1.778849  0  0  -0.204616  -0.32576  0  1.830813  0
I  I75  1  0.65804819  0.21523012  0.00818410  1  0  -0.393174  0  1.430558  0  0  -0.336645  0  1.810093  0  0  -0.352345  0  1.778891  0  0  -0.204607  -0.325744  0  1.830837  0
