# generated using pymatgen
data_Cd2H6C5BrN2Cl3O4
_symmetry_space_group_name_H-M   'P 1'
_cell_length_a   6.93737635
_cell_length_b   9.94445146
_cell_length_c   9.94450866
_cell_angle_alpha   106.21054578
_cell_angle_beta   89.99996153
_cell_angle_gamma   90.00052644
_symmetry_Int_Tables_number   1
_chemical_formula_structural   Cd2H6C5BrN2Cl3O4
_chemical_formula_sum   'Cd4 H12 C10 Br2 N4 Cl6 O8'
_cell_volume   658.77977791
_cell_formula_units_Z   2
loop_
 _symmetry_equiv_pos_site_id
 _symmetry_equiv_pos_as_xyz
  1  'x, y, z'
loop_
 _atom_site_type_symbol
 _atom_site_label
 _atom_site_symmetry_multiplicity
 _atom_site_fract_x
 _atom_site_fract_y
 _atom_site_fract_z
 _atom_site_occupancy
 _atom_site_hle17_bader_spin_density
 _atom_site_hle17_ddec_charge
 _atom_site_hle17_ddec_spin_density
 _atom_site_hle17_ddec_sum_bond_order
 _atom_site_hle17_magmom
 _atom_site_hse06_10hf_bader_spin_density
 _atom_site_hse06_10hf_ddec_charge
 _atom_site_hse06_10hf_ddec_spin_density
 _atom_site_hse06_10hf_ddec_sum_bond_order
 _atom_site_hse06_10hf_magmom
 _atom_site_hse06_bader_spin_density
 _atom_site_hse06_ddec_charge
 _atom_site_hse06_ddec_spin_density
 _atom_site_hse06_ddec_sum_bond_order
 _atom_site_hse06_magmom
 _atom_site_pbe_bader_spin_density
 _atom_site_pbe_cm5_charge
 _atom_site_pbe_ddec_charge
 _atom_site_pbe_ddec_spin_density
 _atom_site_pbe_ddec_sum_bond_order
 _atom_site_pbe_magmom
Cd  Cd0  1  0.15890197  0.35366060  0.98675895  1  0  1.075844  0  1.844876  0  0  0.911496  0  2.311926  0  0  0.960171  0  2.264891  0  0  0.628436  0.876248  0  2.345152  0
Cd  Cd1  1  0.65890465  0.64633159  0.01323909  1  0  1.075834  0  1.844855  0  0  0.911523  0  2.311862  0  0  0.96019  0  2.264831  0  0  0.628443  0.876276  0  2.34509  0
Cd  Cd2  1  0.34110134  0.01324188  0.64634997  1  0  1.075839  0  1.844996  0  0  0.911509  0  2.312021  0  0  0.960187  0  2.264984  0  0  0.628452  0.876265  0  2.345251  0
Cd  Cd3  1  0.84109953  0.98676204  0.35366030  1  0  1.075905  0  1.84488  0  0  0.911561  0  2.311921  0  0  0.960233  0  2.264885  0  0  0.628446  0.876315  0  2.345151  0
H  H4  1  0.08059753  0.57789179  0.31376439  1  0  0.109729  0  0.935626  0  0  0.113383  0  1.005996  0  0  0.116652  0  1.002087  0  0  0.110646  0.110858  0  1.009093  0
H  H5  1  0.58059513  0.42210929  0.68623112  1  0  0.109798  0  0.935659  0  0  0.113375  0  1.006093  0  0  0.116643  0  1.002185  0  0  0.11062  0.11084  0  1.0092  0
H  H6  1  0.41939774  0.68624197  0.42211330  1  0  0.109716  0  0.935659  0  0  0.113279  0  1.006129  0  0  0.116546  0  1.002223  0  0  0.110613  0.110759  0  1.009221  0
H  H7  1  0.91939691  0.31376456  0.57788961  1  0  0.109764  0  0.935502  0  0  0.113323  0  1.005981  0  0  0.116593  0  1.002072  0  0  0.110611  0.110803  0  1.009072  0
H  H8  1  0.45523895  0.16094163  0.98965794  1  0  0.423843  0  0.878675  0  0  0.391706  0  0.943492  0  0  0.403377  0  0.926617  0  0  0.282943  0.383256  0  0.955741  0
H  H9  1  0.95523841  0.83905363  0.01034988  1  0  0.423926  0  0.878556  0  0  0.39179  0  0.943375  0  0  0.40346  0  0.926503  0  0  0.28297  0.383339  0  0.955627  0
H  H10  1  0.04476153  0.01034322  0.83905719  1  0  0.423888  0  0.878615  0  0  0.391736  0  0.943462  0  0  0.403407  0  0.926587  0  0  0.282934  0.383285  0  0.955714  0
H  H11  1  0.54476283  0.98965030  0.16094630  1  0  0.423897  0  0.878598  0  0  0.391767  0  0.943411  0  0  0.403431  0  0.926548  0  0  0.282961  0.383315  0  0.955665  0
H  H12  1  0.56036371  0.30604254  0.01686045  1  0  0.396336  0  0.911005  0  0  0.367526  0  0.973335  0  0  0.377198  0  0.959401  0  0  0.259073  0.360481  0  0.983569  0
H  H13  1  0.06036408  0.69395213  0.98314133  1  0  0.396412  0  0.910912  0  0  0.367617  0  0.973214  0  0  0.37729  0  0.959277  0  0  0.259102  0.360573  0  0.983446  0
H  H14  1  0.93963370  0.98314065  0.69395502  1  0  0.396385  0  0.91093  0  0  0.367583  0  0.973246  0  0  0.377258  0  0.959307  0  0  0.259107  0.360539  0  0.983477  0
H  H15  1  0.43963590  0.01685974  0.30605020  1  0  0.396398  0  0.910934  0  0  0.367595  0  0.973256  0  0  0.37727  0  0.959314  0  0  0.259079  0.36055  0  0.983489  0
C  C16  1  0.04444198  0.47772412  0.33209604  1  0  0.133479  0  3.681498  0  0  0.087292  0  3.948309  0  0  0.097754  0  3.961736  0  0  0.057699  0.080303  0  3.939758  0
C  C17  1  0.54444092  0.52227462  0.66789783  1  0  0.133312  0  3.681721  0  0  0.087201  0  3.948529  0  0  0.097663  0  3.961957  0  0  0.057666  0.080219  0  3.939982  0
C  C18  1  0.45555677  0.66790014  0.52227736  1  0  0.133486  0  3.681804  0  0  0.087394  0  3.948595  0  0  0.097857  0  3.962026  0  0  0.057753  0.0804  0  3.940043  0
C  C19  1  0.95555772  0.33210244  0.47772142  1  0  0.133438  0  3.681538  0  0  0.087279  0  3.948383  0  0  0.097741  0  3.96181  0  0  0.057665  0.080286  0  3.93983  0
C  C20  1  0.99999616  0.46524804  0.46524373  1  0  -0.027073  0  3.708272  0  0  -0.009094  0  3.986571  0  0  -0.01298  0  4.006555  0  0  -0.014637  -0.007582  0  3.974795  0
C  C21  1  0.50000497  0.53475693  0.53475369  1  0  -0.027013  0  3.708335  0  0  -0.009055  0  3.986622  0  0  -0.012942  0  4.006606  0  0  -0.014649  -0.007543  0  3.974844  0
C  C22  1  0.99999767  0.24045076  0.24044393  1  0  0.263224  0  3.711957  0  0  0.240766  0  3.970595  0  0  0.251938  0  3.983284  0  0  0.242696  0.233206  0  3.961963  0
C  C23  1  0.50000345  0.75955003  0.75955434  1  0  0.26325  0  3.711708  0  0  0.240829  0  3.970375  0  0  0.251998  0  3.983067  0  0  0.242659  0.233267  0  3.961746  0
C  C24  1  0.00000213  0.11297581  0.11297698  1  0  0.631855  0  3.849433  0  0  0.57433  0  4.143671  0  0  0.608709  0  4.134331  0  0  0.231492  0.551119  0  4.149179  0
C  C25  1  0.49999847  0.88702262  0.88701884  1  0  0.631617  0  3.849491  0  0  0.574087  0  4.143777  0  0  0.608459  0  4.134443  0  0  0.231439  0.550881  0  4.149275  0
Br  Br26  1  0.00000812  0.62270578  0.62268688  1  0  0.074842  0  1.416071  0  0  0.079512  0  1.694465  0  0  0.072462  0  1.691316  0  0  0.106863  0.084127  0  1.698884  0
Br  Br27  1  0.49999968  0.37731044  0.37730081  1  0  0.074847  0  1.416044  0  0  0.07951  0  1.694463  0  0  0.072462  0  1.691314  0  0  0.106868  0.084127  0  1.698874  0
N  N28  1  0.04457678  0.36459943  0.22092196  1  0  -0.34691  0  3.23074  0  0  -0.283464  0  3.498204  0  0  -0.303064  0  3.515073  0  0  -0.30885  -0.26994  0  3.486306  0
N  N29  1  0.54458288  0.63539826  0.77907464  1  0  -0.346891  0  3.230676  0  0  -0.283438  0  3.498099  0  0  -0.303039  0  3.514972  0  0  -0.308817  -0.269915  0  3.486201  0
N  N30  1  0.45542195  0.77907473  0.63540177  1  0  -0.346909  0  3.230611  0  0  -0.283492  0  3.498067  0  0  -0.303092  0  3.514935  0  0  -0.30884  -0.269972  0  3.486182  0
N  N31  1  0.95541434  0.22092680  0.36459471  1  0  -0.346985  0  3.230722  0  0  -0.283454  0  3.498114  0  0  -0.303055  0  3.514981  0  0  -0.3088  -0.269931  0  3.486219  0
Cl  Cl32  1  0.29312628  0.60237666  0.07585106  1  0  -0.566206  0  1.025703  0  0  -0.499501  0  1.314897  0  0  -0.519662  0  1.291021  0  0  -0.274318  -0.484509  0  1.333159  0
Cl  Cl33  1  0.79312044  0.39761958  0.92414905  1  0  -0.566195  0  1.02569  0  0  -0.499496  0  1.314897  0  0  -0.519654  0  1.29102  0  0  -0.27434  -0.484503  0  1.333157  0
Cl  Cl34  1  0.20687229  0.92415235  0.39762554  1  0  -0.566242  0  1.025673  0  0  -0.499525  0  1.314846  0  0  -0.519686  0  1.29097  0  0  -0.274337  -0.484532  0  1.333108  0
Cl  Cl35  1  0.70687550  0.07585065  0.60237849  1  0  -0.566241  0  1.02571  0  0  -0.499535  0  1.314901  0  0  -0.519696  0  1.291023  0  0  -0.274338  -0.484542  0  1.333162  0
Cl  Cl36  1  0.24999798  0.27562033  0.72437674  1  0  -0.571014  0  1.014172  0  0  -0.506934  0  1.314091  0  0  -0.528032  0  1.291351  0  0  -0.290764  -0.489971  0  1.331493  0
Cl  Cl37  1  0.74999999  0.72437981  0.27562749  1  0  -0.571039  0  1.014121  0  0  -0.506957  0  1.314032  0  0  -0.528054  0  1.291294  0  0  -0.290768  -0.489996  0  1.331444  0
O  O38  1  0.04948738  0.13122517  0.99685211  1  0  -0.591462  0  2.090199  0  0  -0.518699  0  2.324244  0  0  -0.546774  0  2.313687  0  0  -0.298847  -0.498887  0  2.330958  0
O  O39  1  0.54950598  0.86877466  0.00315011  1  0  -0.591394  0  2.089914  0  0  -0.518674  0  2.323977  0  0  -0.546718  0  2.313412  0  0  -0.298857  -0.498853  0  2.330674  0
O  O40  1  0.45051284  0.00314165  0.86877441  1  0  -0.591247  0  2.090465  0  0  -0.518465  0  2.324475  0  0  -0.546543  0  2.313924  0  0  -0.298767  -0.498666  0  2.331197  0
O  O41  1  0.95050562  0.99685775  0.13122449  1  0  -0.59141  0  2.090301  0  0  -0.518654  0  2.32434  0  0  -0.546724  0  2.31378  0  0  -0.298812  -0.498848  0  2.331058  0
O  O42  1  0.44923637  0.26044674  0.04803376  1  0  -0.820592  0  1.916176  0  0  -0.759059  0  2.101719  0  0  -0.781733  0  2.070692  0  0  -0.594594  -0.743288  0  2.124149  0
O  O43  1  0.94923502  0.73954953  0.95197131  1  0  -0.820717  0  1.916023  0  0  -0.75921  0  2.101581  0  0  -0.781883  0  2.070552  0  0  -0.594658  -0.743438  0  2.124016  0
O  O44  1  0.05076141  0.95196771  0.73955226  1  0  -0.820649  0  1.916088  0  0  -0.759109  0  2.101631  0  0  -0.781785  0  2.070599  0  0  -0.594619  -0.743336  0  2.124064  0
O  O45  1  0.55076604  0.04802689  0.26044851  1  0  -0.820674  0  1.916035  0  0  -0.759155  0  2.101551  0  0  -0.78183  0  2.070528  0  0  -0.594627  -0.743382  0  2.123989  0
