# generated using pymatgen
data_CdH20C30SN4O7
_symmetry_space_group_name_H-M   'P 1'
_cell_length_a   10.60983723
_cell_length_b   13.54960149
_cell_length_c   12.08767632
_cell_angle_alpha   90.53923420
_cell_angle_beta   111.21730429
_cell_angle_gamma   112.52862138
_symmetry_Int_Tables_number   1
_chemical_formula_structural   CdH20C30SN4O7
_chemical_formula_sum   'Cd2 H40 C60 S2 N8 O14'
_cell_volume   1474.01236447
_cell_formula_units_Z   2
loop_
 _symmetry_equiv_pos_site_id
 _symmetry_equiv_pos_as_xyz
  1  'x, y, z'
loop_
 _atom_site_type_symbol
 _atom_site_label
 _atom_site_symmetry_multiplicity
 _atom_site_fract_x
 _atom_site_fract_y
 _atom_site_fract_z
 _atom_site_occupancy
 _atom_site_pbe_bader_charge
 _atom_site_pbe_bader_spin_density
 _atom_site_pbe_cm5_charge
 _atom_site_pbe_ddec_charge
 _atom_site_pbe_ddec_spin_density
 _atom_site_pbe_ddec_sum_bond_order
 _atom_site_pbe_magmom
Cd  Cd0  1  0.50448389  0.18750804  0.49079077  1  1.263236  0  0.776321  0.876392  0  2.09554  0
Cd  Cd1  1  0.49553690  0.81250250  0.50922117  1  1.263133  0  0.776364  0.876417  0  2.095646  0
H  H2  1  0.55434933  0.02099814  0.33667453  1  0.15154  0  0.122252  0.109273  0  1.017862  0
H  H3  1  0.44565234  0.97899562  0.66333578  1  0.15188  0  0.122209  0.109158  0  1.017837  0
H  H4  1  0.54168852  0.89026865  0.21019998  1  0.52345  0  0.307937  0.283116  0  0.989894  0
H  H5  1  0.45830264  0.10972282  0.78980461  1  0.523762  0  0.307902  0.282997  0  0.989978  0
H  H6  1  0.19781527  0.42367165  0.27429240  1  0.450159  0  0.32429  0.275702  0  0.938102  0
H  H7  1  0.80218925  0.57633194  0.72570913  1  0.450088  0  0.324287  0.275717  0  0.938095  0
H  H8  1  0.21930866  0.92052733  0.97444399  1  0.1668  0  0.109709  0.128981  0  1.02939  0
H  H9  1  0.78067459  0.07946147  0.02558718  1  0.166476  0  0.109644  0.128916  0  1.029398  0
H  H10  1  0.11842575  0.04553570  0.02943858  1  0.066031  0  0.10267  0.103004  0  1.014947  0
H  H11  1  0.88156478  0.95445777  0.97058855  1  0.066456  0  0.102615  0.102995  0  1.014885  0
H  H12  1  0.23874664  0.14823400  0.24087960  1  0.080325  0  0.111542  0.085332  0  1.007519  0
H  H13  1  0.76125174  0.85176343  0.75914273  1  0.080451  0  0.111571  0.085293  0  1.007453  0
H  H14  1  0.59564339  0.76385273  0.21761557  1  0.085236  0  0.102932  0.100512  0  1.061089  0
H  H15  1  0.40436952  0.23614702  0.78237783  1  0.085519  0  0.102908  0.100543  0  1.061126  0
H  H16  1  0.71913708  0.64458154  0.20271573  1  0.087383  0  0.104085  0.11827  0  1.016365  0
H  H17  1  0.28088741  0.35544089  0.79728294  1  0.087618  0  0.104088  0.118251  0  1.016384  0
H  H18  1  0.55535340  0.62663632  0.81883251  1  0.089312  0  0.095869  0.1036  0  1.075572  0
H  H19  1  0.44462526  0.37335921  0.18115831  1  0.089347  0  0.09589  0.103652  0  1.075521  0
H  H20  1  0.43227365  0.74880159  0.83346051  1  0.131135  0  0.109836  0.118284  0  0.997431  0
H  H21  1  0.56768411  0.25118078  0.16653281  1  0.131759  0  0.109868  0.118316  0  0.997317  0
H  H22  1  0.93955537  0.73984407  0.11289449  1  0.058023  0  0.1042  0.11886  0  1.014966  0
H  H23  1  0.06046126  0.26016042  0.88708391  1  0.058207  0  0.104236  0.118851  0  1.014918  0
H  H24  1  0.19089512  0.74672148  0.23030395  1  0.135905  0  0.106869  0.114401  0  1.026119  0
H  H25  1  0.80911857  0.25328149  0.76969008  1  0.136243  0  0.106859  0.114435  0  1.026008  0
H  H26  1  0.00805491  0.39627429  0.14994848  1  0.053451  0  0.106545  0.099276  0  1.001945  0
H  H27  1  0.99193396  0.60372775  0.85005516  1  0.053284  0  0.106542  0.099248  0  1.002074  0
H  H28  1  0.76207727  0.39097552  0.03535939  1  0.101475  0  0.108116  0.126928  0  1.021461  0
H  H29  1  0.23792676  0.60904179  0.96464291  1  0.101609  0  0.108131  0.127  0  1.021328  0
H  H30  1  0.31103918  0.31808448  0.37652296  1  0.134414  0  0.117099  0.105801  0  1.033549  0
H  H31  1  0.68896819  0.68192892  0.62348810  1  0.134258  0  0.117124  0.105768  0  1.033694  0
H  H32  1  0.75670840  0.40178587  0.46098004  1  0.153805  0  0.119042  0.110745  0  1.00807  0
H  H33  1  0.24330633  0.59823112  0.53902104  1  0.154016  0  0.119049  0.110786  0  1.007978  0
H  H34  1  0.79495585  0.58857978  0.40902514  1  0.084241  0  0.102018  0.103244  0  1.030817  0
H  H35  1  0.20504592  0.41143352  0.59095773  1  0.084266  0  0.102068  0.103232  0  1.030846  0
H  H36  1  0.57587189  0.63656916  0.33273998  1  0.130975  0  0.113231  0.128819  0  1.030632  0
H  H37  1  0.42411901  0.36343258  0.66723174  1  0.131191  0  0.113216  0.128735  0  1.030856  0
H  H38  1  0.13791718  0.03723265  0.72602683  1  0.089733  0  0.108571  0.123774  0  0.988448  0
H  H39  1  0.86206777  0.96274594  0.27395610  1  0.089238  0  0.108626  0.123859  0  0.988402  0
H  H40  1  0.89217516  0.05398998  0.71783029  1  0.076918  0  0.102737  0.116199  0  1.031155  0
H  H41  1  0.10779972  0.94597319  0.28213957  1  0.077186  0  0.102704  0.116107  0  1.031167  0
C  C42  1  0.45731042  0.02437355  0.26645516  1  0.584825  0  0.056841  0.027518  0  3.85691  0
C  C43  1  0.54269035  0.97561861  0.73355470  1  0.584686  0  0.056918  0.027641  0  3.85673  0
C  C44  1  0.39417523  0.96026981  0.15165238  1  0.33749  0  0.114049  0.224813  0  3.973426  0
C  C45  1  0.60581624  0.03971742  0.84836341  1  0.337604  0  0.114052  0.224708  0  3.973129  0
C  C46  1  0.26906669  0.96771373  0.06423024  1  -0.016348  0  -0.079  -0.140799  0  3.921466  0
C  C47  1  0.73092678  0.03228139  0.93579791  1  -0.015407  0  -0.078862  -0.140447  0  3.921287  0
C  C48  1  0.21374311  0.03674762  0.09582516  1  -0.045901  0  -0.092374  -0.124115  0  4.053695  0
C  C49  1  0.78624899  0.96324522  0.90420067  1  -0.046472  0  -0.092461  -0.124468  0  4.05409  0
C  C50  1  0.28089687  0.09550811  0.21182908  1  0.459971  0  0.027551  0.050115  0  4.013076  0
C  C51  1  0.71910296  0.90449022  0.78819294  1  0.460002  0  0.027647  0.050376  0  4.013183  0
C  C52  1  0.42375274  0.83339780  0.02522556  1  1.365593  0  0.238908  0.476243  0  4.113048  0
C  C53  1  0.57623150  0.16659791  0.97477432  1  1.36571  0  0.238876  0.476011  0  4.113818  0
C  C54  1  0.50745307  0.76588279  0.02629086  1  -0.000936  0  -0.026309  -0.066459  0  4.007347  0
C  C55  1  0.49253524  0.23411978  0.97369771  1  -0.000621  0  -0.026236  -0.06639  0  4.007525  0
C  C56  1  0.58896371  0.73638223  0.12994926  1  -0.035619  0  -0.084724  -0.082272  0  3.982749  0
C  C57  1  0.41104003  0.26362495  0.87003920  1  -0.036393  0  -0.08474  -0.082315  0  3.982807  0
C  C58  1  0.65770422  0.66862599  0.12232999  1  0.011283  0  -0.101247  -0.197906  0  3.989431  0
C  C59  1  0.34230348  0.33138255  0.87766308  1  0.011052  0  -0.101139  -0.197795  0  3.989242  0
C  C60  1  0.64380073  0.62939062  0.00938513  1  0.317046  0  0.085121  0.261312  0  4.032511  0
C  C61  1  0.35620012  0.37061433  0.99060890  1  0.317502  0  0.085132  0.26143  0  4.032424  0
C  C62  1  0.56375072  0.65828207  0.90529576  1  0.021263  0  -0.105911  -0.198543  0  3.995506  0
C  C63  1  0.43623156  0.34171261  0.09469679  1  0.021513  0  -0.105942  -0.198586  0  3.995311  0
C  C64  1  0.49597789  0.72593447  0.91381585  1  -0.054414  0  -0.078522  -0.066292  0  3.978202  0
C  C65  1  0.50399617  0.27405436  0.08617534  1  -0.055726  0  -0.078688  -0.066457  0  3.978178  0
C  C66  1  0.83627009  0.56445269  0.06726420  1  0.405472  0  0.092915  0.27129  0  4.031556  0
C  C67  1  0.16373885  0.43555987  0.93272971  1  0.405524  0  0.092865  0.271087  0  4.031683  0
C  C68  1  0.95601687  0.66528515  0.12197879  1  -0.087215  0  -0.104125  -0.215486  0  3.996775  0
C  C69  1  0.04400110  0.33472210  0.87801447  1  -0.087088  0  -0.104075  -0.215216  0  3.996422  0
C  C70  1  0.09611821  0.66903577  0.18776680  1  0.067643  0  -0.076138  -0.049128  0  3.94637  0
C  C71  1  0.90389451  0.33096675  0.81223189  1  0.067399  0  -0.076222  -0.04933  0  3.946196  0
C  C72  1  0.11889762  0.57348806  0.20095241  1  -0.062735  0  -0.030397  -0.078291  0  4.027876  0
C  C73  1  0.88111656  0.42651535  0.79904596  1  -0.063083  0  -0.030389  -0.078267  0  4.027903  0
C  C74  1  0.99686605  0.47311064  0.14547928  1  -0.033774  0  -0.080576  -0.078605  0  3.998464  0
C  C75  1  0.00313914  0.52689770  0.85452387  1  -0.033465  0  -0.080588  -0.078662  0  3.998489  0
C  C76  1  0.85653185  0.46829155  0.07904918  1  0.025828  0  -0.097249  -0.18426  0  3.963651  0
C  C77  1  0.14347602  0.53172186  0.92095287  1  0.025209  0  -0.09716  -0.184122  0  3.963547  0
C  C78  1  0.27333255  0.58616642  0.26946177  1  1.387306  0  0.24475  0.486106  0  4.103223  0
C  C79  1  0.72668490  0.41383389  0.73053630  1  1.386969  0  0.24493  0.486471  0  4.102726  0
C  C80  1  0.42424191  0.47926237  0.34235358  1  0.360925  0  0.103718  0.207393  0  4.032348  0
C  C81  1  0.57577037  0.52073926  0.65764570  1  0.361038  0  0.10367  0.207245  0  4.03219  0
C  C82  1  0.41545964  0.37970722  0.37883792  1  0.5018  0  0.035845  -0.039112  0  3.949291  0
C  C83  1  0.58455281  0.62029922  0.62117117  1  0.50185  0  0.035799  -0.039143  0  3.949509  0
C  C84  1  0.66631450  0.42790642  0.42906487  1  0.459717  0  0.03801  0.069122  0  3.931463  0
C  C85  1  0.33369549  0.57210585  0.57093263  1  0.459929  0  0.038086  0.06927  0  3.931266  0
C  C86  1  0.68500824  0.52989820  0.39841779  1  -0.04614  0  -0.084641  -0.115336  0  3.998694  0
C  C87  1  0.31499683  0.47011163  0.60156889  1  -0.046069  0  -0.084751  -0.115459  0  3.99896  0
C  C88  1  0.56410243  0.55729075  0.35561250  1  0.01078  0  -0.071961  -0.124332  0  3.901163  0
C  C89  1  0.43589937  0.44271503  0.64437275  1  0.010497  0  -0.071914  -0.124149  0  3.901335  0
C  C90  1  0.25780087  0.13646106  0.55375148  1  1.551319  0  0.187512  0.56831  0  4.276602  0
C  C91  1  0.74219860  0.86354184  0.44623775  1  1.550384  0  0.187509  0.56827  0  4.276452  0
C  C92  1  0.12945550  0.12942329  0.57944978  1  -0.193058  0  -0.030861  -0.135212  0  4.005194  0
C  C93  1  0.87054707  0.87057905  0.42054689  1  -0.193068  0  -0.030951  -0.135266  0  4.00521  0
C  C94  1  0.08125606  0.07956290  0.66509931  1  0.006995  0  -0.09635  -0.109127  0  4.012324  0
C  C95  1  0.91874425  0.92042832  0.33489366  1  0.007531  0  -0.096349  -0.109246  0  4.012272  0
C  C96  1  0.95142758  0.08843096  0.66092503  1  0.024305  0  -0.099873  -0.107959  0  3.985971  0
C  C97  1  0.04856437  0.91154930  0.33906007  1  0.023703  0  -0.099949  -0.107802  0  3.985791  0
C  C98  1  0.90319598  0.14591905  0.57323839  1  -0.210606  0  -0.020692  -0.100382  0  3.960638  0
C  C99  1  0.09679702  0.85406793  0.42675367  1  -0.21024  0  -0.020682  -0.100622  0  3.960633  0
C  C100  1  0.77324500  0.17293302  0.54100852  1  1.574647  0  0.181159  0.555445  0  4.297906  0
C  C101  1  0.22675722  0.82705309  0.45899681  1  1.573746  0  0.181242  0.555705  0  4.297617  0
S  S102  1  0.01615823  0.18791285  0.49530264  1  0.261974  0  0.098367  0.157887  0  2.911477  0
S  S103  1  0.98384811  0.81209367  0.50470309  1  0.262038  0  0.09839  0.157938  0  2.911489  0
N  N104  1  0.40125921  0.08891813  0.29521443  1  -1.241255  0  -0.328722  -0.22932  0  3.564539  0
N  N105  1  0.59875247  0.91108479  0.70479733  1  -1.24088  0  -0.328811  -0.229383  0  3.564626  0
N  N106  1  0.46004047  0.89353628  0.13341727  1  -1.282607  0  -0.389909  -0.367012  0  3.550092  0
N  N107  1  0.53993990  0.10644982  0.86658863  1  -1.283315  0  -0.389841  -0.36685  0  3.550311  0
N  N108  1  0.29165974  0.49220178  0.29273031  1  -1.248036  0  -0.396037  -0.3713  0  3.601744  0
N  N109  1  0.70835164  0.50779817  0.70726934  1  -1.247144  0  -0.39605  -0.371337  0  3.601318  0
N  N110  1  0.53307025  0.35496045  0.42086548  1  -1.239101  0  -0.326565  -0.21803  0  3.542378  0
N  N111  1  0.46694510  0.64504792  0.57914133  1  -1.23947  0  -0.326576  -0.218064  0  3.542363  0
O  O112  1  0.27092929  0.17874107  0.46170430  1  -1.166416  0  -0.337173  -0.567169  0  2.262933  0
O  O113  1  0.72907752  0.82126585  0.53828831  1  -1.166323  0  -0.337081  -0.567116  0  2.263126  0
O  O114  1  0.35182542  0.10441411  0.62277899  1  -1.183746  0  -0.318735  -0.55345  0  2.205113  0
O  O115  1  0.64815997  0.89557967  0.37720683  1  -1.183025  0  -0.318766  -0.553456  0  2.204895  0
O  O116  1  0.67513690  0.12226538  0.58351906  1  -1.14282  0  -0.329277  -0.538082  0  2.219891  0
O  O117  1  0.32485551  0.87770159  0.41647863  1  -1.142059  0  -0.32932  -0.538101  0  2.219963  0
O  O118  1  0.76336185  0.24261299  0.47351703  1  -1.16478  0  -0.338307  -0.568492  0  2.149098  0
O  O119  1  0.23664420  0.75739081  0.52650990  1  -1.164561  0  -0.338284  -0.568527  0  2.149054  0
O  O120  1  0.32634675  0.83350535  0.92946667  1  -1.139345  0  -0.301225  -0.486388  0  2.097898  0
O  O121  1  0.67362041  0.16649485  0.07053984  1  -1.13925  0  -0.301242  -0.486232  0  2.098404  0
O  O122  1  0.69646532  0.55350293  0.99305708  1  -1.096987  0  -0.147036  -0.206204  0  2.574177  0
O  O123  1  0.30354852  0.44651203  0.00693019  1  -1.09696  0  -0.147063  -0.206295  0  2.574179  0
O  O124  1  0.38102427  0.67648817  0.30363944  1  -1.158442  0  -0.286724  -0.487038  0  2.238734  0
O  O125  1  0.61899468  0.32351251  0.69636407  1  -1.158703  0  -0.286845  -0.487292  0  2.238726  0
