# generated using pymatgen
data_ErH22C27N3O8
_symmetry_space_group_name_H-M   'P 1'
_cell_length_a   10.15989182
_cell_length_b   12.47319747
_cell_length_c   12.09288113
_cell_angle_alpha   93.93112741
_cell_angle_beta   95.74796484
_cell_angle_gamma   101.49310535
_symmetry_Int_Tables_number   1
_chemical_formula_structural   ErH22C27N3O8
_chemical_formula_sum   'Er2 H44 C54 N6 O16'
_cell_volume   1488.03777567
_cell_formula_units_Z   2
loop_
 _symmetry_equiv_pos_site_id
 _symmetry_equiv_pos_as_xyz
  1  'x, y, z'
loop_
 _atom_site_type_symbol
 _atom_site_label
 _atom_site_symmetry_multiplicity
 _atom_site_fract_x
 _atom_site_fract_y
 _atom_site_fract_z
 _atom_site_occupancy
 _atom_site_pbe_bader_charge
 _atom_site_pbe_bader_spin_density
 _atom_site_pbe_cm5_charge
 _atom_site_pbe_ddec_charge
 _atom_site_pbe_ddec_spin_density
 _atom_site_pbe_ddec_sum_bond_order
 _atom_site_pbe_magmom
Er  Er0  1  0.65843861  0.07788303  0.40525370  1  2.146035  0  1.499201  2.02031  0  2.169058  0
Er  Er1  1  0.34154775  0.92214266  0.59474060  1  2.146204  0  1.499444  2.02039  0  2.168936  0
H  H2  1  0.81609572  0.66618787  0.24317365  1  0.060818  0  0.096809  0.106377  0  1.028152  0
H  H3  1  0.18395377  0.33383146  0.75686046  1  0.061105  0  0.096803  0.10615  0  1.02801  0
H  H4  1  0.71571913  0.81822009  0.31121204  1  0.100976  0  0.1036  0.099673  0  1.06083  0
H  H5  1  0.28432512  0.18180495  0.68884782  1  0.101747  0  0.103504  0.099577  0  1.060794  0
H  H6  1  0.40004914  0.59072383  0.43404120  1  0.082845  0  0.100122  0.102793  0  1.007115  0
H  H7  1  0.59996598  0.40928222  0.56594946  1  0.082109  0  0.100157  0.102777  0  1.007126  0
H  H8  1  0.50113467  0.43659314  0.37014193  1  0.078569  0  0.099841  0.106548  0  1.039101  0
H  H9  1  0.49889364  0.56342995  0.62987944  1  0.077949  0  0.099975  0.106842  0  1.039337  0
H  H10  1  0.85894625  0.17856371  0.84140729  1  0.059519  0  0.101078  0.111311  0  1.006533  0
H  H11  1  0.14098062  0.82140906  0.15858996  1  0.06002  0  0.101041  0.111219  0  1.006829  0
H  H12  1  0.97390162  0.08351446  0.70397596  1  0.096399  0  0.098228  0.107828  0  1.033549  0
H  H13  1  0.02609837  0.91647427  0.29599233  1  0.096688  0  0.098284  0.107934  0  1.033353  0
H  H14  1  0.26765676  0.03560406  0.96674081  1  0.122924  0  0.111986  0.122125  0  0.974335  0
H  H15  1  0.73231849  0.96439970  0.03327382  1  0.1227  0  0.111961  0.122095  0  0.974452  0
H  H16  1  0.15369565  0.12976165  0.10550101  1  0.08142  0  0.098291  0.10336  0  1.039732  0
H  H17  1  0.84626368  0.87021241  0.89446139  1  0.081614  0  0.098304  0.10331  0  1.039688  0
H  H18  1  0.60187978  0.56869553  0.96045208  1  0.077194  0  0.10346  0.113919  0  1.026646  0
H  H19  1  0.39813352  0.43131145  0.03957864  1  0.077215  0  0.103494  0.113966  0  1.026887  0
H  H20  1  0.47363716  0.69718391  0.88074922  1  0.100865  0  0.110072  0.113264  0  0.998688  0
H  H21  1  0.52635043  0.30284232  0.11928600  1  0.100699  0  0.110174  0.113408  0  0.998803  0
H  H22  1  0.76380095  0.77841583  0.64740549  1  0.079547  0  0.106731  0.111448  0  0.985189  0
H  H23  1  0.23615800  0.22153416  0.35258485  1  0.080006  0  0.106687  0.111482  0  0.985188  0
H  H24  1  0.89390505  0.64701716  0.72616376  1  0.039931  0  0.098545  0.102781  0  1.022698  0
H  H25  1  0.10603433  0.35292424  0.27382658  1  0.039626  0  0.098633  0.102908  0  1.022575  0
H  H26  1  0.73976749  0.57249113  0.08571137  1  0.069163  0  0.100719  0.124079  0  1.05857  0
H  H27  1  0.26028614  0.42751230  0.91431051  1  0.069271  0  0.1007  0.124064  0  1.058517  0
H  H28  1  0.92143587  0.34681345  0.89667301  1  0.045731  0  0.097356  0.111477  0  1.048685  0
H  H29  1  0.07851269  0.65315691  0.10332444  1  0.045526  0  0.09741  0.111567  0  1.048424  0
H  H30  1  0.82619381  0.28323770  0.22922099  1  0.115613  0  0.109007  0.135614  0  1.026921  0
H  H31  1  0.17379482  0.71678679  0.77078420  1  0.115135  0  0.108999  0.135647  0  1.026967  0
H  H32  1  0.67585805  0.37640796  0.29601365  1  0.506142  0  0.301999  0.270991  0  0.99426  0
H  H33  1  0.32424155  0.62360655  0.70400337  1  0.506416  0  0.302175  0.271269  0  0.994152  0
H  H34  1  0.96295819  0.19041595  0.14200788  1  0.457761  0  0.317453  0.264643  0  0.944181  0
H  H35  1  0.03699243  0.80954879  0.85797798  1  0.457942  0  0.317523  0.264613  0  0.944104  0
H  H36  1  0.91165516  0.51711281  0.84329011  1  0.45929  0  0.313861  0.262098  0  0.948881  0
H  H37  1  0.08831699  0.48285702  0.15668998  1  0.459409  0  0.313867  0.262261  0  0.948732  0
H  H38  1  0.93432756  0.18563584  0.47410167  1  0.650631  0  0.345077  0.434775  0  0.843816  0
H  H39  1  0.06569374  0.81437044  0.52587483  1  0.646978  0  0.344949  0.434635  0  0.844036  0
H  H40  1  0.84833051  0.27325854  0.50601350  1  0.634021  0  0.339614  0.427268  0  0.853692  0
H  H41  1  0.15166670  0.72672983  0.49397231  1  0.633811  0  0.339588  0.427332  0  0.853597  0
H  H42  1  0.72722995  0.10792621  0.62846508  1  0.607443  0  0.316206  0.395611  0  0.909941  0
H  H43  1  0.27276491  0.89207345  0.37154224  1  0.607566  0  0.316267  0.395677  0  0.9098  0
H  H44  1  0.69650051  0.98039748  0.61903311  1  0.672959  0  0.305567  0.419373  0  0.905131  0
H  H45  1  0.30350320  0.01960162  0.38096593  1  0.672921  0  0.305587  0.419427  0  0.905075  0
C  C46  1  0.66410787  0.53878629  0.29909419  1  0.39425  0  0.10468  0.25494  0  4.042986  0
C  C47  1  0.33592518  0.46123783  0.70086958  1  0.393402  0  0.104323  0.254504  0  4.042979  0
C  C48  1  0.72371845  0.64819063  0.28319251  1  -0.039811  0  -0.110053  -0.206398  0  3.984109  0
C  C49  1  0.27634176  0.35184576  0.71682136  1  -0.039378  0  -0.109915  -0.205888  0  3.98361  0
C  C50  1  0.66718028  0.73424317  0.32141536  1  -0.023339  0  -0.081889  -0.060495  0  3.981938  0
C  C51  1  0.33289161  0.26577800  0.67862974  1  -0.024315  0  -0.081718  -0.06048  0  3.981674  0
C  C52  1  0.54922017  0.71553491  0.37496396  1  0.008524  0  -0.039862  -0.090979  0  4.007217  0
C  C53  1  0.45080109  0.28449092  0.62501556  1  0.008156  0  -0.039533  -0.090647  0  4.007711  0
C  C54  1  0.49116429  0.60662128  0.39223164  1  -0.051714  0  -0.084622  -0.063896  0  3.998067  0
C  C55  1  0.50890256  0.39339780  0.60781429  1  -0.051237  0  -0.084846  -0.063953  0  3.998061  0
C  C56  1  0.54812018  0.52036510  0.35658298  1  -0.064071  0  -0.102705  -0.195976  0  3.979644  0
C  C57  1  0.45195752  0.47966449  0.64343196  1  -0.06287  0  -0.102772  -0.1964  0  3.980033  0
C  C58  1  0.48961460  0.80721717  0.41544048  1  1.49968  0  0.222838  0.649735  0  4.158212  0
C  C59  1  0.51038504  0.19281233  0.58456221  1  1.499393  0  0.222906  0.650106  0  4.158621  0
C  C60  1  0.00131647  0.16369151  0.98250799  1  0.29608  0  0.105268  0.250168  0  4.040224  0
C  C61  1  0.99863739  0.83626908  0.01749049  1  0.296731  0  0.10536  0.25039  0  4.040019  0
C  C62  1  0.95108002  0.15079880  0.86838954  1  0.001739  0  -0.105485  -0.198771  0  3.983762  0
C  C63  1  0.04887584  0.84917266  0.13160209  1  0.000654  0  -0.105553  -0.198748  0  3.984625  0
C  C64  1  0.01447791  0.09688260  0.79184409  1  -0.053098  0  -0.089557  -0.081002  0  4.001852  0
C  C65  1  0.98551564  0.90312015  0.20812726  1  -0.052689  0  -0.089514  -0.080968  0  4.002451  0
C  C66  1  0.12919935  0.05565273  0.82654079  1  -0.000912  0  -0.035815  -0.071163  0  4.021509  0
C  C67  1  0.87079198  0.94434410  0.17344818  1  -0.001069  0  -0.036044  -0.071525  0  4.021947  0
C  C68  1  0.17873856  0.06805604  0.94033659  1  -0.117535  0  -0.078707  -0.060933  0  3.975566  0
C  C69  1  0.82122178  0.93192526  0.05966076  1  -0.116746  0  -0.078476  -0.060612  0  3.975352  0
C  C70  1  0.11540073  0.12067718  0.01716864  1  0.049935  0  -0.099466  -0.193585  0  3.993676  0
C  C71  1  0.88455280  0.87929532  0.98281962  1  0.048345  0  -0.099498  -0.193669  0  3.993406  0
C  C72  1  0.19850781  0.00137053  0.74457228  1  1.469279  0  0.170619  0.546624  0  4.275675  0
C  C73  1  0.80148468  0.99861893  0.25542267  1  1.469537  0  0.170676  0.546834  0  4.275484  0
C  C74  1  0.75934975  0.59934812  0.85050876  1  0.36582  0  0.109251  0.263453  0  4.039748  0
C  C75  1  0.24062897  0.40064608  0.14948434  1  0.365039  0  0.109485  0.264046  0  4.039875  0
C  C76  1  0.64006807  0.61539988  0.89372554  1  -0.018257  0  -0.101276  -0.19152  0  3.957125  0
C  C77  1  0.35991125  0.38460467  0.10626572  1  -0.018153  0  -0.101425  -0.191794  0  3.957674  0
C  C78  1  0.56692145  0.68729656  0.84782658  1  -0.037256  0  -0.078466  -0.063166  0  3.989793  0
C  C79  1  0.43305740  0.31271210  0.15216628  1  -0.037351  0  -0.07861  -0.063326  0  3.990203  0
C  C80  1  0.60956962  0.74698889  0.75902103  1  -0.047627  0  -0.036379  -0.085707  0  4.033104  0
C  C81  1  0.39042690  0.25303421  0.24097673  1  -0.04782  0  -0.036374  -0.085735  0  4.032732  0
C  C82  1  0.72996020  0.73340017  0.71713440  1  -0.030094  0  -0.083907  -0.07864  0  4.019903  0
C  C83  1  0.27001272  0.26659799  0.28286527  1  -0.031293  0  -0.083812  -0.078576  0  4.019125  0
C  C84  1  0.80247376  0.65986554  0.76099075  1  0.002301  0  -0.108185  -0.219055  0  4.01095  0
C  C85  1  0.19748325  0.34012222  0.23898393  1  0.003988  0  -0.108377  -0.219412  0  4.010725  0
C  C86  1  0.51949071  0.81098494  0.70365755  1  1.512675  0  0.201473  0.594415  0  4.185698  0
C  C87  1  0.48049631  0.18900960  0.29633811  1  1.513214  0  0.201245  0.594111  0  4.186149  0
C  C88  1  0.77599551  0.43045408  0.16826666  1  0.353947  0  0.089015  0.264293  0  4.10976  0
C  C89  1  0.22404878  0.56956931  0.83174731  1  0.353654  0  0.089076  0.264133  0  4.109389  0
C  C90  1  0.77669988  0.49687632  0.07859556  1  -0.030816  0  -0.132004  -0.347692  0  3.952984  0
C  C91  1  0.22332850  0.50312363  0.92140949  1  -0.031128  0  -0.131877  -0.347563  0  3.952757  0
C  C92  1  0.82586737  0.46344985  0.98020713  1  0.360997  0  0.091809  0.27103  0  4.090957  0
C  C93  1  0.17412794  0.53654437  0.01978358  1  0.360993  0  0.091622  0.270773  0  4.091167  0
C  C94  1  0.87736945  0.36719144  0.97165551  1  0.026034  0  -0.127524  -0.334613  0  3.977656  0
C  C95  1  0.12262205  0.63280630  0.02833428  1  0.026321  0  -0.1275  -0.334672  0  3.977489  0
C  C96  1  0.88041687  0.30327115  0.06232048  1  0.350396  0  0.095557  0.274295  0  4.113034  0
C  C97  1  0.11958400  0.69673449  0.93768345  1  0.350145  0  0.095565  0.274463  0  4.113061  0
C  C98  1  0.82891319  0.33492111  0.16010498  1  -0.052166  0  -0.123773  -0.343533  0  3.965699  0
C  C99  1  0.17110553  0.66510007  0.83988880  1  -0.051111  0  -0.123824  -0.343556  0  3.965387  0
N  N100  1  0.71630770  0.44925322  0.26526048  1  -1.275505  0  -0.415896  -0.357014  0  3.57835  0
N  N101  1  0.28378567  0.55077994  0.73476621  1  -1.275847  0  -0.416011  -0.357013  0  3.578052  0
N  N102  1  0.93924553  0.21171342  0.06414417  1  -1.250492  0  -0.408153  -0.335313  0  3.598168  0
N  N103  1  0.06071517  0.78826455  0.93584239  1  -1.250447  0  -0.40831  -0.335499  0  3.59841  0
N  N104  1  0.83388211  0.52538360  0.88766055  1  -1.268753  0  -0.405796  -0.331316  0  3.602108  0
N  N105  1  0.16608968  0.47458975  0.11231447  1  -1.268848  0  -0.40588  -0.331618  0  3.602528  0
O  O106  1  0.55134814  0.90682025  0.41003751  1  -1.222691  0  -0.435255  -0.741254  0  2.388531  0
O  O107  1  0.44867080  0.09321886  0.58998604  1  -1.222683  0  -0.435446  -0.741589  0  2.388663  0
O  O108  1  0.37709000  0.78619264  0.45765424  1  -1.216253  0  -0.39827  -0.699142  0  2.259475  0
O  O109  1  0.62294995  0.21380704  0.54238764  1  -1.21552  0  -0.398375  -0.699442  0  2.259106  0
O  O110  1  0.30711018  0.96855810  0.77639967  1  -1.173527  0  -0.403918  -0.633803  0  2.16599  0
O  O111  1  0.69286208  0.03141760  0.22360120  1  -1.173754  0  -0.403928  -0.633891  0  2.165697  0
O  O112  1  0.15247946  0.98905307  0.63998186  1  -1.179763  0  -0.413736  -0.654674  0  2.163962  0
O  O113  1  0.84752464  0.01092913  0.36000744  1  -1.179994  0  -0.413617  -0.654751  0  2.164063  0
O  O114  1  0.56448218  0.90057893  0.66006125  1  -1.205403  0  -0.375766  -0.658302  0  2.281568  0
O  O115  1  0.43546936  0.09940792  0.33991006  1  -1.205345  0  -0.375592  -0.658096  0  2.281469  0
O  O116  1  0.39137052  0.77507670  0.69528538  1  -1.1856  0  -0.368535  -0.61359  0  2.268231  0
O  O117  1  0.60861636  0.22493836  0.30468822  1  -1.185717  0  -0.368354  -0.613473  0  2.268554  0
O  O118  1  0.86279686  0.22201766  0.44605627  1  -1.232934  0  -0.596089  -0.794099  0  2.011527  0
O  O119  1  0.13721111  0.77797847  0.55393117  1  -1.229065  0  -0.595901  -0.794031  0  2.011517  0
O  O120  1  0.75112656  0.04532538  0.58788191  1  -1.259841  0  -0.624444  -0.830941  0  2.03347  0
O  O121  1  0.24889404  0.95467605  0.41213142  1  -1.259848  0  -0.624509  -0.831023  0  2.033504  0
