# generated using pymatgen
data_Zn2H27C52N2Cl5O8
_symmetry_space_group_name_H-M   'P 1'
_cell_length_a   13.47025347
_cell_length_b   18.23704394
_cell_length_c   19.65501581
_cell_angle_alpha   91.09182381
_cell_angle_beta   90.69316984
_cell_angle_gamma   67.34379937
_symmetry_Int_Tables_number   1
_chemical_formula_structural   Zn2H27C52N2Cl5O8
_chemical_formula_sum   'Zn2 H27 C52 N2 Cl5 O8'
_cell_volume   4454.94156108
_cell_formula_units_Z   1
loop_
 _symmetry_equiv_pos_site_id
 _symmetry_equiv_pos_as_xyz
  1  'x, y, z'
loop_
 _atom_site_type_symbol
 _atom_site_label
 _atom_site_symmetry_multiplicity
 _atom_site_fract_x
 _atom_site_fract_y
 _atom_site_fract_z
 _atom_site_occupancy
 _atom_site_pbe_bader_charge
 _atom_site_pbe_bader_spin_density
 _atom_site_pbe_cm5_charge
 _atom_site_pbe_ddec_charge
 _atom_site_pbe_ddec_spin_density
 _atom_site_pbe_ddec_sum_bond_order
 _atom_site_pbe_magmom
Zn  Zn0  1  0.51229873  0.42212254  0.50048770  1  1.284957  0  0.667363  0.819998  0  2.438216  0
Zn  Zn1  1  0.48785074  0.57905767  0.50239995  1  1.280644  0  0.666373  0.817244  0  2.416649  0
H  H2  1  0.14411904  0.68328336  0.42998447  1  0.084908  0  0.101562  0.105719  0  1.003378  0
H  H3  1  0.51787119  0.60703992  0.15701255  1  0.035792  0  0.102428  0.103393  0  0.997768  0
H  H4  1  0.64054389  0.38447189  0.93678162  1  0.064157  0  0.101316  0.100874  0  1.001106  0
H  H5  1  0.37766074  0.61303623  0.93919450  1  0.066176  0  0.100811  0.099691  0  1.004545  0
H  H6  1  0.47934980  0.62451122  0.84670548  1  0.062494  0  0.098584  0.096864  0  1.007474  0
H  H7  1  0.53950819  0.37600945  0.71494392  1  0.095945  0  0.100502  0.103448  0  1.005412  0
H  H8  1  0.80617933  0.65793461  0.39327457  1  0.067738  0  0.096723  0.0974  0  1.000961  0
H  H9  1  0.54003664  0.37453210  0.84177402  1  0.046591  0  0.099381  0.098142  0  1.007809  0
H  H10  1  0.36635954  0.34786013  0.44319603  1  0.146501  0  0.133315  0.124114  0  0.973925  0
H  H11  1  0.64376831  0.26680791  0.56145195  1  0.140728  0  0.133439  0.122832  0  0.966621  0
H  H12  1  0.46507221  0.07781748  0.60839824  1  0.081055  0  0.107638  0.113755  0  0.980072  0
H  H13  1  0.46779016  0.94108615  0.60543168  1  0.080567  0  0.108683  0.115094  0  0.979097  0
H  H14  1  0.53515408  0.92341893  0.39061183  1  0.10275  0  0.107861  0.114401  0  0.979497  0
H  H15  1  0.53269561  0.06008618  0.39360640  1  0.066839  0  0.10881  0.115146  0  0.979571  0
H  H16  1  0.95452758  0.70490333  0.39830326  1  0.062141  0  0.097655  0.096475  0  1.002583  0
H  H17  1  0.63866325  0.65277656  0.55473108  1  0.170787  0  0.13364  0.12746  0  0.97506  0
H  H18  1  0.19047965  0.45696904  0.51136817  1  0.067503  0  0.100494  0.104167  0  1.036431  0
H  H19  1  0.13566366  0.37197374  0.52177254  1  0.025521  0  0.096036  0.093466  0  1.029098  0
H  H20  1  0.51646741  0.61062933  0.28431663  1  0.102144  0  0.103494  0.109703  0  1.000771  0
H  H21  1  0.48125672  0.38675617  0.28440209  1  0.117804  0  0.106309  0.125892  0  0.998162  0
H  H22  1  0.63496998  0.38098172  0.06222209  1  0.084214  0  0.098536  0.103122  0  0.999889  0
H  H23  1  0.37414662  0.61031088  0.06505909  1  0.031293  0  0.1007  0.100699  0  0.99864  0
H  H24  1  0.47517985  0.62509803  0.71975194  1  0.117588  0  0.102087  0.106425  0  1.000849  0
H  H25  1  0.35413568  0.73419242  0.44335424  1  0.138566  0  0.131992  0.123316  0  0.97378  0
H  H26  1  0.85885083  0.31070670  0.53712173  1  0.074633  0  0.102747  0.106628  0  0.998768  0
H  H27  1  0.05747576  0.27503910  0.55044393  1  0.030428  0  0.097466  0.09384  0  0.998733  0
H  H28  1  0.72827810  0.56197032  0.42622318  1  0.0975  0  0.102757  0.116574  0  1.016946  0
C  C29  1  0.50417419  0.50103699  0.63361713  1  1.56947  0  0.213448  0.595811  0  4.162142  0
C  C30  1  0.98580664  0.46181328  0.48617254  1  0.0607  0  -0.002324  0.034237  0  3.944771  0
C  C31  1  0.87397076  0.47995116  0.47463249  1  -0.009398  0  0.000215  0.064592  0  3.943886  0
C  C32  1  0.03009084  0.52063781  0.46996143  1  -0.031957  0  -0.004906  0.030994  0  3.952165  0
C  C33  1  0.96346290  0.59265822  0.43779845  1  -0.059368  0  -0.008172  0.080516  0  4.020787  0
C  C34  1  0.85479922  0.60457199  0.42102900  1  -0.066612  0  -0.0981  -0.145113  0  4.038746  0
C  C35  1  0.81140048  0.55136729  0.43927613  1  -0.045216  0  -0.092023  -0.125265  0  3.998395  0
C  C36  1  0.13658595  0.51028628  0.48622072  1  -0.018522  0  -0.0831  -0.133924  0  3.945263  0
C  C37  1  0.11088885  0.63891526  0.44067591  1  -0.028442  0  -0.090333  -0.096701  0  4.012896  0
C  C38  1  0.82918188  0.42503846  0.49641530  1  -0.020834  0  -0.013172  -0.067824  0  3.918986  0
C  C39  1  0.50886615  0.56116500  0.25590756  1  -0.042894  0  -0.089168  -0.099193  0  4.001118  0
C  C40  1  0.70999017  0.44665562  0.49816509  1  1.559763  0  0.21588  0.598856  0  4.161584  0
C  C41  1  0.50914191  0.55892038  0.18517025  1  -0.017841  0  -0.090137  -0.124912  0  4.003471  0
C  C42  1  0.50116537  0.49476106  0.14780857  1  -0.060534  0  -0.006405  0.017997  0  3.977958  0
C  C43  1  0.49078996  0.43293160  0.18529237  1  0.048891  0  0.01322  0.105428  0  4.009692  0
C  C44  1  0.49004300  0.43465365  0.25616347  1  -0.064322  0  -0.090146  -0.15714  0  3.962023  0
C  C45  1  0.49978946  0.49855907  0.29193108  1  0.137968  0  -0.017164  -0.01461  0  3.97199  0
C  C46  1  0.57789993  0.43170044  0.03527835  1  -0.100571  0  -0.094064  -0.125624  0  4.009057  0
C  C47  1  0.58059362  0.43360337  0.96464404  1  -0.05121  0  -0.092263  -0.126382  0  3.991866  0
C  C48  1  0.50893966  0.49874077  0.92855338  1  0.059546  0  -0.009128  0.065353  0  4.007721  0
C  C49  1  0.43558112  0.56258650  0.96608295  1  -0.060657  0  -0.093019  -0.128847  0  3.998547  0
C  C50  1  0.43322500  0.56093842  0.03684513  1  0.009244  0  -0.093216  -0.129693  0  4.002546  0
C  C51  1  0.50014510  0.49942630  0.36819207  1  1.515738  0  0.213928  0.591884  0  4.171068  0
C  C52  1  0.50367798  0.49519407  0.07260891  1  0.015071  0  -0.014382  0.06764  0  4.023243  0
C  C53  1  0.49102638  0.56998226  0.81806543  1  -0.086096  0  -0.094056  -0.140499  0  3.996085  0
C  C54  1  0.48949460  0.57061424  0.74726944  1  -0.020516  0  -0.085862  -0.086804  0  3.992945  0
C  C55  1  0.50706602  0.50061764  0.70978588  1  -0.074758  0  -0.020162  -0.035591  0  3.968188  0
C  C56  1  0.52668080  0.42996990  0.74457244  1  0.020811  0  -0.087089  -0.086762  0  3.997948  0
C  C57  1  0.52779325  0.42942875  0.81531351  1  -0.0918  0  -0.095041  -0.141729  0  3.998009  0
C  C58  1  0.50965401  0.49948380  0.85344629  1  -0.043455  0  -0.005423  0.075486  0  4.003099  0
C  C59  1  0.42634095  0.29766161  0.46910912  1  0.589483  0  0.054255  0.027595  0  3.899419  0
C  C60  1  0.42074926  0.22284181  0.46894655  1  0.045134  0  0.024729  0.068275  0  4.032057  0
C  C61  1  0.49954814  0.15888175  0.50268076  1  0.052064  0  0.008142  -0.009381  0  3.951782  0
C  C62  1  0.29194004  0.55171101  0.49025166  1  1.560677  0  0.213557  0.59487  0  4.164855  0
C  C63  1  0.58041190  0.17628328  0.53705496  1  0.045423  0  0.024982  0.071482  0  4.032232  0
C  C64  1  0.58143680  0.25239554  0.53556641  1  0.560648  0  0.054669  0.027481  0  3.905916  0
C  C65  1  0.48066505  0.04391886  0.56068571  1  0.020479  0  -0.085736  -0.116259  0  3.982643  0
C  C66  1  0.48217840  0.96716534  0.55901353  1  -0.023759  0  -0.086415  -0.119286  0  3.980088  0
C  C67  1  0.50176740  0.92325032  0.49786656  1  -0.010553  0  -0.015133  0.069888  0  4.038039  0
C  C68  1  0.51975371  0.95724201  0.43835651  1  -0.022724  0  -0.086194  -0.118312  0  3.981561  0
C  C69  1  0.51828447  0.03400668  0.44002138  1  -0.011781  0  -0.085765  -0.118115  0  3.978028  0
C  C70  1  0.49884611  0.07786145  0.50119692  1  -0.067718  0  -0.015587  0.068071  0  4.038653  0
C  C71  1  0.41919874  0.82460757  0.46440457  1  0.039995  0  0.02358  0.071408  0  4.034412  0
C  C72  1  0.41798879  0.74861752  0.46717467  1  0.567553  0  0.052517  0.022563  0  3.904222  0
C  C73  1  0.00628729  0.65043196  0.42335593  1  -0.015737  0  -0.095111  -0.141806  0  4.011626  0
C  C74  1  0.57667173  0.70322890  0.53036006  1  0.586492  0  0.055628  0.027558  0  3.893556  0
C  C75  1  0.58196070  0.77815452  0.52950271  1  0.015901  0  0.024539  0.069354  0  4.032621  0
C  C76  1  0.50147946  0.84206956  0.49683223  1  0.077329  0  0.007561  -0.010711  0  3.953233  0
C  C77  1  0.17712895  0.56790058  0.47250725  1  -0.027789  0  -0.02177  -0.033585  0  3.988546  0
C  C78  1  0.89531595  0.35186550  0.52211702  1  -0.049465  0  -0.087952  -0.096999  0  4.002535  0
C  C79  1  0.00611472  0.33259183  0.53010473  1  -0.010529  0  -0.09931  -0.092264  0  4.073263  0
C  C80  1  0.04991088  0.38726675  0.51368054  1  -0.033182  0  -0.09245  -0.129701  0  4.010346  0
N  N81  1  0.50594229  0.31090609  0.50166690  1  -1.221879  0  -0.309076  -0.149301  0  3.542895  0
N  N82  1  0.49513531  0.69011101  0.50015897  1  -1.21924  0  -0.310158  -0.15107  0  3.53928  0
Cl  Cl83  1  0.47365049  0.35314728  0.14428558  1  -0.228609  0  -0.035569  -0.116163  0  1.441156  0
Cl  Cl84  1  0.31386391  0.21133543  0.42776490  1  -0.171394  0  0.020916  -0.046714  0  1.470971  0
Cl  Cl85  1  0.68233796  0.10392958  0.58040267  1  -0.177202  0  0.008518  -0.059475  0  1.453213  0
Cl  Cl86  1  0.31578833  0.89691812  0.42201519  1  -0.175416  0  0.007131  -0.06023  0  1.450862  0
Cl  Cl87  1  0.69027794  0.79004040  0.56825278  1  -0.175683  0  0.01627  -0.049578  0  1.460153  0
O  O88  1  0.53214593  0.43375230  0.60307396  1  -1.159894  0  -0.323332  -0.554876  0  2.323168  0
O  O89  1  0.47383115  0.56839758  0.60487365  1  -1.164869  0  -0.322598  -0.548132  0  2.304588  0
O  O90  1  0.67491478  0.39183446  0.48679174  1  -1.161133  0  -0.322806  -0.546578  0  2.27909  0
O  O91  1  0.65236755  0.51862480  0.51383997  1  -1.17797  0  -0.313826  -0.557037  0  2.36715  0
O  O92  1  0.48768974  0.44171507  0.39736103  1  -1.169584  0  -0.319463  -0.547037  0  2.311828  0
O  O93  1  0.51285535  0.55776577  0.39820857  1  -1.171494  0  -0.321021  -0.554684  0  2.314589  0
O  O94  1  0.34846182  0.48216822  0.51122406  1  -1.177938  0  -0.323317  -0.563039  0  2.34883  0
O  O95  1  0.32650841  0.60713325  0.48247289  1  -1.165797  0  -0.320942  -0.546277  0  2.283141  0
