# generated using pymatgen
data_MnCuH16(C3N4)4
_symmetry_space_group_name_H-M   'P 1'
_cell_length_a   7.07914668
_cell_length_b   7.67627266
_cell_length_c   10.49365369
_cell_angle_alpha   97.47323322
_cell_angle_beta   102.61175504
_cell_angle_gamma   115.91474142
_symmetry_Int_Tables_number   1
_chemical_formula_structural   MnCuH16(C3N4)4
_chemical_formula_sum   'Mn1 Cu1 H16 C12 N16'
_cell_volume   483.72716444
_cell_formula_units_Z   1
loop_
 _symmetry_equiv_pos_site_id
 _symmetry_equiv_pos_as_xyz
  1  'x, y, z'
loop_
 _atom_site_type_symbol
 _atom_site_label
 _atom_site_symmetry_multiplicity
 _atom_site_fract_x
 _atom_site_fract_y
 _atom_site_fract_z
 _atom_site_occupancy
 _atom_site_hle17_ddec_charge
 _atom_site_hle17_ddec_spin_density
 _atom_site_hle17_ddec_sum_bond_order
 _atom_site_hle17_magmom
 _atom_site_hse06_10hf_ddec_charge
 _atom_site_hse06_10hf_ddec_spin_density
 _atom_site_hse06_10hf_ddec_sum_bond_order
 _atom_site_hse06_10hf_magmom
 _atom_site_hse06_ddec_charge
 _atom_site_hse06_ddec_spin_density
 _atom_site_hse06_ddec_sum_bond_order
 _atom_site_hse06_magmom
 _atom_site_pbe_cm5_charge
 _atom_site_pbe_ddec_charge
 _atom_site_pbe_ddec_spin_density
 _atom_site_pbe_ddec_sum_bond_order
 _atom_site_pbe_magmom
Mn  Mn0  1  0.00000142  0.50000226  0.99999892  1  1.216601  4.64185  1.978  4.659  1.071615  4.477211  2.525939  4.492  1.120129  4.489851  2.451548  4.562  0.671781  1.034114  4.448992  2.581004  4.423
Cu  Cu1  1  0.50000371  0.50000216  0.50000059  1  0.737302  0.717507  1.822998  0.468  0.69672  0.872586  2.215828  0.572  0.769495  0.970207  2.165123  0.643  0.733103  0.65496  0.813945  2.249106  0.531
H  H2  1  0.18387025  0.37779708  0.28041854  1  0.290535  -0.001631  0.919869  -0.001  0.284729  -0.000199  0.973822  0.0  0.289878  -0.000589  0.972402  0.0  0.295463  0.281209  0.000121  0.974963  0.0
H  H3  1  0.81613044  0.62220277  0.71958218  1  0.290514  -0.001639  0.919901  -0.001  0.284702  -0.000199  0.973849  0.0  0.289853  -0.000589  0.972423  0.0  0.295457  0.281186  0.000121  0.974983  0.0
H  H4  1  0.10735500  0.21412791  0.37159163  1  0.297591  -0.001529  0.925998  -0.002  0.285868  0.000113  0.988325  -0.001  0.29216  -0.000174  0.985345  -0.001  0.289292  0.281543  0.000342  0.990551  0.0
H  H5  1  0.89264586  0.78587495  0.62841130  1  0.297627  -0.001531  0.92594  -0.002  0.285892  0.000112  0.988278  -0.001  0.292185  -0.000174  0.985298  -0.001  0.289286  0.281568  0.000342  0.990505  0.0
H  H6  1  0.74694204  0.36014493  0.43763794  1  0.288553  -0.001087  0.926362  -0.001  0.279166  0.000394  0.987242  0.0  0.285046  2.1e-05  0.984759  0.0  0.285749  0.27508  0.000693  0.989243  0.0
H  H7  1  0.25306010  0.63985493  0.56236490  1  0.288524  -0.001092  0.926457  -0.001  0.279196  0.000394  0.987267  0.0  0.28508  2.1e-05  0.984772  0.0  0.285732  0.275107  0.000693  0.989278  0.0
H  H8  1  0.81665183  0.57488179  0.39729437  1  0.306579  -0.001534  0.901746  -0.002  0.298081  0.000148  0.957795  0.0  0.304816  -0.000151  0.953512  -0.001  0.294444  0.293463  0.000374  0.960906  0.0
H  H9  1  0.18334807  0.42511657  0.60270705  1  0.306588  -0.001541  0.901752  -0.002  0.298084  0.000148  0.957813  0.0  0.304819  -0.000151  0.953532  -0.001  0.294422  0.293468  0.000374  0.960903  0.0
H  H10  1  0.19549017  0.10104119  0.15960042  1  0.056462  0.003351  0.951036  0.004  0.072896  0.002547  1.014923  0.003  0.071256  0.001874  1.017136  0.002  0.102666  0.07396  0.003032  1.013404  0.003
H  H11  1  0.80451054  0.89895869  0.84040316  1  0.056472  0.00335  0.951073  0.004  0.072904  0.002547  1.014947  0.003  0.071263  0.001874  1.01716  0.002  0.102677  0.073974  0.003032  1.013418  0.003
H  H12  1  0.32320037  0.07246602  0.31436381  1  0.066257  -0.0001  0.933489  0.0  0.084504  -7.4e-05  0.99247  0.0  0.083549  -7.7e-05  0.994396  0.0  0.105267  0.084981  -6.5e-05  0.991348  0.0
H  H13  1  0.67680034  0.92753386  0.68564073  1  0.066265  -0.000119  0.933494  0.0  0.084516  -7.4e-05  0.992455  0.0  0.083558  -7.7e-05  0.994392  0.0  0.10529  0.084989  -6.5e-05  0.991336  0.0
H  H14  1  0.52125860  0.43532188  0.19745177  1  0.075546  -0.00045  0.932665  0.0  0.093465  -0.000442  0.990282  0.0  0.092665  -0.000443  0.992553  0.0  0.109496  0.09391  -0.00042  0.9888  0.0
H  H15  1  0.47874355  0.56467797  0.80255108  1  0.075518  -0.00045  0.932654  0.0  0.093441  -0.000442  0.990281  0.0  0.092641  -0.000443  0.992553  0.0  0.109484  0.09389  -0.00042  0.988794  0.0
H  H16  1  0.60728028  0.25176946  0.20106893  1  0.074589  0.003097  0.94774  0.004  0.092406  0.002278  1.003673  0.003  0.091502  0.001602  1.005455  0.002  0.105271  0.092963  0.002776  1.002478  0.003
H  H17  1  0.39271962  0.74822890  0.79893345  1  0.074575  0.003102  0.947783  0.004  0.092396  0.002278  1.003716  0.003  0.091491  0.001602  1.005499  0.002  0.105261  0.092953  0.002776  1.002516  0.003
C  C18  1  0.39239269  0.74347940  0.29527476  1  0.504101  0.013559  3.985726  0.015  0.460171  0.018039  4.283928  0.02  0.48575  0.015676  4.294543  0.018  0.31117  0.442247  0.020447  4.277029  0.022
C  C19  1  0.60760577  0.25651896  0.70472645  1  0.504026  0.013558  3.985901  0.015  0.460139  0.018037  4.284093  0.02  0.485717  0.01567  4.294712  0.018  0.311206  0.442214  0.020441  4.277181  0.022
C  C20  1  0.72688652  0.00936325  0.43353107  1  0.494298  0.000768  3.993797  0.0  0.456838  0.001411  4.289994  0.001  0.480803  0.000923  4.300748  0.001  0.297753  0.440487  0.001943  4.282637  0.001
C  C21  1  0.27311192  0.99063509  0.56646728  1  0.49427  0.000633  3.993968  0.0  0.456856  0.001415  4.290157  0.001  0.480824  0.000913  4.300914  0.001  0.297745  0.440508  0.001942  4.282809  0.001
C  C22  1  0.78340663  0.06554430  0.08681237  1  0.490936  0.01364  3.992266  0.015  0.452935  0.018588  4.282939  0.019  0.479268  0.015775  4.293795  0.017  0.307117  0.434538  0.021434  4.275255  0.021
C  C23  1  0.21659356  0.93446003  0.91318679  1  0.490825  0.013595  3.992418  0.014  0.452816  0.018596  4.283067  0.019  0.479148  0.015764  4.293925  0.017  0.307101  0.434415  0.021433  4.27539  0.021
C  C24  1  0.76552085  0.75857549  0.08547837  1  0.508291  0.018995  3.965507  0.02  0.471948  0.023536  4.250379  0.024  0.498137  0.020439  4.261996  0.021  0.315667  0.453629  0.026801  4.242134  0.027
C  C25  1  0.23448447  0.24143031  0.91451977  1  0.508389  0.0189  3.965413  0.02  0.47205  0.02355  4.250258  0.024  0.498245  0.02043  4.261876  0.021  0.315704  0.45372  0.026805  4.242008  0.027
C  C26  1  0.31243530  0.18364914  0.26135650  1  0.053864  -0.002269  3.63054  -0.003  -0.001674  0.000948  3.898221  0.0  0.003472  -0.000112  3.91225  -0.001  -0.073317  -0.004772  0.001765  3.888707  0.0
C  C27  1  0.68756476  0.81635223  0.73864617  1  0.053842  -0.002228  3.630568  -0.003  -0.001682  0.000949  3.898211  0.0  0.003466  -0.000111  3.912236  -0.001  -0.073343  -0.004784  0.001765  3.888714  0.0
C  C28  1  0.53703115  0.32925264  0.25404874  1  0.037489  -0.002032  3.619252  -0.003  -0.013078  0.000967  3.879922  0.0  -0.008698  -0.000136  3.893685  -0.001  -0.078628  -0.015776  0.00184  3.870595  0.0
C  C29  1  0.46296876  0.67074573  0.74595459  1  0.037591  -0.002051  3.619276  -0.003  -0.013012  0.000968  3.879983  0.0  -0.008631  -0.000136  3.893749  -0.001  -0.078591  -0.015719  0.001839  3.870657  0.0
N  N30  1  0.22559903  0.64238351  0.20676981  1  -0.598997  0.019346  2.832232  0.004  -0.55255  0.026018  3.125811  0.006  -0.573472  0.021812  3.125233  0.003  -0.363646  -0.537363  0.029889  3.126554  0.008
N  N31  1  0.77439284  0.35761335  0.79322744  1  -0.59893  0.019311  2.832493  0.004  -0.552489  0.026019  3.126056  0.006  -0.573409  0.021815  3.12548  0.003  -0.36366  -0.537311  0.029892  3.126788  0.008
N  N32  1  0.56419148  0.82897517  0.40151987  1  -0.486606  0.001695  3.368528  0.003  -0.436074  0.003776  3.65667  0.004  -0.462107  0.002476  3.660491  0.003  -0.3171  -0.418422  0.00508  3.654155  0.005
N  N33  1  0.43580231  0.17101717  0.59847629  1  -0.486531  0.001729  3.368587  0.003  -0.436094  0.003773  3.656792  0.004  -0.462117  0.002477  3.660587  0.003  -0.31716  -0.418446  0.005078  3.654269  0.005
N  N34  1  0.88199430  0.17162035  0.47521074  1  -0.590965  0.001031  2.653853  0.002  -0.554627  0.002004  2.882633  0.002  -0.569414  0.001372  2.88814  0.002  -0.368494  -0.544284  0.002741  2.87888  0.003
N  N35  1  0.11799805  0.82837201  0.52478616  1  -0.591005  0.001139  2.653858  0.002  -0.554672  0.002  2.882619  0.002  -0.569465  0.001381  2.888126  0.002  -0.368468  -0.544337  0.002741  2.878872  0.003
N  N36  1  0.82464843  0.21929767  0.05827806  1  -0.602484  0.023383  2.814272  0.008  -0.560987  0.031306  3.10749  0.011  -0.5832  0.026558  3.108109  0.008  -0.364635  -0.544871  0.035927  3.107272  0.015
N  N37  1  0.17535175  0.78070664  0.94171823  1  -0.602438  0.023425  2.814462  0.008  -0.560942  0.031292  3.107652  0.011  -0.583153  0.026578  3.108272  0.008  -0.36462  -0.544831  0.035928  3.107439  0.015
N  N38  1  0.73372553  0.90568768  0.12978505  1  -0.457582  0.007281  3.297807  0.007  -0.403422  0.011668  3.559937  0.01  -0.42901  0.009294  3.565978  0.008  -0.30768  -0.385117  0.014263  3.555238  0.012
N  N39  1  0.26627610  0.09431664  0.87021336  1  -0.457479  0.007288  3.297753  0.007  -0.403272  0.011682  3.55981  0.01  -0.428873  0.009282  3.565878  0.008  -0.307662  -0.384966  0.014263  3.55511  0.012
N  N40  1  0.78813106  0.61761917  0.05268260  1  -0.601204  0.017564  2.817548  0.003  -0.560708  0.026595  3.110664  0.006  -0.583582  0.021231  3.112011  0.003  -0.367454  -0.544215  0.031716  3.109971  0.01
N  N41  1  0.21187377  0.38239113  0.94731493  1  -0.601405  0.017679  2.817497  0.003  -0.560935  0.026577  3.110639  0.006  -0.583784  0.021252  3.11193  0.003  -0.367526  -0.544435  0.031718  3.109933  0.01
N  N42  1  0.23693172  0.30086679  0.33925425  1  -0.596578  0.10338  3.157297  0.117  -0.569842  0.077707  3.425202  0.085  -0.599606  0.066263  3.42867  0.075  -0.641441  -0.551655  0.083967  3.423818  0.089
N  N43  1  0.76306689  0.69913459  0.66074821  1  -0.596563  0.103396  3.157278  0.117  -0.569848  0.077706  3.425239  0.085  -0.59961  0.066263  3.428707  0.075  -0.641435  -0.551637  0.08397  3.423777  0.089
N  N44  1  0.68295817  0.44334454  0.39366865  1  -0.587602  0.103856  3.133437  0.117  -0.564167  0.077771  3.407273  0.084  -0.593996  0.066332  3.409797  0.075  -0.639377  -0.546019  0.083861  3.4067  0.089
N  N45  1  0.31704478  0.55665682  0.60633445  1  -0.58765  0.103876  3.13357  0.117  -0.564259  0.077773  3.407339  0.084  -0.59409  0.066335  3.409864  0.075  -0.639368  -0.546116  0.083869  3.406762  0.089
