# generated using pymatgen
data_Gd2MnH28(C8O9)2
_symmetry_space_group_name_H-M   'P 1'
_cell_length_a   8.87250763
_cell_length_b   9.11817580
_cell_length_c   10.64843385
_cell_angle_alpha   81.92707235
_cell_angle_beta   72.24696917
_cell_angle_gamma   76.23044747
_symmetry_Int_Tables_number   1
_chemical_formula_structural   Gd2MnH28(C8O9)2
_chemical_formula_sum   'Gd2 Mn1 H28 C16 O18'
_cell_volume   794.72035432
_cell_formula_units_Z   1
loop_
 _symmetry_equiv_pos_site_id
 _symmetry_equiv_pos_as_xyz
  1  'x, y, z'
loop_
 _atom_site_type_symbol
 _atom_site_label
 _atom_site_symmetry_multiplicity
 _atom_site_fract_x
 _atom_site_fract_y
 _atom_site_fract_z
 _atom_site_occupancy
 _atom_site_hle17_ddec_charge
 _atom_site_hle17_ddec_spin_density
 _atom_site_hle17_ddec_sum_bond_order
 _atom_site_hle17_magmom
 _atom_site_hse06_10hf_ddec_charge
 _atom_site_hse06_10hf_ddec_spin_density
 _atom_site_hse06_10hf_ddec_sum_bond_order
 _atom_site_hse06_10hf_magmom
 _atom_site_hse06_ddec_charge
 _atom_site_hse06_ddec_spin_density
 _atom_site_hse06_ddec_sum_bond_order
 _atom_site_hse06_magmom
 _atom_site_pbe_cm5_charge
 _atom_site_pbe_ddec_charge
 _atom_site_pbe_ddec_spin_density
 _atom_site_pbe_ddec_sum_bond_order
 _atom_site_pbe_magmom
Gd  Gd0  1  0.91559695  0.07952625  0.68208192  1  2.127353  -0.00157  1.804875  0.0  2.022602  -0.001136  2.180268  0.001  2.08312  -0.001698  2.11762  0.0  1.46725  1.977099  -0.000577  2.228238  0.001
Gd  Gd1  1  0.08441023  0.92047692  0.31791575  1  2.127369  -0.001565  1.804932  0.0  2.02255  -0.001137  2.180438  0.001  2.083051  -0.0017  2.117825  0.0  1.467232  1.977073  -0.000577  2.228369  0.001
Mn  Mn2  1  0.00000100  0.00000571  0.00000092  1  1.271115  4.770174  1.814557  4.673  1.127137  4.685856  2.322597  4.53  1.180564  4.734559  2.249835  4.596  0.628792  1.085991  4.634308  2.37569  4.461
H  H3  1  0.82758614  0.36909282  0.05565459  1  0.147534  -0.000186  0.926394  0.0  0.166733  -0.000178  0.980655  0.0  0.169675  -0.000207  0.979189  0.0  0.106615  0.164484  -0.000142  0.98193  0.0
H  H4  1  0.17236302  0.63093335  0.94435168  1  0.147686  -0.000179  0.926163  0.0  0.166964  -0.000178  0.98032  0.0  0.169939  -0.000207  0.978812  0.0  0.106738  0.164694  -0.000142  0.981617  0.0
H  H5  1  0.63177580  0.42667862  0.02587800  1  0.136184  0.000197  0.94013  0.0  0.154865  0.000342  0.99982  0.0  0.157363  0.000239  0.998532  0.0  0.101788  0.152973  0.000467  1.00087  0.0
H  H6  1  0.36818162  0.57332193  0.97411026  1  0.1361  0.000201  0.939915  0.0  0.154749  0.000342  0.999695  0.0  0.157248  0.000239  0.998412  0.0  0.101647  0.152858  0.000467  1.00074  0.0
H  H7  1  0.79307398  0.51326295  0.92996139  1  0.136001  0.00019  0.9501  0.0  0.156936  0.000375  1.009797  0.0  0.158424  0.000238  1.010345  0.0  0.104394  0.155758  0.000547  1.009534  0.001
H  H8  1  0.20687125  0.48674912  0.07003155  1  0.136151  0.000197  0.949847  0.0  0.156987  0.000375  1.00968  0.0  0.158475  0.000239  1.010232  0.0  0.104396  0.155808  0.000547  1.009418  0.001
H  H9  1  0.73656140  0.73725349  0.06490040  1  0.143356  -0.000156  0.925934  0.0  0.164279  -0.00017  0.978393  0.0  0.167201  -0.000177  0.976733  0.0  0.103636  0.162041  -0.000153  0.979849  0.0
H  H10  1  0.26346837  0.26274072  0.93510051  1  0.143534  -0.000154  0.92585  0.0  0.164466  -0.00017  0.978275  0.0  0.167408  -0.000177  0.976589  0.0  0.103744  0.162219  -0.000153  0.979739  0.0
H  H11  1  0.57729693  0.75614893  0.98714188  1  0.142381  6.4e-05  0.933445  0.0  0.161824  0.000152  0.992304  0.0  0.163899  8.1e-05  0.99207  0.0  0.103765  0.160268  0.000248  0.992574  0.0
H  H12  1  0.42271522  0.24384225  0.01286957  1  0.14245  6.5e-05  0.933494  0.0  0.16185  0.000152  0.992369  0.0  0.16392  8.1e-05  0.99213  0.0  0.103784  0.160289  0.000248  0.992648  0.0
H  H13  1  0.57293894  0.89854978  0.08428510  1  0.16777  0.000181  0.943907  0.0  0.18436  0.000404  1.004237  0.001  0.188313  0.000231  1.002157  0.0  0.109902  0.181362  0.000627  1.005967  0.001
H  H14  1  0.42710096  0.10144306  0.91570924  1  0.167753  0.000181  0.943885  0.0  0.184339  0.000404  1.004227  0.001  0.188276  0.000231  1.002162  0.0  0.109886  0.18134  0.000628  1.005954  0.001
H  H15  1  0.49518999  0.83499499  0.58356886  1  0.126749  0.000272  0.946831  0.0  0.145173  0.000433  1.005259  0.0  0.147803  0.000347  1.003876  0.0  0.094759  0.143345  0.000535  1.006254  0.0
H  H16  1  0.50480853  0.16498580  0.41643824  1  0.126638  0.000273  0.946897  0.0  0.145074  0.000433  1.005321  0.0  0.147703  0.000347  1.00394  0.0  0.094704  0.143247  0.000535  1.006316  0.0
H  H17  1  0.45899567  0.70666381  0.72690386  1  0.140001  4.8e-05  0.929931  0.0  0.161122  0.000224  0.98567  0.0  0.16306  0.000154  0.985424  0.0  0.105467  0.159816  0.000299  0.98583  0.0
H  H18  1  0.54099199  0.29333408  0.27310503  1  0.139877  4.9e-05  0.929835  0.0  0.160975  0.000224  0.985624  0.0  0.162912  0.000154  0.98538  0.0  0.105412  0.159672  0.000299  0.985784  0.0
H  H19  1  0.53068990  0.87020505  0.73308211  1  0.160112  -4.9e-05  0.969239  0.0  0.175546  9.3e-05  1.032081  0.0  0.179014  4.6e-05  1.03061  0.0  0.103398  0.173134  0.000147  1.033094  0.0
H  H20  1  0.46931682  0.12978241  0.26692058  1  0.15996  -4.2e-05  0.969452  0.0  0.175469  9.3e-05  1.032211  0.0  0.178939  4.6e-05  1.030739  0.0  0.103369  0.173057  0.000147  1.03323  0.0
H  H21  1  0.17002673  0.31965213  0.25509955  1  0.128661  -1e-05  0.971169  0.0  0.146865  8.7e-05  1.03278  0.0  0.14862  2.7e-05  1.032816  0.0  0.09721  0.145548  0.000163  1.032902  0.0
H  H22  1  0.82998344  0.68034767  0.74489891  1  0.12874  -6e-06  0.971232  0.0  0.146911  8.7e-05  1.032866  0.0  0.148666  2.7e-05  1.032906  0.0  0.097266  0.145596  0.000163  1.032984  0.0
H  H23  1  0.24812169  0.39616887  0.36291676  1  0.148103  1.3e-05  0.925318  0.0  0.16988  5.4e-05  0.979197  0.0  0.172351  3.9e-05  0.978226  0.0  0.10949  0.168104  6.7e-05  0.979934  0.0
H  H24  1  0.75188371  0.60383558  0.63708486  1  0.148055  2e-05  0.925464  0.0  0.169833  5.3e-05  0.979348  0.0  0.172304  3.9e-05  0.978378  0.0  0.109455  0.168058  6.7e-05  0.980082  0.0
H  H25  1  0.04973535  0.47229858  0.35652755  1  0.170015  -5e-06  0.937083  0.0  0.187802  1.6e-05  0.994111  0.0  0.19155  7e-06  0.991955  0.0  0.112169  0.185085  2.6e-05  0.995766  0.0
H  H26  1  0.95027490  0.52770118  0.64346995  1  0.169984  3e-06  0.937087  0.0  0.187784  1.6e-05  0.994105  0.0  0.191554  7e-06  0.991925  0.0  0.11216  0.185065  2.6e-05  0.995761  0.0
H  H27  1  0.60715066  0.18234509  0.61374725  1  0.442343  0.0  0.803466  0.0  0.431217  2e-05  0.845724  0.0  0.438549  1e-05  0.835421  0.0  0.339446  0.425902  5.9e-05  0.852206  0.0
H  H28  1  0.39285197  0.81764572  0.38625393  1  0.442287  1e-06  0.80361  0.0  0.43119  2e-05  0.845769  0.0  0.438524  1e-05  0.835461  0.0  0.339432  0.425875  5.9e-05  0.852288  0.0
H  H29  1  0.73866592  0.12761884  0.47768943  1  0.434078  2e-06  0.871844  0.0  0.400408  1.9e-05  0.94018  0.0  0.412219  1.6e-05  0.923165  0.0  0.297887  0.392009  2.6e-05  0.952244  0.0
H  H30  1  0.26134212  0.87237984  0.52230961  1  0.434113  3e-06  0.871784  0.0  0.400441  1.9e-05  0.940122  0.0  0.412251  1.6e-05  0.923108  0.0  0.297929  0.392041  2.6e-05  0.952188  0.0
C  C31  1  0.27942557  0.91059595  0.74360593  1  0.795645  0.004191  3.780246  0.005  0.756344  0.007426  4.069637  0.008  0.791543  0.005739  4.061057  0.006  0.240233  0.732063  0.009098  4.074415  0.009
C  C32  1  0.72058113  0.08940948  0.25639153  1  0.795697  0.004203  3.779957  0.005  0.756506  0.007425  4.069151  0.008  0.791704  0.005739  4.060576  0.006  0.240316  0.732227  0.009098  4.073936  0.009
C  C33  1  0.76296302  0.40584254  0.98027755  1  -0.446589  -0.000646  3.651955  0.0  -0.522802  -0.000129  3.882299  0.0  -0.529442  -0.000326  3.884428  0.0  -0.235395  -0.518048  5.8e-05  3.881183  0.0
C  C34  1  0.23698534  0.59416403  0.01972020  1  -0.446547  -0.000689  3.651343  0.0  -0.522778  -0.00013  3.881685  0.0  -0.529453  -0.000327  3.883788  0.0  -0.235262  -0.518002  5.7e-05  3.880586  0.0
C  C35  1  0.65482524  0.81556843  0.01511252  1  -0.460854  -0.000579  3.63889  0.0  -0.536881  1.3e-05  3.872098  0.0  -0.544447  -0.000239  3.872733  0.0  -0.240339  -0.531486  0.000271  3.872136  0.0
C  C36  1  0.34519886  0.18443286  0.98489611  1  -0.461198  -0.000588  3.639079  0.0  -0.537168  1.3e-05  3.872276  0.0  -0.544728  -0.000241  3.872917  0.0  -0.240489  -0.531763  0.000271  3.872318  0.0
C  C37  1  0.81238684  0.29155383  0.87876308  1  0.766611  0.00728  3.803693  0.007  0.728848  0.011459  4.100176  0.011  0.76374  0.008174  4.091779  0.008  0.209702  0.70432  0.015251  4.105476  0.014
C  C38  1  0.18759255  0.70844930  0.12123360  1  0.766292  0.007283  3.803921  0.007  0.728699  0.011461  4.100166  0.011  0.763589  0.008175  4.091768  0.008  0.209643  0.704174  0.015253  4.105472  0.014
C  C39  1  0.74668941  0.89964879  0.89684052  1  0.76187  0.006807  3.819167  0.007  0.720183  0.010948  4.122195  0.01  0.755093  0.007875  4.113543  0.008  0.210468  0.695642  0.014604  4.127696  0.013
C  C40  1  0.25333875  0.10034410  0.10315524  1  0.762195  0.006817  3.819218  0.007  0.720485  0.010945  4.122223  0.01  0.755399  0.007875  4.113557  0.008  0.210579  0.695942  0.014602  4.127739  0.013
C  C41  1  0.45193222  0.82679473  0.69179584  1  -0.476474  0.001043  3.658805  0.001  -0.551213  0.001257  3.888357  0.001  -0.559074  0.000933  3.890385  0.001  -0.246425  -0.545673  0.001592  3.886695  0.001
C  C42  1  0.54806457  0.17318940  0.30820929  1  -0.476132  0.001027  3.658844  0.001  -0.550944  0.001257  3.888333  0.001  -0.558809  0.000933  3.89037  0.001  -0.246326  -0.545389  0.001592  3.886627  0.001
C  C43  1  0.14107000  0.36613871  0.35073246  1  -0.459174  7e-05  3.624435  0.0  -0.533844  0.000144  3.84965  0.0  -0.54144  9.8e-05  3.851921  0.0  -0.237909  -0.528466  0.00019  3.848091  0.0
C  C44  1  0.85892675  0.63386238  0.64927041  1  -0.459098  4.4e-05  3.624657  0.0  -0.533764  0.000144  3.849856  0.0  -0.541382  9.8e-05  3.85211  0.0  -0.237939  -0.528387  0.00019  3.848292  0.0
C  C45  1  0.07841119  0.25705478  0.46225707  1  0.798642  4.9e-05  3.776446  0.0  0.764332  0.000113  4.066218  0.0  0.798635  6.6e-05  4.057387  0.0  0.223902  0.740954  0.000139  4.071268  0.0
C  C46  1  0.92159738  0.74294622  0.53774342  1  0.798399  6.3e-05  3.776634  0.0  0.764085  0.000113  4.066442  0.0  0.798388  6.6e-05  4.057619  0.0  0.223849  0.740707  0.000139  4.071487  0.0
O  O47  1  0.19268126  0.95432194  0.66247471  1  -0.741135  0.001427  2.036835  0.002  -0.686098  0.003057  2.269031  0.004  -0.714639  0.002224  2.257152  0.003  -0.372331  -0.665567  0.003887  2.276793  0.005
O  O48  1  0.80733049  0.04569048  0.33752739  1  -0.741181  0.001424  2.036567  0.002  -0.686152  0.003057  2.268695  0.004  -0.714694  0.002224  2.256818  0.003  -0.372358  -0.665626  0.003887  2.276459  0.005
O  O49  1  0.04363607  0.28973215  0.58087350  1  -0.678895  -0.000106  1.932013  0.0  -0.638076  -7e-06  2.152114  0.0  -0.663915  -5.7e-05  2.143389  0.0  -0.369137  -0.619965  5.3e-05  2.157887  0.0
O  O50  1  0.95637176  0.71026869  0.41912247  1  -0.678757  -0.000113  1.931941  0.0  -0.63793  -6e-06  2.152048  0.0  -0.663768  -5.8e-05  2.143323  0.0  -0.369033  -0.619822  5.3e-05  2.157818  0.0
O  O51  1  0.89850985  0.89719596  0.87994473  1  -0.762442  0.026738  2.057508  0.012  -0.707393  0.034061  2.328939  0.015  -0.737478  0.031068  2.313794  0.013  -0.373285  -0.685259  0.036969  2.339066  0.018
O  O52  1  0.10150923  0.10280042  0.12005333  1  -0.762586  0.026741  2.057475  0.012  -0.707486  0.034063  2.328868  0.015  -0.737573  0.031071  2.313728  0.013  -0.373376  -0.685348  0.03697  2.338998  0.018
O  O53  1  0.94774159  0.19306968  0.86697260  1  -0.762528  0.028152  2.057525  0.013  -0.705636  0.035217  2.325249  0.016  -0.736093  0.032039  2.309275  0.014  -0.37804  -0.683158  0.03831  2.335803  0.019
O  O54  1  0.05224322  0.80694281  0.13303209  1  -0.762549  0.02815  2.057695  0.013  -0.705703  0.035218  2.325377  0.016  -0.736159  0.032038  2.309397  0.014  -0.378016  -0.683224  0.038309  2.335937  0.019
O  O55  1  0.67863081  0.97527799  0.81205610  1  -0.695902  0.004637  1.984117  0.006  -0.651808  0.007641  2.217294  0.009  -0.678469  0.005895  2.209309  0.007  -0.363873  -0.633168  0.009521  2.222765  0.01
O  O56  1  0.32138639  0.02471049  0.18794339  1  -0.695958  0.004629  1.98413  0.006  -0.651893  0.007642  2.217366  0.009  -0.678566  0.005893  2.209412  0.007  -0.36383  -0.633253  0.009521  2.222841  0.01
O  O57  1  0.72718638  0.29199615  0.80259247  1  -0.669416  0.005146  1.890651  0.006  -0.631562  0.008266  2.110565  0.009  -0.657182  0.006409  2.101949  0.008  -0.368147  -0.613663  0.010318  2.116509  0.011
O  O58  1  0.27280639  0.70799545  0.19739928  1  -0.669309  0.00515  1.890468  0.006  -0.631506  0.008266  2.11031  0.009  -0.657121  0.006411  2.1017  0.008  -0.368187  -0.613609  0.010319  2.116255  0.011
O  O59  1  0.05488758  0.12939744  0.43947914  1  -0.821908  1.8e-05  2.076077  0.0  -0.772412  0.000111  2.327328  0.0  -0.802275  7.6e-05  2.316893  0.0  -0.446189  -0.750798  0.000214  2.334033  0.0
O  O60  1  0.94512352  0.87060245  0.56052194  1  -0.821925  1.7e-05  2.076385  0.0  -0.77236  0.000112  2.327517  0.0  -0.802212  7.6e-05  2.317053  0.0  -0.446207  -0.750746  0.000214  2.334226  0.0
O  O61  1  0.71853701  0.17873697  0.56129652  1  -0.882247  4.8e-05  1.846632  0.0  -0.843175  9.1e-05  2.018571  0.0  -0.862162  6.7e-05  1.987751  0.0  -0.626719  -0.829444  0.000142  2.039346  0.0
O  O62  1  0.28147027  0.82126720  0.43869723  1  -0.882232  4.4e-05  1.846745  0.0  -0.843169  9.1e-05  2.018573  0.0  -0.862155  6.7e-05  1.987767  0.0  -0.626737  -0.829439  0.000142  2.039378  0.0
O  O63  1  0.22944069  0.93177065  0.86557840  1  -0.651408  0.031657  2.008238  0.019  -0.582018  0.036667  2.259085  0.02  -0.613875  0.033326  2.247332  0.017  -0.298137  -0.558253  0.039888  2.266098  0.023
O  O64  1  0.77056439  0.06824164  0.13442035  1  -0.651361  0.031653  2.008291  0.019  -0.582039  0.036669  2.259129  0.02  -0.613874  0.033327  2.247338  0.017  -0.29813  -0.558282  0.03989  2.266149  0.023
