# generated using pymatgen
data_Al2H24(C11O4)3
_symmetry_space_group_name_H-M   'P 1'
_cell_length_a   3.98442992
_cell_length_b   17.22713194
_cell_length_c   17.22768634
_cell_angle_alpha   119.99915524
_cell_angle_beta   89.99731788
_cell_angle_gamma   90.00262080
_symmetry_Int_Tables_number   1
_chemical_formula_structural   Al2H24(C11O4)3
_chemical_formula_sum   'Al2 H24 C33 O12'
_cell_volume   1024.09549662
_cell_formula_units_Z   1
loop_
 _symmetry_equiv_pos_site_id
 _symmetry_equiv_pos_as_xyz
  1  'x, y, z'
loop_
 _atom_site_type_symbol
 _atom_site_label
 _atom_site_symmetry_multiplicity
 _atom_site_fract_x
 _atom_site_fract_y
 _atom_site_fract_z
 _atom_site_occupancy
 _atom_site_pbe_bader_charge
 _atom_site_pbe_bader_spin_density
 _atom_site_pbe_cm5_charge
 _atom_site_pbe_ddec_charge
 _atom_site_pbe_ddec_spin_density
 _atom_site_pbe_ddec_sum_bond_order
 _atom_site_pbe_magmom
Al  Al0  1  0.98150950  0.50000463  0.49999806  1  2.503493  0  0.426325  1.588055  0  2.583107  0
Al  Al1  1  0.01722685  0.16666628  0.83334308  1  2.503559  0  0.425999  1.592794  0  2.579067  0
H  H2  1  0.56708847  0.41654307  0.83343080  1  0.103814  0  0.10337  0.109581  0  0.995727  0
H  H3  1  0.23278560  0.11532793  0.52941484  1  0.062896  0  0.092823  0.098326  0  1.011928  0
H  H4  1  0.67941383  0.10807856  0.52515574  1  0.044481  0  0.092014  0.095175  0  1.009563  0
H  H5  1  0.69796222  0.19499386  0.44382177  1  0.039092  0  0.091938  0.09613  0  1.012748  0
H  H6  1  0.25132902  0.20047362  0.44574896  1  0.054432  0  0.092443  0.098057  0  1.008776  0
H  H7  1  0.56700510  0.91691492  0.58347507  1  0.04376  0  0.103299  0.109694  0  0.995691  0
H  H8  1  0.23273186  0.91406009  0.88466305  1  0.086688  0  0.092815  0.098298  0  1.011762  0
H  H9  1  0.67935744  0.91706174  0.89192490  1  0.05591  0  0.092155  0.095399  0  1.00953  0
H  H10  1  0.69797736  0.74881374  0.80501502  1  0.04057  0  0.091962  0.096051  0  1.012481  0
H  H11  1  0.25129885  0.74525300  0.79951724  1  0.055568  0  0.092365  0.097918  0  1.008715  0
H  H12  1  0.56697724  0.16655511  0.08310337  1  0.041494  0  0.10329  0.109588  0  0.995524  0
H  H13  1  0.23284530  0.47060318  0.08591752  1  0.06044  0  0.092791  0.098382  0  1.011661  0
H  H14  1  0.67950462  0.47485260  0.08292201  1  0.048197  0  0.092143  0.095373  0  1.009846  0
H  H15  1  0.69809837  0.55618523  0.25116938  1  0.043459  0  0.091883  0.096004  0  1.012656  0
H  H16  1  0.25145929  0.55426443  0.25471659  1  0.054404  0  0.092478  0.098126  0  1.009085  0
H  H17  1  0.26719419  0.55785656  0.78603772  1  0.04719  0  0.092036  0.131073  0  1.009336  0
H  H18  1  0.64540420  0.56052812  0.73402151  1  0.046061  0  0.095086  0.137219  0  1.011045  0
H  H19  1  0.65652965  0.55403497  0.83413408  1  0.02976  0  0.08838  0.119321  0  1.007202  0
H  H20  1  0.26716375  0.72819730  0.44215280  1  0.048158  0  0.092068  0.131056  0  1.009218  0
H  H21  1  0.64540361  0.67351991  0.43948099  1  0.018129  0  0.09501  0.13702  0  1.011144  0
H  H22  1  0.65652642  0.78012366  0.44598366  1  0.025692  0  0.088368  0.11925  0  1.007201  0
H  H23  1  0.26710112  0.21394715  0.27179854  1  0.047085  0  0.092067  0.130974  0  1.009249  0
H  H24  1  0.64529538  0.26595867  0.32648521  1  0.053698  0  0.094999  0.137021  0  1.011093  0
H  H25  1  0.65648980  0.16585619  0.21988389  1  0.026932  0  0.088441  0.119303  0  1.0071  0
C  C26  1  0.48463718  0.43026641  0.36226258  1  1.61785  0  0.281933  0.678463  0  4.048468  0
C  C27  1  0.48461959  0.43199793  0.56972791  1  1.565064  0  0.28213  0.678538  0  4.048445  0
C  C28  1  0.48464444  0.63773821  0.56800266  1  1.566416  0  0.281888  0.678371  0  4.0485  0
C  C29  1  0.51712093  0.23660771  0.76573824  1  1.589171  0  0.280965  0.671205  0  4.05333  0
C  C30  1  0.51702604  0.02912635  0.76340467  1  1.540212  0  0.280468  0.670356  0  4.054105  0
C  C31  1  0.51707808  0.23426813  0.97087792  1  1.594735  0  0.280878  0.671021  0  4.052811  0
C  C32  1  0.51345374  0.28646601  0.71604103  1  -0.070398  0  -0.005274  -0.064738  0  3.986513  0
C  C33  1  0.49855424  0.38440053  0.62168255  1  0.005113  0  -0.007504  -0.137699  0  3.929749  0
C  C34  1  0.48515602  0.24344958  0.62323307  1  0.001947  0  -0.007583  0.049549  0  3.897883  0
C  C35  1  0.51898892  0.43007390  0.71640881  1  -0.011137  0  0.000598  0.156715  0  3.945645  0
C  C36  1  0.49105547  0.29123542  0.57769081  1  -0.060502  0  -0.007841  0.056379  0  3.913312  0
C  C37  1  0.53795873  0.38047253  0.76069708  1  0.021119  0  -0.083781  -0.16557  0  3.937579  0
C  C38  1  0.46512274  0.15304895  0.53785079  1  -0.075033  0  -0.150002  -0.190593  0  3.867894  0
C  C39  1  0.47503654  0.20729994  0.48597614  1  -0.011532  0  -0.151104  -0.191915  0  3.863112  0
C  C40  1  0.51345521  0.92957354  0.71353343  1  0.053031  0  -0.005136  -0.064224  0  3.986017  0
C  C41  1  0.49849068  0.73728478  0.61560278  1  0.096612  0  -0.007523  -0.137515  0  3.93041  0
C  C42  1  0.48513103  0.87977282  0.75655832  1  0.009503  0  -0.007769  0.049159  0  3.897811  0
C  C43  1  0.51897453  0.78634495  0.56993788  1  -0.014714  0  0.000651  0.156645  0  3.945673  0
C  C44  1  0.49098207  0.78644140  0.70876265  1  -0.149641  0  -0.007787  0.056265  0  3.913456  0
C  C45  1  0.53790734  0.88023238  0.61953070  1  9.1e-05  0  -0.08368  -0.165784  0  3.937744  0
C  C46  1  0.46510978  0.88478136  0.84694728  1  -0.046037  0  -0.150126  -0.190779  0  3.868373  0
C  C47  1  0.47501852  0.77865397  0.79269458  1  -0.071696  0  -0.150984  -0.19151  0  3.862716  0
C  C48  1  0.51344126  0.28396348  0.07043328  1  -0.075982  0  -0.005186  -0.064513  0  3.986736  0
C  C49  1  0.49855359  0.37832225  0.26271788  1  -0.114989  0  -0.00742  -0.137589  0  3.929824  0
C  C50  1  0.48515515  0.37676885  0.12021189  1  0.160302  0  -0.007637  0.049392  0  3.898071  0
C  C51  1  0.51892363  0.28359635  0.21365701  1  -0.013529  0  0.00068  0.156746  0  3.946179  0
C  C52  1  0.49106591  0.42231914  0.21353698  1  -0.141741  0  -0.007916  0.056271  0  3.913205  0
C  C53  1  0.53790744  0.23930754  0.11978213  1  0.093862  0  -0.083713  -0.165615  0  3.937947  0
C  C54  1  0.46522368  0.46215897  0.11519095  1  -0.08696  0  -0.150076  -0.190799  0  3.867711  0
C  C55  1  0.47511931  0.51403181  0.22131721  1  -0.000529  0  -0.151042  -0.191823  0  3.863389  0
C  C56  1  0.52419353  0.53094106  0.77036191  1  -0.037648  0  -0.239137  -0.416251  0  3.973982  0
C  C57  1  0.52416508  0.73944278  0.46907565  1  -0.003013  0  -0.239151  -0.41599  0  3.973785  0
C  C58  1  0.52410410  0.22963253  0.26055915  1  -0.049985  0  -0.23917  -0.415936  0  3.973679  0
O  O59  1  0.71312818  0.59744991  0.58651120  1  -1.26059  0  -0.238657  -0.603571  0  2.349376  0
O  O60  1  0.71313077  0.48906193  0.40254913  1  -1.260705  0  -0.238704  -0.603616  0  2.34946  0
O  O61  1  0.71309790  0.41348992  0.51092763  1  -1.255805  0  -0.238681  -0.603638  0  2.34966  0
O  O62  1  0.24376847  0.59909026  0.51322336  1  -1.251607  0  -0.230642  -0.591389  0  2.359635  0
O  O63  1  0.24372555  0.48676896  0.58584201  1  -1.24822  0  -0.230942  -0.59158  0  2.359988  0
O  O64  1  0.24375173  0.41413409  0.40091516  1  -1.254315  0  -0.230737  -0.591445  0  2.359533  0
O  O65  1  0.75199094  0.17762196  0.93134310  1  -1.260223  0  -0.237413  -0.599133  0  2.347994  0
O  O66  1  0.75200885  0.25371367  0.82238573  1  -1.259819  0  -0.237329  -0.599081  0  2.348253  0
O  O67  1  0.75195844  0.06865773  0.74629137  1  -1.258543  0  -0.237222  -0.598792  0  2.348118  0
O  O68  1  0.28306772  0.25238496  0.93176417  1  -1.253269  0  -0.236672  -0.596483  0  2.341006  0
O  O69  1  0.28299321  0.06823093  0.82062740  1  -1.252837  0  -0.236418  -0.596111  0  2.341443  0
O  O70  1  0.28307622  0.17938401  0.74762478  1  -1.24899  0  -0.236781  -0.596579  0  2.341259  0
