# generated using pymatgen
data_Cu3H21(C5N2)4
_symmetry_space_group_name_H-M   'P 1'
_cell_length_a   11.32594995
_cell_length_b   11.35934759
_cell_length_c   12.19120000
_cell_angle_alpha   67.81291516
_cell_angle_beta   87.73421797
_cell_angle_gamma   69.75206632
_symmetry_Int_Tables_number   1
_chemical_formula_structural   Cu3H21(C5N2)4
_chemical_formula_sum   'Cu6 H42 C40 N16'
_cell_volume   1355.05757882
_cell_formula_units_Z   2
loop_
 _symmetry_equiv_pos_site_id
 _symmetry_equiv_pos_as_xyz
  1  'x, y, z'
loop_
 _atom_site_type_symbol
 _atom_site_label
 _atom_site_symmetry_multiplicity
 _atom_site_fract_x
 _atom_site_fract_y
 _atom_site_fract_z
 _atom_site_occupancy
 _atom_site_hle17_bader_spin_density
 _atom_site_hle17_ddec_charge
 _atom_site_hle17_ddec_spin_density
 _atom_site_hle17_ddec_sum_bond_order
 _atom_site_hle17_magmom
 _atom_site_hse06_10hf_bader_spin_density
 _atom_site_hse06_10hf_ddec_charge
 _atom_site_hse06_10hf_ddec_spin_density
 _atom_site_hse06_10hf_ddec_sum_bond_order
 _atom_site_hse06_10hf_magmom
 _atom_site_hse06_bader_spin_density
 _atom_site_hse06_ddec_charge
 _atom_site_hse06_ddec_spin_density
 _atom_site_hse06_ddec_sum_bond_order
 _atom_site_hse06_magmom
 _atom_site_pbe_bader_charge
 _atom_site_pbe_bader_spin_density
 _atom_site_pbe_cm5_charge
 _atom_site_pbe_ddec_charge
 _atom_site_pbe_ddec_spin_density
 _atom_site_pbe_ddec_sum_bond_order
 _atom_site_pbe_magmom
Cu  Cu0  1  0.68562573  0.36691467  0.72473908  1  0  0.406491  0  2.272368  0  0  0.314179  0  2.760096  0  0  0.309054  0  2.718682  0  0.659025  0  0.506167  0.320971  0  2.785401  0
Cu  Cu1  1  0.31437372  0.63308267  0.27526139  1  0  0.406476  0  2.272417  0  0  0.314156  0  2.76015  0  0  0.309048  0  2.718765  0  0.659007  0  0.506169  0.320954  0  2.785485  0
Cu  Cu2  1  0.62961862  0.81243980  0.41662583  1  0  0.396569  0  2.23185  0  0  0.297173  0  2.728686  0  0  0.294496  0  2.686283  0  0.65705  0  0.499067  0.300937  0  2.756284  0
Cu  Cu3  1  0.37037981  0.18756059  0.58337606  1  0  0.396582  0  2.231856  0  0  0.297207  0  2.728711  0  0  0.294514  0  2.686318  0  0.657034  0  0.49909  0.300949  0  2.756216  0
Cu  Cu4  1  0.45661589  0.12303051  0.01063733  1  0  0.369971  0  2.336248  0  0  0.281103  0  2.83736  0  0  0.278761  0  2.786875  0  0.656577  0  0.484161  0.284953  0  2.870868  0
Cu  Cu5  1  0.54338098  0.87697191  0.98936472  1  0  0.370058  0  2.336336  0  0  0.281205  0  2.83746  0  0  0.278895  0  2.786971  0  0.656264  0  0.484187  0.285049  0  2.870934  0
H  H6  1  0.08493250  0.60187857  0.66439307  1  0  0.113791  0  0.932676  0  0  0.133996  0  0.990564  0  0  0.13587  0  0.98988  0  0.064563  0  0.094637  0.132778  0  0.990925  0
H  H7  1  0.91506790  0.39812386  0.33560393  1  0  0.113772  0  0.932739  0  0  0.133966  0  0.990632  0  0  0.135841  0  0.989948  0  0.064567  0  0.094629  0.132749  0  0.990993  0
H  H8  1  0.02403830  0.51074757  0.60616805  1  0  0.124609  0  0.936246  0  0  0.148891  0  0.988394  0  0  0.150137  0  0.988519  0  0.054656  0  0.101675  0.148129  0  0.988045  0
H  H9  1  0.97596067  0.48925383  0.39383100  1  0  0.124635  0  0.936207  0  0  0.148917  0  0.988353  0  0  0.150161  0  0.98848  0  0.05466  0  0.101698  0.148154  0  0.988004  0
H  H10  1  0.18285348  0.50179677  0.58974414  1  0  0.128672  0  0.950074  0  0  0.14695  0  1.01257  0  0  0.148151  0  1.012902  0  0.0753  0  0.095953  0.145971  0  1.012595  0
H  H11  1  0.81714529  0.49820260  0.41025563  1  0  0.128685  0  0.950021  0  0  0.146956  0  1.012523  0  0  0.148156  0  1.012856  0  0.075295  0  0.095951  0.145978  0  1.012549  0
H  H12  1  0.33992847  0.36856921  0.80518695  1  0  0.297731  0  0.874921  0  0  0.286314  0  0.924938  0  0  0.291571  0  0.922587  0  0.514017  0  0.336375  0.282511  0  0.926896  0
H  H13  1  0.66006928  0.63143322  0.19481343  1  0  0.297742  0  0.874844  0  0  0.286324  0  0.924864  0  0  0.291579  0  0.922515  0  0.514003  0  0.336378  0.282519  0  0.926826  0
H  H14  1  0.59787484  0.09899337  0.27626658  1  0  0.296731  0  0.870297  0  0  0.286453  0  0.918116  0  0  0.291939  0  0.915127  0  0.509628  0  0.338736  0.282639  0  0.920305  0
H  H15  1  0.40212304  0.90100600  0.72373241  1  0  0.296689  0  0.870308  0  0  0.286425  0  0.918097  0  0  0.291912  0  0.915108  0  0.509641  0  0.338711  0.282608  0  0.920285  0
H  H16  1  0.24326041  0.02929603  0.09681860  1  0  0.120885  0  0.951707  0  0  0.137558  0  1.021141  0  0  0.139494  0  1.020252  0  0.047397  0  0.095389  0.136102  0  1.021829  0
H  H17  1  0.75674033  0.97070537  0.90318120  1  0  0.120902  0  0.9517  0  0  0.137579  0  1.021123  0  0  0.139515  0  1.020234  0  0.047465  0  0.095395  0.136125  0  1.021809  0
H  H18  1  0.14993209  0.00732986  0.99820215  1  0  0.117615  0  0.92924  0  0  0.139883  0  0.984911  0  0  0.141016  0  0.985533  0  0.054115  0  0.095184  0.139077  0  0.984466  0
H  H19  1  0.85006831  0.99267256  0.00179813  1  0  0.117654  0  0.929202  0  0  0.13992  0  0.984868  0  0  0.141053  0  0.985491  0  0.054077  0  0.095212  0.139112  0  0.984425  0
H  H20  1  0.07503142  0.11201688  0.07668641  1  0  0.110052  0  0.936476  0  0  0.129671  0  0.996233  0  0  0.130944  0  0.996651  0  0.027175  0  0.090805  0.128768  0  0.995979  0
H  H21  1  0.92496877  0.88798351  0.92331377  1  0  0.110063  0  0.936532  0  0  0.129678  0  0.99629  0  0  0.130953  0  0.996708  0  0.027212  0  0.090817  0.128776  0  0.996037  0
H  H22  1  0.89974543  0.40748091  0.74310626  1  0  0.100911  0  0.929676  0  0  0.118418  0  0.988358  0  0  0.120473  0  0.986335  0  0.091749  0  0.103572  0.11683  0  0.989975  0
H  H23  1  0.10025388  0.59251948  0.25689231  1  0  0.100898  0  0.929681  0  0  0.118396  0  0.988378  0  0  0.12045  0  0.986357  0  0.091765  0  0.103561  0.116815  0  0.989988  0
H  H24  1  0.91160125  0.27413626  0.87996020  1  0  0.096136  0  0.911723  0  0  0.114954  0  0.968531  0  0  0.117031  0  0.96594  0  0.065756  0  0.105444  0.113205  0  0.970727  0
H  H25  1  0.08839684  0.72586515  0.12003888  1  0  0.096146  0  0.911702  0  0  0.114966  0  0.968512  0  0  0.117043  0  0.96592  0  0.065756  0  0.105444  0.113216  0  0.97071  0
H  H26  1  0.15950983  0.11137136  0.74500307  1  0  0.111212  0  0.968648  0  0  0.116893  0  1.037644  0  0  0.120566  0  1.036414  0  0.099728  0  0.103304  0.114351  0  1.038502  0
H  H27  1  0.84048839  0.88862700  0.25499709  1  0  0.111217  0  0.968583  0  0  0.11692  0  1.037566  0  0  0.120591  0  1.036336  0  0.099718  0  0.103309  0.114378  0  1.038425  0
H  H28  1  0.13547496  0.96758669  0.63960611  1  0  0.083405  0  0.979252  0  0  0.091548  0  1.044819  0  0  0.09386  0  1.043456  0  0.060732  0  0.100447  0.089905  0  1.045719  0
H  H29  1  0.86452537  0.03241064  0.36039679  1  0  0.083401  0  0.979264  0  0  0.091538  0  1.044843  0  0  0.093851  0  1.043479  0  0.060764  0  0.100432  0.089898  0  1.04574  0
H  H30  1  0.91714630  0.99694178  0.57131146  1  0  0.099217  0  0.982247  0  0  0.109344  0  1.045225  0  0  0.111702  0  1.045996  0  0.09534  0  0.100354  0.107774  0  1.044636  0
H  H31  1  0.08285492  0.00305555  0.42868976  1  0  0.099178  0  0.982327  0  0  0.109327  0  1.045276  0  0  0.111685  0  1.046048  0  0.094152  0  0.10034  0.107756  0  1.044685  0
H  H32  1  0.64673640  0.14088833  0.68420150  1  0  0.109166  0  0.927827  0  0  0.127095  0  0.988204  0  0  0.127302  0  0.988891  0  0.094082  0  0.106347  0.126976  0  0.987601  0
H  H33  1  0.35326325  0.85911104  0.31579578  1  0  0.109192  0  0.927804  0  0  0.127131  0  0.988176  0  0  0.127333  0  0.988867  0  0.094044  0  0.106373  0.127006  0  0.987573  0
H  H34  1  0.64051725  0.28841213  0.56336752  1  0  0.097144  0  0.932642  0  0  0.113259  0  0.99644  0  0  0.116142  0  0.992577  0  0.094555  0  0.101524  0.111374  0  0.998689  0
H  H35  1  0.35948417  0.71158724  0.43662888  1  0  0.097129  0  0.932614  0  0  0.113261  0  0.996412  0  0  0.116141  0  0.992551  0  0.094563  0  0.101513  0.111371  0  0.998661  0
H  H36  1  0.71163414  0.32835321  0.27508354  1  0  0.113478  0  0.930978  0  0  0.134483  0  0.988528  0  0  0.136269  0  0.988187  0  0.033017  0  0.094494  0.133326  0  0.988629  0
H  H37  1  0.28836450  0.67164921  0.72491270  1  0  0.113473  0  0.930961  0  0  0.134491  0  0.988492  0  0  0.13628  0  0.98815  0  0.033033  0  0.094491  0.133333  0  0.988593  0
H  H38  1  0.59373480  0.39271224  0.35986880  1  0  0.126666  0  0.94568  0  0  0.147389  0  1.00486  0  0  0.148966  0  1.004739  0  0.053365  0  0.099213  0.14587  0  1.005571  0
H  H39  1  0.40626430  0.60728611  0.64013050  1  0  0.126679  0  0.945622  0  0  0.147378  0  1.004825  0  0  0.148974  0  1.004682  0  0.053334  0  0.099204  0.14586  0  1.005534  0
H  H40  1  0.54940915  0.36243774  0.23866539  1  0  0.129091  0  0.927467  0  0  0.151013  0  0.981879  0  0  0.153208  0  0.980816  0  0.073136  0  0.102956  0.149441  0  0.98261  0
H  H41  1  0.45058874  0.63756163  0.76133360  1  0  0.129103  0  0.927456  0  0  0.151014  0  0.981875  0  0  0.153208  0  0.980815  0  0.073171  0  0.102961  0.149441  0  0.982608  0
H  H42  1  0.69366852  0.77896007  0.66150629  1  0  0.121879  0  0.954421  0  0  0.140807  0  1.015871  0  0  0.14284  0  1.01472  0  0.085254  0  0.093741  0.139479  0  1.016465  0
H  H43  1  0.30633222  0.22104133  0.33849516  1  0  0.121869  0  0.954432  0  0  0.1408  0  1.015877  0  0  0.142832  0  1.014727  0  0.085235  0  0.093732  0.139474  0  1.016466  0
H  H44  1  0.65869128  0.89552413  0.73446731  1  0  0.118958  0  0.96371  0  0  0.136757  0  1.031055  0  0  0.138183  0  1.030313  0  0.080311  0  0.090637  0.13579  0  1.031554  0
H  H45  1  0.34130790  0.10447931  0.26553020  1  0  0.118978  0  0.9637  0  0  0.136759  0  1.031063  0  0  0.138187  0  1.03032  0  0.080316  0  0.090634  0.135792  0  1.031563  0
H  H46  1  0.81372378  0.83046664  0.69711864  1  0  0.110299  0  0.933499  0  0  0.132416  0  0.989749  0  0  0.133807  0  0.989648  0  0.040934  0  0.091789  0.131454  0  0.989761  0
H  H47  1  0.18627608  0.16953477  0.30288284  1  0  0.110286  0  0.93352  0  0  0.132405  0  0.989762  0  0  0.133797  0  0.989659  0  0.040944  0  0.091779  0.131443  0  0.989773  0
C  C48  1  0.10875978  0.50621566  0.65065870  1  0  -0.353221  0  3.73771  0  0  -0.426889  0  3.969704  0  0  -0.429757  0  3.977101  0  -0.070951  0  -0.230936  -0.424782  0  3.964369  0
C  C49  1  0.89123920  0.49378574  0.34933953  1  0  -0.353254  0  3.737725  0  0  -0.426902  0  3.969735  0  0  -0.429766  0  3.977133  0  -0.070917  0  -0.230954  -0.424794  0  3.964401  0
C  C50  1  0.14986343  0.38512172  0.76537227  1  0  0.216797  0  3.740619  0  0  0.202912  0  4.01357  0  0  0.212546  0  4.032965  0  0.402302  0  0.101069  0.19683  0  4.000054  0
C  C51  1  0.85013432  0.61488070  0.23462893  1  0  0.216773  0  3.740542  0  0  0.202855  0  4.013516  0  0  0.212488  0  4.03291  0  0.402268  0  0.101026  0.196772  0  4.000004  0
C  C52  1  0.08826492  0.29757166  0.83134047  1  0  -0.140681  0  3.777525  0  0  -0.128505  0  4.028123  0  0  -0.139316  0  4.056111  0  -0.011449  0  -0.040667  -0.12155  0  4.009187  0
C  C53  1  0.91173317  0.70242974  0.16866025  1  0  -0.140669  0  3.777414  0  0  -0.128427  0  4.027988  0  0  -0.139243  0  4.055965  0  -0.011433  0  -0.040648  -0.121472  0  4.009054  0
C  C54  1  0.17388978  0.20076941  0.93272981  1  0  0.205977  0  3.748627  0  0  0.206442  0  4.008133  0  0  0.213566  0  4.029859  0  0.499319  0  0.096497  0.201788  0  3.993225  0
C  C55  1  0.82611096  0.79923199  0.06726999  1  0  0.206027  0  3.748532  0  0  0.206421  0  4.008093  0  0  0.213577  0  4.02979  0  0.4993  0  0.096499  0.201766  0  3.993184  0
C  C56  1  0.15937390  0.08151940  0.03144783  1  0  -0.339304  0  3.729564  0  0  -0.416245  0  3.96644  0  0  -0.419487  0  3.975412  0  -0.039807  0  -0.234072  -0.413766  0  3.960104  0
C  C57  1  0.84062685  0.91848201  0.96855197  1  0  -0.339377  0  3.729549  0  0  -0.4163  0  3.966435  0  0  -0.419554  0  3.975398  0  -0.039906  0  -0.234105  -0.413822  0  3.9601  0
C  C58  1  0.96057332  0.30255564  0.79928417  1  0  -0.191088  0  3.773178  0  0  -0.240379  0  4.018914  0  0  -0.239674  0  4.028534  0  -0.029793  0  -0.150317  -0.240744  0  4.012622  0
C  C59  1  0.03942600  0.69744475  0.20071523  1  0  -0.191109  0  3.773095  0  0  -0.240417  0  4.018855  0  0  -0.239713  0  4.028474  0  -0.029761  0  -0.15033  -0.240788  0  4.012561  0
C  C60  1  0.95802640  0.21246013  0.73503364  1  0  0.269545  0  3.691947  0  0  0.275426  0  3.93029  0  0  0.283331  0  3.950604  0  0.46248  0  0.120327  0.270183  0  3.916574  0
C  C61  1  0.04197359  0.78753822  0.26496809  1  0  0.269565  0  3.691917  0  0  0.275457  0  3.930277  0  0  0.283365  0  3.950586  0  0.462488  0  0.120336  0.270215  0  3.91656  0
C  C62  1  0.06638089  0.11981816  0.71520671  1  0  -0.180768  0  3.728223  0  0  -0.200257  0  3.975612  0  0  -0.208894  0  3.996104  0  -0.01232  0  -0.094509  -0.194882  0  3.961813  0
C  C63  1  0.93361876  0.88018121  0.28479549  1  0  -0.180822  0  3.728206  0  0  -0.200337  0  3.975604  0  0  -0.208969  0  3.996096  0  -0.012379  0  -0.094535  -0.194962  0  3.961806  0
C  C64  1  0.05242157  0.04074239  0.65621730  1  0  -0.002299  0  3.773353  0  0  -0.020124  0  4.025645  0  0  -0.013654  0  4.042169  0  -0.055391  0  -0.079235  -0.024004  0  4.014275  0
C  C65  1  0.94758018  0.95925596  0.34378601  1  0  -0.002257  0  3.773412  0  0  -0.020077  0  4.025704  0  0  -0.013608  0  4.042228  0  -0.055334  0  -0.079208  -0.02396  0  4.014332  0
C  C66  1  0.93146919  0.05673186  0.61793131  1  0  -0.194035  0  3.751031  0  0  -0.210704  0  3.99336  0  0  -0.220153  0  4.016149  0  -0.025041  0  -0.099912  -0.204817  0  3.978198  0
C  C67  1  0.06853202  0.94326548  0.38206992  1  0  -0.194073  0  3.751057  0  0  -0.210757  0  3.99339  0  0  -0.220207  0  4.016178  0  -0.023949  0  -0.099924  -0.204872  0  3.978237  0
C  C68  1  0.82677194  0.15208218  0.63918275  1  0  0.276661  0  3.695276  0  0  0.281314  0  3.934335  0  0  0.289242  0  3.95475  0  0.488493  0  0.119965  0.275947  0  3.920834  0
C  C69  1  0.17322961  0.84791413  0.36081718  1  0  0.276703  0  3.695156  0  0  0.281362  0  3.934237  0  0  0.28929  0  3.954651  0  0.488619  0  0.119947  0.27599  0  3.920736  0
C  C70  1  0.69169202  0.17733096  0.60235098  1  0  -0.199219  0  3.761448  0  0  -0.246189  0  3.999987  0  0  -0.245887  0  4.01042  0  -0.066623  0  -0.152366  -0.246199  0  3.992362  0
C  C71  1  0.30830906  0.82266943  0.39764671  1  0  -0.199132  0  3.7613  0  0  -0.246145  0  3.999907  0  0  -0.245835  0  4.01033  0  -0.066617  0  -0.152337  -0.246132  0  3.992258  0
C  C72  1  0.62262134  0.32343542  0.31284628  1  0  -0.352813  0  3.741464  0  0  -0.429195  0  3.975013  0  0  -0.432956  0  3.984103  0  -0.022299  0  -0.230334  -0.426338  0  3.968912  0
C  C73  1  0.37737886  0.67656497  0.68715144  1  0  -0.352873  0  3.741393  0  0  -0.429222  0  3.974964  0  0  -0.432999  0  3.984035  0  -0.022309  0  -0.230332  -0.426367  0  3.96886  0
C  C74  1  0.63894968  0.18235668  0.39583709  1  0  0.218352  0  3.737638  0  0  0.20605  0  4.007815  0  0  0.215019  0  4.028597  0  0.338715  0  0.10291  0.200096  0  3.993593  0
C  C75  1  0.36105208  0.81764167  0.60416129  1  0  0.218519  0  3.737544  0  0  0.206149  0  4.007784  0  0  0.215116  0  4.028565  0  0.338689  0  0.102917  0.200196  0  3.993552  0
C  C76  1  0.67235273  0.11600610  0.51898281  1  0  -0.139823  0  3.769464  0  0  -0.1291  0  4.02834  0  0  -0.138453  0  4.052709  0  0.079671  0  -0.037808  -0.123039  0  4.011534  0
C  C77  1  0.32764957  0.88399327  0.48101519  1  0  -0.139942  0  3.76949  0  0  -0.129191  0  4.0284  0  0  -0.138544  0  4.052763  0  0.079521  0  -0.037831  -0.123142  0  4.011592  0
C  C78  1  0.67891295  0.98052570  0.54826972  1  0  0.208497  0  3.748449  0  0  0.204821  0  4.019446  0  0  0.213437  0  4.037302  0  0.44132  0  0.097257  0.199299  0  4.007099  0
C  C79  1  0.32108793  0.01947265  0.45172952  1  0  0.208429  0  3.748543  0  0  0.204742  0  4.01955  0  0  0.213359  0  4.037402  0  0.44139  0  0.097234  0.199222  0  4.007199  0
C  C80  1  0.71278159  0.86510810  0.66664495  1  0  -0.346779  0  3.72353  0  0  -0.421477  0  3.952462  0  0  -0.424247  0  3.960114  0  -0.098068  0  -0.237465  -0.419441  0  3.946875  0
C  C81  1  0.28721915  0.13489330  0.33335404  1  0  -0.346755  0  3.723547  0  0  -0.421445  0  3.952471  0  0  -0.424214  0  3.960122  0  -0.098024  0  -0.237455  -0.419411  0  3.946878  0
C  C82  1  0.52440672  0.98679767  0.15590629  1  0  -0.129426  0  3.602377  0  0  -0.133048  0  3.994421  0  0  -0.111718  0  3.975206  0  0.682112  0  -0.072049  -0.149286  0  4.008712  0
C  C83  1  0.47559538  0.01319966  0.84409736  1  0  -0.129754  0  3.602027  0  0  -0.133416  0  3.994162  0  0  -0.112088  0  3.974964  0  0.681904  0  -0.072181  -0.149649  0  4.008418  0
C  C84  1  0.59263444  0.30351171  0.84453497  1  0  -0.146  0  3.569997  0  0  -0.149528  0  3.94478  0  0  -0.133515  0  3.938655  0  0.699181  0  -0.076653  -0.161697  0  3.948932  0
C  C85  1  0.40736609  0.69648766  0.15546639  1  0  -0.145952  0  3.569843  0  0  -0.149477  0  3.944626  0  0  -0.133471  0  3.938519  0  0.699176  0  -0.076608  -0.161655  0  3.948791  0
C  C86  1  0.65869208  0.64186343  0.52880308  1  0  -0.128558  0  3.59578  0  0  -0.126608  0  3.975009  0  0  -0.109957  0  3.966037  0  0.694662  0  -0.07259  -0.138529  0  3.981239  0
C  C87  1  0.34130581  0.35813594  0.47119919  1  0  -0.128473  0  3.595655  0  0  -0.126529  0  3.974906  0  0  -0.109878  0  3.965944  0  0.694622  0  -0.072528  -0.138425  0  3.981066  0
N  N88  1  0.28070804  0.22812073  0.92910524  1  0  -0.22924  0  3.246583  0  0  -0.193271  0  3.559213  0  0  -0.201353  0  3.567961  0  -0.728615  0  -0.285153  -0.188052  0  3.553237  0
N  N89  1  0.71929148  0.77188170  0.07089507  1  0  -0.229304  0  3.246593  0  0  -0.193286  0  3.559203  0  0  -0.201401  0  3.567972  0  -0.728594  0  -0.285191  -0.188063  0  3.553216  0
N  N90  1  0.26351953  0.34017528  0.82833266  1  0  -0.205277  0  3.473229  0  0  -0.155837  0  3.710765  0  0  -0.16847  0  3.728835  0  -0.847224  0  -0.289267  -0.147495  0  3.698613  0
N  N91  1  0.73647877  0.65982816  0.17166734  1  0  -0.205231  0  3.473086  0  0  -0.155795  0  3.71062  0  0  -0.168424  0  3.728702  0  -0.847193  0  -0.289216  -0.147457  0  3.698474  0
N  N92  1  0.84101496  0.22768596  0.69717608  1  0  -0.369523  0  3.279992  0  0  -0.306817  0  3.551528  0  0  -0.31985  0  3.561251  0  -1.23823  0  -0.354376  -0.298518  0  3.544617  0
N  N93  1  0.15898591  0.77231239  0.30282233  1  0  -0.3695  0  3.279984  0  0  -0.306795  0  3.551519  0  0  -0.319833  0  3.561253  0  -1.238274  0  -0.35433  -0.298501  0  3.544621  0
N  N94  1  0.62615699  0.08841552  0.35889924  1  0  -0.211299  0  3.473921  0  0  -0.156283  0  3.706308  0  0  -0.169849  0  3.725697  0  -0.843763  0  -0.289604  -0.147306  0  3.693346  0
N  N95  1  0.37384389  0.91158283  0.64109917  1  0  -0.211376  0  3.473927  0  0  -0.15633  0  3.706302  0  0  -0.169888  0  3.725676  0  -0.843635  0  -0.289606  -0.147339  0  3.693322  0
N  N96  1  0.65004024  0.96540474  0.44948388  1  0  -0.245763  0  3.234989  0  0  -0.211402  0  3.557977  0  0  -0.21852  0  3.564832  0  -0.733879  0  -0.286223  -0.20698  0  3.55338  0
N  N97  1  0.34996064  0.03459361  0.55051618  1  0  -0.245705  0  3.235038  0  0  -0.211353  0  3.558019  0  0  -0.218463  0  3.564864  0  -0.73388  0  -0.286185  -0.206926  0  3.553381  0
N  N98  1  0.56984922  0.91040582  0.25372904  1  0  -0.38654  0  3.326889  0  0  -0.329849  0  3.669202  0  0  -0.342724  0  3.668829  0  -1.4187  0  -0.452495  -0.321844  0  3.670019  0
N  N99  1  0.43015118  0.08959660  0.74626796  1  0  -0.386294  0  3.326301  0  0  -0.329608  0  3.668661  0  0  -0.342482  0  3.668304  0  -1.418537  0  -0.452433  -0.321601  0  3.669422  0
N  N100  1  0.53344850  0.25128427  0.91532122  1  0  -0.393544  0  3.327869  0  0  -0.330849  0  3.643808  0  0  -0.346107  0  3.648176  0  -1.413948  0  -0.444358  -0.320774  0  3.640806  0
N  N101  1  0.46655456  0.74871815  0.08467896  1  0  -0.39357  0  3.327745  0  0  -0.33088  0  3.6437  0  0  -0.346143  0  3.648073  0  -1.413921  0  -0.444382  -0.320799  0  3.640682  0
N  N102  1  0.67081571  0.53515329  0.60455862  1  0  -0.411322  0  3.39385  0  0  -0.350955  0  3.729727  0  0  -0.364386  0  3.73142  0  -1.419496  0  -0.459601  -0.342705  0  3.728108  0
N  N103  1  0.32918272  0.46484709  0.39544163  1  0  -0.411389  0  3.393749  0  0  -0.35102  0  3.72964  0  0  -0.364465  0  3.731362  0  -1.419458  0  -0.459654  -0.342786  0  3.728025  0
