# generated using pymatgen
data_CuH16C20S2(N2O3)2
_symmetry_space_group_name_H-M   'P 1'
_cell_length_a   11.12060043
_cell_length_b   11.13497086
_cell_length_c   16.91794941
_cell_angle_alpha   89.99737974
_cell_angle_beta   102.88197305
_cell_angle_gamma   90.00421555
_symmetry_Int_Tables_number   1
_chemical_formula_structural   CuH16C20S2(N2O3)2
_chemical_formula_sum   'Cu2 H32 C40 S4 N8 O12'
_cell_volume   2042.18248017
_cell_formula_units_Z   2
loop_
 _symmetry_equiv_pos_site_id
 _symmetry_equiv_pos_as_xyz
  1  'x, y, z'
loop_
 _atom_site_type_symbol
 _atom_site_label
 _atom_site_symmetry_multiplicity
 _atom_site_fract_x
 _atom_site_fract_y
 _atom_site_fract_z
 _atom_site_occupancy
 _atom_site_pbe_bader_charge
 _atom_site_pbe_bader_spin_density
 _atom_site_pbe_cm5_charge
 _atom_site_pbe_ddec_charge
 _atom_site_pbe_ddec_spin_density
 _atom_site_pbe_ddec_sum_bond_order
 _atom_site_pbe_magmom
Cu  Cu0  1  0.49998591  0.55267390  0.25000186  1  1.100106  0.561987  0.783868  0.677481  0.726704  2.281384  0.56
Cu  Cu1  1  0.50000289  0.44228251  0.74999094  1  1.035425  0.557125  0.783988  0.676318  0.720483  2.278192  0.556
H  H2  1  0.27288743  0.47392050  0.13488259  1  0.158575  0.002329  0.124492  0.113013  0.001122  1.001688  0.002
H  H3  1  0.04576527  0.46488681  0.13038877  1  0.089162  0.001359  0.116529  0.126929  0.000708  0.979547  0.001
H  H4  1  0.12563689  0.62429175  0.36966848  1  0.103182  0.001303  0.11811  0.127592  0.000687  0.972636  0.001
H  H5  1  0.34580180  0.63141417  0.36317246  1  0.180627  0.002297  0.119641  0.098083  0.001068  1.04621  0.002
H  H6  1  0.38824962  0.74322984  0.13456613  1  0.128133  0.002312  0.123141  0.100914  0.001087  1.011373  0.002
H  H7  1  0.38514634  0.96785003  0.12865741  1  0.118467  0.00125  0.11845  0.128205  0.000669  0.975495  0.001
H  H8  1  0.55425605  0.13970002  0.13447659  1  0.092392  0.001338  0.117341  0.131162  0.0007  0.977158  0.001
H  H9  1  0.55774160  0.36177521  0.14116047  1  0.179598  0.00234  0.11837  0.097073  0.001086  1.05231  0.002
H  H10  1  0.72707929  0.47390734  0.36511566  1  0.157835  0.00233  0.124505  0.112931  0.001121  1.001717  0.002
H  H11  1  0.95420105  0.46486735  0.36960686  1  0.089627  0.001358  0.116506  0.126905  0.000708  0.979457  0.001
H  H12  1  0.87434553  0.62430204  0.13033101  1  0.102773  0.001303  0.118118  0.127555  0.000687  0.97266  0.001
H  H13  1  0.65418236  0.63141495  0.13682337  1  0.180521  0.002297  0.119664  0.098128  0.001068  1.04601  0.002
H  H14  1  0.61171097  0.74324962  0.36541916  1  0.128906  0.002311  0.123063  0.10078  0.001087  1.011472  0.002
H  H15  1  0.61478773  0.96787263  0.37131390  1  0.119383  0.001249  0.118392  0.128119  0.000668  0.975679  0.001
H  H16  1  0.44563574  0.13963124  0.36547174  1  0.092804  0.001338  0.117209  0.130892  0.000701  0.977418  0.001
H  H17  1  0.44217082  0.36171617  0.35883274  1  0.179607  0.00234  0.118323  0.096972  0.001086  1.052193  0.002
H  H18  1  0.72702794  0.50897923  0.86843161  1  0.168201  0.002231  0.124746  0.115935  0.001074  1.011428  0.002
H  H19  1  0.95362335  0.52374438  0.87305682  1  0.097171  0.001351  0.116857  0.125989  0.000712  0.981756  0.001
H  H20  1  0.87397702  0.39238099  0.62601967  1  0.107654  0.001262  0.117273  0.126151  0.000675  0.976866  0.001
H  H21  1  0.65447675  0.38299279  0.63149789  1  0.167538  0.002322  0.119384  0.092197  0.001076  1.05913  0.002
H  H22  1  0.50026287  0.25010547  0.87320465  1  0.173155  0.002109  0.117221  0.096367  0.00098  1.06393  0.002
H  H23  1  0.50209079  0.02924724  0.87836878  1  0.101986  0.001185  0.118243  0.127399  0.000637  0.983398  0.001
H  H24  1  0.41976589  0.85331978  0.85590867  1  0.095089  0.001319  0.115745  0.124816  0.000699  0.988707  0.001
H  H25  1  0.42248740  0.63299973  0.85139198  1  0.155927  0.002248  0.11822  0.097437  0.001028  1.049218  0.002
H  H26  1  0.27299740  0.50901677  0.63157038  1  0.168494  0.00223  0.124743  0.115881  0.001074  1.011471  0.002
H  H27  1  0.04640591  0.52379098  0.62694381  1  0.097388  0.00135  0.116864  0.126004  0.000712  0.982049  0.001
H  H28  1  0.12600820  0.39233105  0.87396020  1  0.103419  0.001269  0.117221  0.126094  0.000675  0.977006  0.001
H  H29  1  0.34551154  0.38294147  0.86848985  1  0.167693  0.002322  0.119395  0.092201  0.001076  1.059075  0.002
H  H30  1  0.49974278  0.25009392  0.62680328  1  0.173512  0.002108  0.117177  0.096228  0.000979  1.063955  0.002
H  H31  1  0.49805688  0.02923300  0.62168241  1  0.101658  0.001185  0.11824  0.127344  0.000637  0.983396  0.001
H  H32  1  0.58043079  0.85335337  0.64414634  1  0.09512  0.001319  0.115854  0.125075  0.000699  0.988316  0.001
H  H33  1  0.57753651  0.63302565  0.64858554  1  0.15625  0.002247  0.118277  0.097452  0.001027  1.049063  0.002
C  C34  1  0.23481221  0.50579359  0.18512022  1  0.437696  -0.000628  0.048244  0.09514  -0.001008  3.921887  0.0
C  C35  1  0.10935486  0.50240270  0.18310405  1  -0.006846  0.006101  -0.078588  -0.174263  0.004099  3.943398  0.005
C  C36  1  0.06635338  0.54490477  0.24992529  1  -0.051687  -0.003461  0.015528  0.102336  -0.003885  3.993527  -0.002
C  C37  1  0.15324197  0.59014153  0.31603957  1  0.029346  0.006295  -0.070702  -0.148781  0.004258  3.90295  0.005
C  C38  1  0.27710426  0.59403534  0.31301582  1  0.446614  -0.000822  0.055823  0.116201  -0.001364  3.901748  -0.001
C  C39  1  0.43731779  0.79722548  0.18518806  1  0.500056  -0.001007  0.054048  0.106956  -0.001376  3.92026  -0.001
C  C40  1  0.43671466  0.92194068  0.18252386  1  -0.059257  0.005867  -0.07524  -0.167079  0.003903  3.924679  0.005
C  C41  1  0.52967589  0.18462191  0.18590091  1  -0.036363  0.006582  -0.075629  -0.164561  0.004375  3.914116  0.005
C  C42  1  0.53122884  0.30936138  0.18878225  1  0.476597  -0.000862  0.053217  0.110616  -0.001304  3.90245  0.0
C  C43  1  0.76515617  0.50578207  0.31487743  1  0.438517  -0.000625  0.048181  0.095346  -0.001007  3.92164  0.0
C  C44  1  0.89061152  0.50238623  0.31689233  1  -0.008009  0.006099  -0.078597  -0.174271  0.004097  3.943171  0.005
C  C45  1  0.93361762  0.54490189  0.25006979  1  -0.004293  -0.003447  0.015689  0.102355  -0.003884  3.993499  -0.002
C  C46  1  0.84673672  0.59014494  0.18395800  1  0.029989  0.006292  -0.070742  -0.148703  0.004257  3.902873  0.005
C  C47  1  0.72287377  0.59403561  0.18698387  1  0.445993  -0.00082  0.055792  0.116108  -0.001364  3.901536  -0.001
C  C48  1  0.56263919  0.79724079  0.31479212  1  0.50009  -0.001009  0.054146  0.107166  -0.001376  3.92  -0.001
C  C49  1  0.56322938  0.92195686  0.31744941  1  -0.062082  0.005868  -0.075263  -0.16704  0.003903  3.924919  0.005
C  C50  1  0.47023757  0.18459463  0.31406635  1  -0.036718  0.006585  -0.075654  -0.164374  0.004375  3.914045  0.005
C  C51  1  0.46869284  0.30933404  0.31120543  1  0.476403  -0.000856  0.05341  0.110865  -0.001302  3.902768  0.0
C  C52  1  0.76522993  0.48446049  0.81664760  1  0.429851  -0.000614  0.04812  0.09375  -0.001048  3.914698  0.0
C  C53  1  0.89046764  0.49085002  0.81858248  1  -0.027609  0.005905  -0.078376  -0.172747  0.003977  3.942005  0.005
C  C54  1  0.93371291  0.45713024  0.74988703  1  -0.02248  -0.003418  0.015029  0.101552  -0.00383  3.997751  -0.002
C  C55  1  0.84673763  0.41915622  0.68142217  1  0.011273  0.006279  -0.070965  -0.146943  0.004267  3.904131  0.005
C  C56  1  0.72299162  0.41317890  0.68412105  1  0.435177  -0.000597  0.054082  0.109466  -0.001133  3.911464  0.0
C  C57  1  0.49995792  0.19819975  0.81855539  1  0.424917  -0.000532  0.048262  0.097099  -0.001028  3.918482  0.0
C  C58  1  0.50005157  0.07357792  0.82070635  1  -0.03765  0.005848  -0.075318  -0.162798  0.003988  3.921088  0.005
C  C59  1  0.45614996  0.80957763  0.80861868  1  -0.039468  0.00622  -0.073551  -0.156637  0.004138  3.911219  0.005
C  C60  1  0.45692974  0.68500891  0.80661100  1  0.50467  -0.000863  0.052049  0.108008  -0.001208  3.90512  0.0
C  C61  1  0.23478167  0.48447835  0.68334971  1  0.429532  -0.000615  0.048053  0.09391  -0.001049  3.914558  0.0
C  C62  1  0.10954586  0.49087017  0.68141359  1  -0.028258  0.005904  -0.078372  -0.172749  0.003976  3.94231  0.005
C  C63  1  0.06629376  0.45712771  0.75010201  1  0.021724  -0.003403  0.015041  0.101188  -0.00383  3.998176  -0.002
C  C64  1  0.15325690  0.41913207  0.81856354  1  0.015548  0.006275  -0.070921  -0.146787  0.004268  3.904359  0.005
C  C65  1  0.27700496  0.41315247  0.81586990  1  0.434997  -0.000596  0.054111  0.109562  -0.001132  3.911481  0.0
C  C66  1  0.50007529  0.19819246  0.68145977  1  0.424215  -0.00053  0.048395  0.097533  -0.001027  3.918417  0.0
C  C67  1  0.50006464  0.07357161  0.67933689  1  -0.036112  0.005846  -0.07541  -0.162989  0.003987  3.921729  0.005
C  C68  1  0.54403805  0.80959462  0.69143247  1  -0.040952  0.006225  -0.073699  -0.157122  0.00414  3.911541  0.005
C  C69  1  0.54315784  0.68502124  0.69339537  1  0.504213  -0.000858  0.051992  0.108006  -0.001207  3.905351  0.0
C  C70  1  0.49997249  0.98706839  0.24998203  1  -0.066075  -0.00343  0.017468  0.109636  -0.003824  3.991153  -0.002
C  C71  1  0.49996077  0.11976122  0.24998106  1  0.046727  -0.003617  0.012281  0.09397  -0.004088  4.003243  -0.002
C  C72  1  0.50008430  0.00765363  0.75002876  1  0.112384  -0.00334  0.015865  0.104736  -0.003773  3.99398  -0.002
C  C73  1  0.50010814  0.87512424  0.75003291  1  -0.077905  -0.003411  0.011044  0.093443  -0.003818  3.992659  -0.002
S  S74  1  0.45027806  0.58229029  0.01866027  1  3.064067  -0.00033  0.467444  0.977463  -0.000399  6.244633  0.0
S  S75  1  0.54971002  0.58228981  0.48134347  1  3.063903  -0.00033  0.467256  0.977354  -0.000399  6.244884  0.0
S  S76  1  0.55208134  0.42817589  0.98410501  1  3.058913  -0.000292  0.468484  0.975634  -0.000321  6.226459  0.0
S  S77  1  0.44789953  0.42816364  0.51590358  1  3.059566  -0.000292  0.468388  0.975776  -0.000321  6.227388  0.0
N  N78  1  0.31698839  0.55201262  0.24882485  1  -1.225378  0.096004  -0.339718  -0.22408  0.064099  3.594188  0.083
N  N79  1  0.68298399  0.55201051  0.25117422  1  -1.225168  0.095978  -0.33971  -0.224178  0.064087  3.593811  0.083
N  N80  1  0.68307296  0.44491956  0.75057871  1  -1.207552  0.097139  -0.33876  -0.219706  0.064993  3.587448  0.085
N  N81  1  0.31693023  0.44491535  0.74941696  1  -1.207207  0.097156  -0.338634  -0.219773  0.065001  3.587447  0.085
N  N82  1  0.49998190  0.73592718  0.24999092  1  -1.227054  0.089887  -0.33751  -0.222799  0.060327  3.589864  0.079
N  N83  1  0.49996887  0.37029982  0.24999967  1  -1.230713  0.098538  -0.338793  -0.221418  0.066125  3.586386  0.086
N  N84  1  0.50000151  0.25984377  0.75000301  1  -1.232374  0.092306  -0.339465  -0.221748  0.06178  3.596067  0.081
N  N85  1  0.50001887  0.62400997  0.74999124  1  -1.17858  0.099652  -0.339006  -0.215523  0.06649  3.586231  0.086
O  O86  1  0.43660131  0.54839386  0.10099352  1  -1.332636  -0.001047  -0.351596  -0.626127  -0.001268  2.38152  0.0
O  O87  1  0.33309085  0.58576135  0.95840012  1  -1.315293  0.000241  -0.36037  -0.570126  0.000133  2.169604  0.0
O  O88  1  0.53007518  0.68720924  0.01865940  1  -1.307941  0.000842  -0.363183  -0.571159  0.000538  2.13479  0.001
O  O89  1  0.56337845  0.54841417  0.39900776  1  -1.332279  -0.001047  -0.351458  -0.626014  -0.001268  2.381748  0.0
O  O90  1  0.66689807  0.58575188  0.54160260  1  -1.315193  0.000241  -0.360341  -0.570103  0.000133  2.169528  0.0
O  O91  1  0.46992448  0.68720436  0.48135476  1  -1.308135  0.000841  -0.363162  -0.571124  0.000537  2.134885  0.001
O  O92  1  0.56033224  0.45658753  0.89990871  1  -1.324651  -0.001047  -0.349095  -0.619485  -0.001285  2.375801  0.0
O  O93  1  0.67108441  0.42640861  0.04225952  1  -1.316709  8.3e-05  -0.358482  -0.565015  1e-05  2.16322  0.0
O  O94  1  0.47259090  0.32361341  0.98823405  1  -1.309782  0.000695  -0.359402  -0.570982  0.000471  2.148612  0.001
O  O95  1  0.43968079  0.45657029  0.60010535  1  -1.3252  -0.001048  -0.349028  -0.619474  -0.001285  2.37621  0.0
O  O96  1  0.32887690  0.42638711  0.45776855  1  -1.316891  8.3e-05  -0.358353  -0.565054  1e-05  2.163441  0.0
O  O97  1  0.52737573  0.32360658  0.51176497  1  -1.30986  0.000694  -0.359524  -0.571066  0.00047  2.148878  0.001
