# generated using pymatgen
data_CdH6C8(N2Cl)2
_symmetry_space_group_name_H-M   'P 1'
_cell_length_a   7.48523656
_cell_length_b   8.24118830
_cell_length_c   8.24119344
_cell_angle_alpha   88.77658554
_cell_angle_beta   89.99995721
_cell_angle_gamma   90.00001151
_symmetry_Int_Tables_number   1
_chemical_formula_structural   CdH6C8(N2Cl)2
_chemical_formula_sum   'Cd2 H12 C16 N8 Cl4'
_cell_volume   508.26062102
_cell_formula_units_Z   2
loop_
 _symmetry_equiv_pos_site_id
 _symmetry_equiv_pos_as_xyz
  1  'x, y, z'
loop_
 _atom_site_type_symbol
 _atom_site_label
 _atom_site_symmetry_multiplicity
 _atom_site_fract_x
 _atom_site_fract_y
 _atom_site_fract_z
 _atom_site_occupancy
 _atom_site_pbe_bader_spin_density
 _atom_site_pbe_cm5_charge
 _atom_site_pbe_ddec_charge
 _atom_site_pbe_ddec_spin_density
 _atom_site_pbe_ddec_sum_bond_order
 _atom_site_pbe_magmom
Cd  Cd0  1  0.74999995  0.01160033  0.98839972  1  0  0.59616  0.710894  0  2.484113  0
Cd  Cd1  1  0.25000023  0.98840149  0.01159979  1  0  0.596157  0.710901  0  2.484124  0
H  H2  1  0.75000137  0.62142082  0.97508145  1  0  0.114706  0.094871  0  1.04055  0
H  H3  1  0.25000015  0.37858100  0.02491928  1  0  0.114708  0.094858  0  1.040557  0
H  H4  1  0.75000153  0.02491677  0.37858281  1  0  0.114662  0.09475  0  1.040623  0
H  H5  1  0.25000132  0.97508141  0.62141798  1  0  0.114679  0.094793  0  1.040574  0
H  H6  1  0.75000275  0.39211743  0.78590119  1  0  0.101214  0.123703  0  1.04951  0
H  H7  1  0.25000010  0.60788318  0.21409956  1  0  0.101222  0.123704  0  1.049504  0
H  H8  1  0.75000280  0.21409921  0.60788565  1  0  0.101248  0.123731  0  1.049453  0
H  H9  1  0.25000005  0.78590018  0.39211512  1  0  0.101238  0.123713  0  1.049447  0
H  H10  1  0.75000028  0.76429834  0.40421754  1  0  0.103703  0.092356  0  1.060236  0
H  H11  1  0.25000124  0.23570227  0.59578199  1  0  0.103705  0.092368  0  1.060235  0
H  H12  1  0.74999899  0.59577890  0.23570031  1  0  0.103711  0.092392  0  1.060224  0
H  H13  1  0.25000119  0.40421930  0.76429805  1  0  0.103702  0.092363  0  1.060247  0
C  C14  1  0.75000008  0.64373626  0.84470493  1  0  0.056889  0.076971  0  3.910538  0
C  C15  1  0.25000010  0.35626435  0.15529461  1  0  0.056904  0.07697  0  3.910565  0
C  C16  1  0.75000156  0.15529793  0.35626806  1  0  0.056914  0.076993  0  3.910641  0
C  C17  1  0.24999996  0.84470269  0.64373026  1  0  0.056895  0.07705  0  3.910498  0
C  C18  1  0.75000145  0.51581764  0.73689681  1  0  -0.05768  -0.106275  0  3.86254  0
C  C19  1  0.25000007  0.48418419  0.26310271  1  0  -0.0577  -0.106273  0  3.862506  0
C  C20  1  0.75000018  0.26310114  0.48418437  1  0  -0.057749  -0.106247  0  3.86248  0
C  C21  1  0.25000000  0.73689704  0.51581641  1  0  -0.057696  -0.106258  0  3.862488  0
C  C22  1  0.75000018  0.55399413  0.57125660  1  0  0.012654  0.062145  0  3.948969  0
C  C23  1  0.25000000  0.44600647  0.42874415  1  0  0.012629  0.062106  0  3.948992  0
C  C24  1  0.75000022  0.42874461  0.44600689  1  0  0.012607  0.062067  0  3.949015  0
C  C25  1  0.24999996  0.57125480  0.55399144  1  0  0.01257  0.062095  0  3.948978  0
C  C26  1  0.75000022  0.72126662  0.53023689  1  0  0.05131  0.009495  0  3.911594  0
C  C27  1  0.25000130  0.27873400  0.46976143  1  0  0.051314  0.009478  0  3.911634  0
C  C28  1  0.75000029  0.46976005  0.27873629  1  0  0.051321  0.009436  0  3.911675  0
C  C29  1  0.24999989  0.53023816  0.72126085  1  0  0.051393  0.00952  0  3.911429  0
N  N30  1  0.75000012  0.79936885  0.79581214  1  0  -0.197428  -0.101874  0  3.485357  0
N  N31  1  0.25000006  0.20063299  0.20418617  1  0  -0.197436  -0.10185  0  3.485308  0
N  N32  1  0.75000029  0.20418318  0.20063541  1  0  -0.197377  -0.101783  0  3.485245  0
N  N33  1  0.25000123  0.79581377  0.79936781  1  0  -0.197452  -0.101993  0  3.485211  0
N  N34  1  0.75000153  0.83953610  0.63808291  1  0  -0.188367  -0.11806  0  3.265808  0
N  N35  1  0.25000133  0.16046451  0.36191662  1  0  -0.188356  -0.118061  0  3.26575  0
N  N36  1  0.74999899  0.36191613  0.16046625  1  0  -0.188382  -0.118057  0  3.265729  0
N  N37  1  0.25000119  0.63808084  0.83953334  1  0  -0.188358  -0.117997  0  3.265454  0
Cl  Cl38  1  0.01011827  0.16258232  0.83741882  1  0  -0.295056  -0.488741  0  1.330844  0
Cl  Cl39  1  0.51011885  0.83741825  0.16258088  1  0  -0.295059  -0.488754  0  1.330858  0
Cl  Cl40  1  0.48988266  0.16258236  0.83741987  1  0  -0.295057  -0.488749  0  1.330867  0
Cl  Cl41  1  0.98988325  0.83741950  0.16258069  1  0  -0.295059  -0.488754  0  1.33086  0
