# generated using pymatgen
data_CdBH15C18(N4O)2
_symmetry_space_group_name_H-M   'P 1'
_cell_length_a   9.00070961
_cell_length_b   17.01893727
_cell_length_c   17.26955900
_cell_angle_alpha   90.00000233
_cell_angle_beta   90.00006189
_cell_angle_gamma   104.76937229
_symmetry_Int_Tables_number   1
_chemical_formula_structural   CdBH15C18(N4O)2
_chemical_formula_sum   'Cd4 B4 H60 C72 N32 O8'
_cell_volume   2557.99007127
_cell_formula_units_Z   4
loop_
 _symmetry_equiv_pos_site_id
 _symmetry_equiv_pos_as_xyz
  1  'x, y, z'
loop_
 _atom_site_type_symbol
 _atom_site_label
 _atom_site_symmetry_multiplicity
 _atom_site_fract_x
 _atom_site_fract_y
 _atom_site_fract_z
 _atom_site_occupancy
 _atom_site_pbe_bader_charge
 _atom_site_pbe_bader_spin_density
 _atom_site_pbe_cm5_charge
 _atom_site_pbe_ddec_charge
 _atom_site_pbe_ddec_spin_density
 _atom_site_pbe_ddec_sum_bond_order
 _atom_site_pbe_magmom
Cd  Cd0  1  0.61692057  0.78533895  0.94057835  1  1.231526  0  0.768301  0.765881  0  2.317824  0
Cd  Cd1  1  0.88307969  0.71466097  0.44057839  1  1.231546  0  0.768303  0.765863  0  2.317848  0
Cd  Cd2  1  0.38307830  0.21466121  0.05942143  1  1.231481  0  0.768286  0.765881  0  2.317834  0
Cd  Cd3  1  0.11692141  0.28533919  0.55942139  1  1.231528  0  0.76829  0.765873  0  2.317862  0
B  B4  1  0.15535847  0.87020871  0.14752496  1  2.206856  0  0.110173  0.527205  0  3.335287  0
B  B5  1  0.34464247  0.62979102  0.64752504  1  2.206861  0  0.110134  0.527073  0  3.335356  0
B  B6  1  0.84464123  0.12979085  0.85247366  1  2.206853  0  0.110172  0.527137  0  3.33531  0
B  B7  1  0.65535945  0.37020854  0.35247416  1  2.206853  0  0.110182  0.527197  0  3.335238  0
H  H8  1  0.32570566  0.65754588  0.02860246  1  0.143064  0  0.120399  0.12395  0  1.016507  0
H  H9  1  0.17429642  0.84245441  0.52860303  1  0.142759  0  0.120378  0.123956  0  1.016542  0
H  H10  1  0.67429375  0.34245307  0.97139732  1  0.143067  0  0.120379  0.123939  0  1.016558  0
H  H11  1  0.82570439  0.15754515  0.47139618  1  0.142751  0  0.120393  0.123947  0  1.016539  0
H  H12  1  0.25424028  0.74094592  0.37765362  1  0.100336  0  0.11784  0.112616  0  1.008262  0
H  H13  1  0.24576006  0.75905389  0.87765365  1  0.100341  0  0.117844  0.112617  0  1.008266  0
H  H14  1  0.74576111  0.25905486  0.62234674  1  0.100343  0  0.117849  0.112635  0  1.008245  0
H  H15  1  0.75423794  0.24094445  0.12234671  1  0.100324  0  0.117855  0.112616  0  1.008323  0
H  H16  1  0.97252023  0.79103978  0.01633365  1  0.139259  0  0.134437  0.100723  0  1.017313  0
H  H17  1  0.52747604  0.70896060  0.51633356  1  0.139229  0  0.134413  0.100709  0  1.017301  0
H  H18  1  0.02747613  0.20895977  0.98366613  1  0.139248  0  0.134415  0.10072  0  1.017291  0
H  H19  1  0.47252506  0.29103956  0.48366449  1  0.13928  0  0.134421  0.100738  0  1.017326  0
H  H20  1  0.40768321  0.91221834  0.03664901  1  0.089961  0  0.128896  0.08652  0  1.013016  0
H  H21  1  0.09231526  0.58778134  0.53664953  1  0.089959  0  0.128923  0.086567  0  1.012967  0
H  H22  1  0.59231619  0.08778060  0.96335135  1  0.089964  0  0.1289  0.086535  0  1.012946  0
H  H23  1  0.90768444  0.41221821  0.46335083  1  0.089973  0  0.128907  0.086551  0  1.012974  0
H  H24  1  0.36760249  0.80822276  0.23670159  1  0.134988  0  0.128536  0.12472  0  0.991934  0
H  H25  1  0.13239865  0.69177699  0.73670155  1  0.134994  0  0.128524  0.124737  0  0.991927  0
H  H26  1  0.63239890  0.19177801  0.76329819  1  0.13498  0  0.128552  0.124789  0  0.991885  0
H  H27  1  0.86760134  0.30822317  0.26329707  1  0.135004  0  0.128529  0.124768  0  0.991913  0
H  H28  1  0.90738685  0.82203710  0.26396011  1  0.148458  0  0.135905  0.098206  0  1.00282  0
H  H29  1  0.59261354  0.67796155  0.76396121  1  0.148452  0  0.135898  0.098201  0  1.002775  0
H  H30  1  0.09261197  0.17796063  0.73604025  1  0.148564  0  0.135913  0.098193  0  1.00279  0
H  H31  1  0.40738668  0.32203679  0.23603973  1  0.148531  0  0.135893  0.09817  0  1.002845  0
H  H32  1  0.93258750  0.95778875  0.19250838  1  0.109771  0  0.128912  0.12543  0  0.986067  0
H  H33  1  0.56741583  0.54221170  0.69250714  1  0.109804  0  0.128926  0.125473  0  0.986012  0
H  H34  1  0.06741302  0.04221020  0.80749256  1  0.109764  0  0.128909  0.125469  0  0.98604  0
H  H35  1  0.43259030  0.45778969  0.30749206  1  0.109763  0  0.128919  0.12546  0  0.986043  0
H  H36  1  0.10885217  0.69788441  0.12530608  1  0.127771  0  0.127209  0.123582  0  0.991393  0
H  H37  1  0.39114983  0.80211531  0.62530677  1  0.127719  0  0.127215  0.12357  0  0.991334  0
H  H38  1  0.89114613  0.30211454  0.87469254  1  0.127781  0  0.127218  0.123612  0  0.991318  0
H  H39  1  0.60885320  0.19788425  0.37469069  1  0.127745  0  0.127209  0.123577  0  0.991264  0
H  H40  1  0.15885515  0.01526629  0.05988461  1  0.126381  0  0.130144  0.089191  0  1.025086  0
H  H41  1  0.34114287  0.48473290  0.55988354  1  0.126408  0  0.130137  0.089183  0  1.025017  0
H  H42  1  0.84114203  0.98473266  0.94011633  1  0.12639  0  0.130157  0.089215  0  1.025099  0
H  H43  1  0.65885654  0.51526605  0.44011624  1  0.126375  0  0.130146  0.08924  0  1.025089  0
H  H44  1  0.00759278  0.63586201  0.90797282  1  0.08103  0  0.094866  0.097269  0  1.043487  0
H  H45  1  0.49240710  0.86413901  0.40797178  1  0.081035  0  0.094863  0.097245  0  1.043472  0
H  H46  1  0.99240387  0.36413815  0.09202811  1  0.081032  0  0.09486  0.097253  0  1.043449  0
H  H47  1  0.50759569  0.13586237  0.59202858  1  0.081003  0  0.094849  0.097231  0  1.043494  0
H  H48  1  0.67744277  0.92942485  0.09653076  1  0.091957  0  0.108656  0.094823  0  1.035036  0
H  H49  1  0.82255899  0.57057739  0.59652966  1  0.091985  0  0.108658  0.094807  0  1.035007  0
H  H50  1  0.32255809  0.07057714  0.90346960  1  0.091978  0  0.108655  0.094792  0  1.035016  0
H  H51  1  0.17744719  0.42942643  0.40347070  1  0.092011  0  0.108641  0.094764  0  1.035013  0
H  H52  1  0.63022490  0.52647505  0.05720721  1  0.085589  0  0.103917  0.114214  0  1.00039  0
H  H53  1  0.86977398  0.97352596  0.55720731  1  0.085584  0  0.103914  0.114196  0  1.000435  0
H  H54  1  0.36977065  0.47352511  0.94279373  1  0.085617  0  0.103922  0.114223  0  1.000454  0
H  H55  1  0.13022771  0.02647542  0.44279420  1  0.085787  0  0.103917  0.114212  0  1.000443  0
H  H56  1  0.53367884  0.11461569  0.20592666  1  0.120395  0  0.112606  0.106418  0  1.02872  0
H  H57  1  0.96631929  0.38538365  0.70592856  1  0.120382  0  0.112564  0.106383  0  1.028654  0
H  H58  1  0.46631835  0.88538325  0.79407196  1  0.120376  0  0.112559  0.106379  0  1.028632  0
H  H59  1  0.03367877  0.61461712  0.29407354  1  0.12039  0  0.112559  0.106342  0  1.02867  0
H  H60  1  0.41126304  0.95364390  0.24684547  1  0.104755  0  0.121457  0.115208  0  1.025999  0
H  H61  1  0.08873759  0.54635708  0.74684655  1  0.104739  0  0.121437  0.115151  0  1.025969  0
H  H62  1  0.58873613  0.04635687  0.75315374  1  0.104748  0  0.121448  0.115178  0  1.025991  0
H  H63  1  0.91126409  0.45364430  0.25315439  1  0.104762  0  0.121458  0.115209  0  1.025984  0
H  H64  1  0.76465078  0.42271651  0.10003115  1  0.075366  0  0.094524  0.096917  0  1.032768  0
H  H65  1  0.73534851  0.07728340  0.60003174  1  0.075349  0  0.094533  0.096936  0  1.032787  0
H  H66  1  0.23534810  0.57728365  0.89997037  1  0.0754  0  0.094546  0.096928  0  1.032778  0
H  H67  1  0.26465288  0.92271737  0.39997035  1  0.075399  0  0.094551  0.09694  0  1.032774  0
C  C68  1  0.30902852  0.71640721  0.04421142  1  0.429021  0  -0.000314  -0.024789  0  3.973569  0
C  C69  1  0.19097137  0.78359309  0.54421200  1  0.429342  0  -0.000296  -0.024884  0  3.973568  0
C  C70  1  0.69096895  0.28359234  0.95578836  1  0.428901  0  -0.000279  -0.024774  0  3.973613  0
C  C71  1  0.80902833  0.21640647  0.45578663  1  0.429245  0  -0.000285  -0.024815  0  3.973524  0
C  C72  1  0.19879346  0.76809374  0.33299410  1  0.453811  0  -0.00626  -0.045972  0  4.038439  0
C  C73  1  0.30120761  0.73190544  0.83299474  1  0.453795  0  -0.006219  -0.045892  0  4.038281  0
C  C74  1  0.80120735  0.23190582  0.66700510  1  0.453806  0  -0.006234  -0.045955  0  4.038256  0
C  C75  1  0.69879291  0.26809351  0.16700447  1  0.45378  0  -0.006269  -0.045945  0  4.038417  0
C  C76  1  0.92634164  0.83247713  0.05096452  1  0.995002  0  0.14628  0.145357  0  3.914799  0
C  C77  1  0.57365582  0.66752326  0.55096445  1  0.994978  0  0.146276  0.145355  0  3.91473  0
C  C78  1  0.07365584  0.16752242  0.94903526  1  0.994968  0  0.146304  0.145361  0  3.914749  0
C  C79  1  0.42634499  0.33247629  0.44903476  1  0.994919  0  0.146256  0.145275  0  3.914773  0
C  C80  1  0.35693560  0.84811127  0.04696658  1  0.98547  0  0.13482  0.117942  0  3.975597  0
C  C81  1  0.14306318  0.65188903  0.54696712  1  0.985484  0  0.134823  0.117889  0  3.975592  0
C  C82  1  0.64306608  0.15189011  0.95303147  1  0.985652  0  0.134836  0.11795  0  3.975632  0
C  C83  1  0.85693763  0.34811053  0.45303208  1  0.9855  0  0.134839  0.117961  0  3.975555  0
C  C84  1  0.25673423  0.80232803  0.26379779  1  0.226458  0  0.002515  -0.079518  0  3.972731  0
C  C85  1  0.24326668  0.69767112  0.76379724  1  0.226541  0  0.002538  -0.079591  0  3.972626  0
C  C86  1  0.74326518  0.19767092  0.73620373  1  0.226537  0  0.002505  -0.079573  0  3.972649  0
C  C87  1  0.75673442  0.30232904  0.23620197  1  0.226527  0  0.002542  -0.079597  0  3.972685  0
C  C88  1  0.01733116  0.80970073  0.27648479  1  0.957717  0  0.146902  0.141567  0  3.921514  0
C  C89  1  0.48266866  0.69029843  0.77648668  1  0.957766  0  0.146894  0.141549  0  3.921479  0
C  C90  1  0.98266713  0.19029822  0.72351441  1  0.957621  0  0.146925  0.141664  0  3.921508  0
C  C91  1  0.51732852  0.30970052  0.22351426  1  0.957598  0  0.146956  0.141647  0  3.921481  0
C  C92  1  0.90217495  0.91875448  0.14231775  1  0.285113  0  -0.00178  -0.082594  0  3.976588  0
C  C93  1  0.59782774  0.58124716  0.64231595  1  0.285095  0  -0.001847  -0.082722  0  3.976691  0
C  C94  1  0.09782726  0.08124568  0.85768319  1  0.285039  0  -0.001883  -0.082825  0  3.976665  0
C  C95  1  0.40217588  0.41875361  0.35768268  1  0.285043  0  -0.001844  -0.082736  0  3.976665  0
C  C96  1  0.20243399  0.73586458  0.09235854  1  0.288481  0  0.003475  -0.069931  0  3.951814  0
C  C97  1  0.29756683  0.76413512  0.59235975  1  0.288509  0  0.003489  -0.069806  0  3.95162  0
C  C98  1  0.79756320  0.26413436  0.90764008  1  0.2885  0  0.003441  -0.06998  0  3.951629  0
C  C99  1  0.70243509  0.23586443  0.40763887  1  0.288455  0  0.003498  -0.069786  0  3.951528  0
C  C100  1  0.24536632  0.02090124  0.10464316  1  0.956172  0  0.136108  0.123356  0  3.963636  0
C  C101  1  0.25462765  0.47909857  0.60464436  1  0.956244  0  0.136131  0.123369  0  3.96357  0
C  C102  1  0.75463005  0.97909832  0.89535662  1  0.956201  0  0.136066  0.123291  0  3.963653  0
C  C103  1  0.74536649  0.52090098  0.39535658  1  0.95619  0  0.136041  0.123166  0  3.96367  0
C  C104  1  0.95543968  0.58857393  0.94951439  1  -0.090774  0  -0.09058  -0.157167  0  3.96872  0
C  C105  1  0.54456147  0.91142782  0.44951368  1  -0.090654  0  -0.09057  -0.157132  0  3.968828  0
C  C106  1  0.04455727  0.41142684  0.05048654  1  -0.0907  0  -0.090542  -0.15707  0  3.968764  0
C  C107  1  0.45544272  0.08857417  0.55048726  1  -0.090734  0  -0.090563  -0.157099  0  3.968809  0
C  C108  1  0.03457951  0.53022336  0.97184070  1  -0.001561  0  -0.012466  0.070223  0  4.010663  0
C  C109  1  0.46542162  0.96977769  0.47183965  1  -0.047822  0  -0.01241  0.070337  0  4.010703  0
C  C110  1  0.96541854  0.46977741  0.02816082  1  -0.04808  0  -0.012489  0.070161  0  4.010897  0
C  C111  1  0.53458257  0.03022430  0.52816013  1  -0.001973  0  -0.012513  0.070128  0  4.010838  0
C  C112  1  0.77705491  0.90468083  0.09384456  1  0.384823  0  -0.013538  -0.048359  0  4.049354  0
C  C113  1  0.72294492  0.59532201  0.59384398  1  0.384941  0  -0.013503  -0.048236  0  4.049434  0
C  C114  1  0.22294624  0.09532176  0.90615522  1  0.384929  0  -0.013541  -0.048247  0  4.04943  0
C  C115  1  0.27705928  0.40467998  0.40615522  1  0.384914  0  -0.013516  -0.048248  0  4.049411  0
C  C116  1  0.81317742  0.58776320  0.98054236  1  -0.013946  0  -0.024282  -0.030215  0  3.993774  0
C  C117  1  0.68682352  0.91223795  0.48054115  1  -0.014031  0  -0.024336  -0.03031  0  3.99381  0
C  C118  1  0.18681953  0.41223757  0.01945916  1  -0.014034  0  -0.024303  -0.030284  0  3.993825  0
C  C119  1  0.31318039  0.08776343  0.51945979  1  -0.01404  0  -0.024285  -0.030262  0  3.993804  0
C  C120  1  0.74369038  0.52680606  0.03498780  1  0.001066  0  -0.08955  -0.097015  0  3.987132  0
C  C121  1  0.75631178  0.97319494  0.53498784  1  0.000985  0  -0.089554  -0.096981  0  3.987166  0
C  C122  1  0.25630739  0.47319411  0.96501314  1  0.001097  0  -0.089528  -0.097007  0  3.987231  0
C  C123  1  0.24369324  0.02680644  0.46501368  1  0.000934  0  -0.089516  -0.096963  0  3.987171  0
C  C124  1  0.43802052  0.06971089  0.18098564  1  0.420311  0  -0.012228  -0.041613  0  4.025287  0
C  C125  1  0.06198117  0.43029077  0.68098731  1  0.420316  0  -0.012199  -0.041678  0  4.025202  0
C  C126  1  0.56198087  0.93028988  0.81901356  1  0.420326  0  -0.012223  -0.041693  0  4.025327  0
C  C127  1  0.93801941  0.56971061  0.31901363  1  0.420311  0  -0.012199  -0.04157  0  4.025239  0
C  C128  1  0.37862813  0.98982940  0.20144245  1  0.274064  0  -0.000897  -0.06865  0  3.955221  0
C  C129  1  0.12137235  0.51016913  0.70144239  1  0.274163  0  -0.00084  -0.068503  0  3.955234  0
C  C130  1  0.62137098  0.01016894  0.79855791  1  0.274051  0  -0.000882  -0.06858  0  3.955174  0
C  C131  1  0.87862875  0.48983104  0.29855797  1  0.27418  0  -0.000889  -0.068647  0  3.955317  0
C  C132  1  0.73531435  0.65321207  0.96031774  1  1.541492  0  0.178015  0.548167  0  4.241704  0
C  C133  1  0.76468706  0.84678786  0.46031714  1  1.541766  0  0.177972  0.548065  0  4.241854  0
C  C134  1  0.26468423  0.34678748  0.03968320  1  1.541895  0  0.178017  0.548197  0  4.241815  0
C  C135  1  0.23531515  0.15321231  0.53968380  1  1.541876  0  0.178038  0.548211  0  4.241795  0
C  C136  1  0.81844993  0.46971000  0.05842964  1  -0.079895  0  -0.095348  -0.138403  0  4.005154  0
C  C137  1  0.68155179  0.03029051  0.55842962  1  -0.079824  0  -0.095302  -0.138367  0  4.00511  0
C  C138  1  0.18154755  0.53028956  0.94157130  1  -0.080332  0  -0.09538  -0.138395  0  4.005054  0
C  C139  1  0.31845101  0.96971087  0.44157132  1  -0.080098  0  -0.095435  -0.138504  0  4.005119  0
N  N140  1  0.23401158  0.82005490  0.09437829  1  -1.509953  0  -0.234842  -0.2219  0  3.753847  0
N  N141  1  0.26598702  0.67994480  0.59437890  1  -1.509938  0  -0.234825  -0.221929  0  3.753903  0
N  N142  1  0.76598531  0.17994344  0.90562149  1  -1.51002  0  -0.234811  -0.22187  0  3.753821  0
N  N143  1  0.73401350  0.32005415  0.40561972  1  -1.509949  0  -0.234859  -0.222059  0  3.753918  0
N  N144  1  0.04875120  0.77297679  0.34011757  1  -1.227871  0  -0.356816  -0.287608  0  3.511366  0
N  N145  1  0.45124959  0.72702178  0.84011772  1  -1.227932  0  -0.356837  -0.287642  0  3.511429  0
N  N146  1  0.95125072  0.22702277  0.65988279  1  -1.22789  0  -0.356826  -0.287646  0  3.511459  0
N  N147  1  0.54874953  0.27297656  0.15988264  1  -1.227897  0  -0.35685  -0.28766  0  3.511499  0
N  N148  1  0.99714002  0.87228280  0.11473803  1  -1.460084  0  -0.231712  -0.216157  0  3.731452  0
N  N149  1  0.50285951  0.62771701  0.61473791  1  -1.460165  0  -0.231726  -0.216155  0  3.731459  0
N  N150  1  0.00285745  0.12771676  0.88526233  1  -1.460091  0  -0.231669  -0.216053  0  3.731342  0
N  N151  1  0.49714212  0.37228194  0.38526129  1  -1.460119  0  -0.231714  -0.21605  0  3.731351  0
N  N152  1  0.25513170  0.95893337  0.15270868  1  -1.455716  0  -0.231911  -0.212478  0  3.723857  0
N  N153  1  0.24486703  0.54106635  0.65270986  1  -1.455839  0  -0.231902  -0.212378  0  3.723879  0
N  N154  1  0.74486800  0.04106618  0.84729052  1  -1.455685  0  -0.231877  -0.212402  0  3.723755  0
N  N155  1  0.75513267  0.45893320  0.34728935  1  -1.455818  0  -0.231871  -0.212445  0  3.723885  0
N  N156  1  0.14060398  0.82909987  0.22795434  1  -1.455551  0  -0.230944  -0.212258  0  3.723486  0
N  N157  1  0.35939684  0.67089927  0.72795559  1  -1.45562  0  -0.230974  -0.212223  0  3.723526  0
N  N158  1  0.85939542  0.17089908  0.77204544  1  -1.45562  0  -0.231005  -0.212354  0  3.723606  0
N  N159  1  0.64060426  0.32910089  0.27204419  1  -1.455543  0  -0.230996  -0.212264  0  3.723425  0
N  N160  1  0.79371683  0.85069311  0.03678404  1  -1.22067  0  -0.354963  -0.29093  0  3.491739  0
N  N161  1  0.70628229  0.64930850  0.53678404  1  -1.220712  0  -0.354904  -0.290927  0  3.491768  0
N  N162  1  0.20628374  0.14930827  0.96321516  1  -1.220645  0  -0.354913  -0.290907  0  3.491789  0
N  N163  1  0.29372022  0.35069228  0.46321516  1  -1.220607  0  -0.354871  -0.290867  0  3.491788  0
N  N164  1  0.35341442  0.08851340  0.12019946  1  -1.222776  0  -0.359798  -0.299364  0  3.519725  0
N  N165  1  0.14658316  0.41148460  0.62020118  1  -1.222837  0  -0.359822  -0.299367  0  3.519495  0
N  N166  1  0.64658247  0.91148494  0.87979974  1  -1.222843  0  -0.359733  -0.299241  0  3.519582  0
N  N167  1  0.85341572  0.58851557  0.37979918  1  -1.22281  0  -0.359766  -0.299212  0  3.519534  0
N  N168  1  0.40488814  0.78734407  0.01608334  1  -1.213926  0  -0.360551  -0.288819  0  3.519344  0
N  N169  1  0.09511058  0.71265622  0.51608386  1  -1.213928  0  -0.36059  -0.288777  0  3.519328  0
N  N170  1  0.59511156  0.21265549  0.98391644  1  -1.213941  0  -0.360601  -0.288854  0  3.519354  0
N  N171  1  0.90488912  0.28734334  0.48391650  1  -1.213824  0  -0.360595  -0.288831  0  3.519271  0
O  O172  1  0.80109837  0.70877289  0.91208201  1  -1.171003  0  -0.364705  -0.583633  0  2.119903  0
O  O173  1  0.69890212  0.79122763  0.41208080  1  -1.171015  0  -0.364704  -0.583591  0  2.119929  0
O  O174  1  0.19889770  0.29122606  0.08791835  1  -1.171008  0  -0.364727  -0.583669  0  2.119943  0
O  O175  1  0.30109957  0.20877375  0.58791898  1  -1.171061  0  -0.364726  -0.583655  0  2.119945  0
O  O176  1  0.60979485  0.65290312  0.99435042  1  -1.169323  0  -0.341416  -0.552125  0  2.158173  0
O  O177  1  0.89020582  0.84709743  0.49434989  1  -1.169583  0  -0.34134  -0.552023  0  2.158261  0
O  O178  1  0.39020432  0.34709765  0.00565110  1  -1.16965  0  -0.341386  -0.5521  0  2.158215  0
O  O179  1  0.10979639  0.15290274  0.50565163  1  -1.169643  0  -0.341408  -0.55213  0  2.15821  0
