# generated using pymatgen
data_NiH(CO)5
_symmetry_space_group_name_H-M   'P 1'
_cell_length_a   6.72852428
_cell_length_b   15.07917848
_cell_length_c   15.07711989
_cell_angle_alpha   117.82750191
_cell_angle_beta   98.55360816
_cell_angle_gamma   98.54914722
_symmetry_Int_Tables_number   1
_chemical_formula_structural   NiH(CO)5
_chemical_formula_sum   'Ni6 H6 C30 O30'
_cell_volume   1295.51689339
_cell_formula_units_Z   6
loop_
 _symmetry_equiv_pos_site_id
 _symmetry_equiv_pos_as_xyz
  1  'x, y, z'
loop_
 _atom_site_type_symbol
 _atom_site_label
 _atom_site_symmetry_multiplicity
 _atom_site_fract_x
 _atom_site_fract_y
 _atom_site_fract_z
 _atom_site_occupancy
 _atom_site_hle17_ddec_charge
 _atom_site_hle17_ddec_spin_density
 _atom_site_hle17_ddec_sum_bond_order
 _atom_site_hle17_magmom
 _atom_site_hse06_10hf_ddec_charge
 _atom_site_hse06_10hf_ddec_spin_density
 _atom_site_hse06_10hf_ddec_sum_bond_order
 _atom_site_hse06_10hf_magmom
 _atom_site_hse06_ddec_charge
 _atom_site_hse06_ddec_spin_density
 _atom_site_hse06_ddec_sum_bond_order
 _atom_site_hse06_magmom
 _atom_site_pbe_cm5_charge
 _atom_site_pbe_ddec_charge
 _atom_site_pbe_ddec_spin_density
 _atom_site_pbe_ddec_sum_bond_order
 _atom_site_pbe_magmom
Ni  Ni0  1  0.96841815  0.26895262  0.59003070  1  0.959094  1.721408  1.953687  1.481  1.001893  1.809609  2.340017  1.633  1.090747  1.863877  2.270049  1.722  0.63897  0.921502  1.757192  2.409475  1.551
Ni  Ni1  1  0.69953381  0.32109174  0.73101493  1  0.960254  1.722237  1.951298  1.481  1.004346  1.811642  2.336493  1.633  1.092829  1.865778  2.267007  1.722  0.639442  0.923785  1.758907  2.405903  1.551
Ni  Ni2  1  0.37836489  0.40990441  0.67889136  1  0.959842  1.722243  1.953707  1.481  1.003751  1.811281  2.339097  1.633  1.092298  1.865588  2.269513  1.722  0.639318  0.923108  1.758432  2.408828  1.55
Ni  Ni3  1  0.03158095  0.73104740  0.40996877  1  0.959126  1.721417  1.953654  1.481  1.001924  1.80961  2.339993  1.633  1.090766  1.863877  2.27004  1.722  0.638976  0.921536  1.757193  2.409445  1.551
Ni  Ni4  1  0.30046379  0.67890828  0.26898510  1  0.960272  1.722241  1.951265  1.481  1.00435  1.811641  2.336458  1.633  1.092838  1.865782  2.266962  1.722  0.639442  0.923786  1.758909  2.405869  1.551
Ni  Ni5  1  0.62163533  0.59009484  0.32110715  1  0.959903  1.72226  1.95365  1.481  1.00383  1.811286  2.339026  1.633  1.09236  1.865592  2.269464  1.722  0.639356  0.923189  1.758443  2.408755  1.55
H  H6  1  0.12518398  0.97882723  0.44027860  1  0.131859  -0.001157  0.940146  -0.001  0.13965  0.000236  1.00247  0.0  0.143702  0.000131  0.999817  0.0  0.108799  0.136836  0.000359  1.004322  0.0
H  H7  1  0.14646162  0.46163358  0.02128894  1  0.132055  -0.001197  0.939072  -0.001  0.139249  0.000229  1.002094  0.0  0.143364  0.000127  0.999334  0.0  0.108667  0.136394  0.000347  1.004  0.0
H  H8  1  0.68478252  0.55968333  0.53838875  1  0.133069  -0.001177  0.93931  -0.001  0.139921  0.000231  1.002669  0.0  0.144021  0.000129  0.99994  0.0  0.10907  0.137064  0.000349  1.004586  0.0
H  H9  1  0.87481551  0.02117356  0.55972125  1  0.131866  -0.001158  0.940165  -0.001  0.139663  0.000236  1.002479  0.0  0.143713  0.000131  0.999827  0.0  0.108812  0.136847  0.000359  1.004331  0.0
H  H10  1  0.85353559  0.53836567  0.97871137  1  0.13208  -0.001202  0.9391  -0.001  0.139274  0.000229  1.002116  0.0  0.143388  0.000127  0.999358  0.0  0.108667  0.136418  0.000347  1.004021  0.0
H  H11  1  0.31521619  0.44031593  0.46161033  1  0.133033  -0.001182  0.939272  -0.001  0.139884  0.000231  1.002646  0.0  0.143984  0.000129  0.999916  0.0  0.109047  0.137025  0.000349  1.004559  0.0
C  C12  1  0.31478727  0.17488929  0.56521533  1  0.695923  -0.011041  3.774435  -0.009  0.666837  0.001721  4.055506  0.001  0.711754  0.00076  4.040447  0.001  0.229202  0.633042  0.002122  4.064741  0.001
C  C13  1  0.13983429  0.39037259  0.82513434  1  0.697211  -0.01079  3.769132  -0.009  0.667013  0.00183  4.05287  0.001  0.711999  0.000817  4.037634  0.001  0.229806  0.633214  0.002309  4.062222  0.001
C  C14  1  0.74935819  0.43470121  0.60951971  1  0.694433  -0.010769  3.772755  -0.009  0.663564  0.001876  4.05728  0.001  0.7085  0.000846  4.042131  0.001  0.226952  0.629797  0.002377  4.066574  0.001
C  C15  1  0.68521334  0.82511073  0.43478490  1  0.696052  -0.01104  3.774394  -0.009  0.666955  0.001721  4.055468  0.001  0.711882  0.000761  4.04039  0.001  0.229234  0.633161  0.002122  4.064709  0.001
C  C16  1  0.86016631  0.60962743  0.17486523  1  0.697323  -0.010786  3.769039  -0.009  0.66703  0.001829  4.052886  0.001  0.712017  0.000817  4.037647  0.001  0.229848  0.633226  0.002308  4.062232  0.001
C  C17  1  0.25063941  0.56529882  0.39047899  1  0.694528  -0.010763  3.772825  -0.009  0.663657  0.001876  4.05736  0.001  0.708593  0.000846  4.042207  0.001  0.226961  0.629887  0.002376  4.066645  0.001
C  C18  1  0.41693566  0.08801605  0.53521144  1  -0.167306  0.012466  3.736737  0.015  -0.160631  0.00875  3.989375  0.011  -0.17329  0.005773  4.013206  0.008  -0.034745  -0.151697  0.012015  3.973255  0.015
C  C19  1  0.32882158  0.44732084  0.91200713  1  -0.16856  0.012303  3.735073  0.015  -0.163188  0.008757  3.990074  0.011  -0.175714  0.005785  4.013664  0.008  -0.037049  -0.154434  0.011999  3.974218  0.015
C  C20  1  0.88144820  0.46467784  0.55264258  1  -0.166768  0.012411  3.734307  0.015  -0.160737  0.00875  3.988556  0.011  -0.173226  0.005768  4.012119  0.008  -0.03529  -0.15202  0.012028  3.972768  0.015
C  C21  1  0.58306383  0.91198475  0.46478907  1  -0.1674  0.012461  3.736784  0.015  -0.16073  0.00875  3.989432  0.011  -0.173391  0.005771  4.013259  0.008  -0.034741  -0.151798  0.012015  3.973315  0.015
C  C22  1  0.67117713  0.55267841  0.08799261  1  -0.1686  0.0123  3.735062  0.015  -0.163148  0.008756  3.990036  0.011  -0.175673  0.005784  4.013623  0.008  -0.037052  -0.15439  0.011998  3.974176  0.015
C  C23  1  0.11855241  0.53532219  0.44735699  1  -0.166794  0.012411  3.734409  0.015  -0.160785  0.00875  3.988681  0.011  -0.173277  0.005767  4.01225  0.008  -0.035283  -0.152065  0.012028  3.972885  0.015
C  C24  1  0.63484798  0.10120081  0.57063550  1  0.318748  0.009916  3.836952  0.006  0.302243  0.004338  4.131264  0.003  0.316631  0.00215  4.152691  0.002  0.066758  0.292128  0.007344  4.113193  0.005
C  C25  1  0.53356016  0.46942057  0.89874343  1  0.315698  0.009876  3.839591  0.006  0.300257  0.004375  4.133438  0.003  0.314602  0.002207  4.154844  0.002  0.065658  0.290165  0.007354  4.115336  0.005
C  C26  1  0.06408380  0.42932156  0.53053994  1  0.317974  0.009764  3.838242  0.006  0.30233  0.004346  4.132167  0.003  0.316654  0.002155  4.153596  0.002  0.065717  0.292279  0.007356  4.114085  0.005
C  C27  1  0.36515151  0.89879999  0.42936435  1  0.318776  0.009917  3.837035  0.006  0.302279  0.004338  4.131333  0.003  0.316666  0.00215  4.152761  0.002  0.066726  0.292164  0.007344  4.113264  0.005
C  C28  1  0.46643967  0.53057791  0.10125536  1  0.315718  0.009882  3.839524  0.006  0.300235  0.004376  4.133404  0.003  0.31458  0.002208  4.154809  0.002  0.065677  0.290143  0.007355  4.115305  0.005
C  C29  1  0.93591719  0.57067924  0.46946001  1  0.317974  0.009766  3.838306  0.006  0.302351  0.004347  4.132222  0.003  0.316676  0.002157  4.153648  0.002  0.065699  0.292299  0.007356  4.11414  0.005
C  C30  1  0.29046575  0.98830089  0.46672725  1  -0.164174  0.024354  3.69894  0.026  -0.209455  0.008182  3.972432  0.009  -0.214256  0.00495  3.994028  0.006  -0.10669  -0.205167  0.012243  3.956752  0.014
C  C31  1  0.30221595  0.47858544  0.01176547  1  -0.162397  0.024602  3.699328  0.027  -0.206585  0.008221  3.972697  0.01  -0.211439  0.004951  3.994216  0.006  -0.105334  -0.202219  0.012381  3.957095  0.014
C  C32  1  0.82359995  0.53320310  0.52143857  1  -0.165925  0.024286  3.701149  0.026  -0.209807  0.00822  3.974425  0.01  -0.21468  0.004965  3.995912  0.006  -0.106053  -0.205461  0.012288  3.958869  0.014
C  C33  1  0.70953524  0.01169991  0.53327270  1  -0.164157  0.024356  3.698913  0.026  -0.209434  0.008181  3.972415  0.009  -0.214234  0.00495  3.994008  0.006  -0.106706  -0.205145  0.012243  3.956736  0.014
C  C34  1  0.69778126  0.52141381  0.98823417  1  -0.16242  0.024612  3.699395  0.027  -0.20663  0.008221  3.972731  0.01  -0.211485  0.004952  3.99425  0.006  -0.10531  -0.202264  0.012382  3.957127  0.014
C  C35  1  0.17639877  0.46679615  0.47855985  1  -0.165857  0.024299  3.7011  0.026  -0.209732  0.00822  3.974389  0.01  -0.214602  0.004965  3.995874  0.006  -0.106033  -0.205386  0.012288  3.958829  0.014
C  C36  1  0.25383796  0.90167767  0.64286706  1  0.834483  0.001826  3.750057  0.003  0.775384  0.002509  4.060307  0.004  0.820812  0.001569  4.043551  0.003  0.385387  0.743587  0.003596  4.071873  0.005
C  C37  1  0.35231041  0.74106199  0.09840451  1  0.836185  0.001835  3.74843  0.003  0.778272  0.00252  4.058076  0.004  0.823743  0.001577  4.041211  0.003  0.388147  0.746419  0.003608  4.069753  0.005
C  C38  1  0.61111138  0.35734761  0.25874686  1  0.834053  0.001824  3.7533  0.003  0.775304  0.002525  4.063428  0.004  0.820784  0.001583  4.04658  0.003  0.386367  0.743459  0.003609  4.075064  0.005
C  C39  1  0.74616118  0.09832545  0.35713584  1  0.834606  0.001828  3.750241  0.003  0.77553  0.002508  4.060456  0.004  0.820959  0.001569  4.043693  0.003  0.385466  0.74373  0.003595  4.072027  0.005
C  C40  1  0.64769319  0.25893803  0.90159857  1  0.836129  0.001838  3.748457  0.003  0.778215  0.00252  4.058118  0.004  0.823687  0.001578  4.041255  0.003  0.388152  0.746362  0.003609  4.069792  0.005
C  C41  1  0.38888883  0.64265164  0.74125365  1  0.834102  0.001825  3.753269  0.003  0.775332  0.002525  4.063417  0.004  0.820813  0.001582  4.046572  0.003  0.386422  0.74349  0.003609  4.07505  0.005
O  O42  1  0.12047490  0.15741250  0.53109191  1  -0.587812  0.047468  2.063808  0.079  -0.565508  0.032589  2.326816  0.056  -0.602501  0.02365  2.312913  0.043  -0.300214  -0.535903  0.040974  2.336235  0.067
O  O43  1  0.96299235  0.37368167  0.84260102  1  -0.589129  0.047434  2.061202  0.079  -0.566142  0.032627  2.324438  0.056  -0.603128  0.023659  2.310534  0.043  -0.300933  -0.536509  0.041027  2.333881  0.067
O  O44  1  0.58913924  0.46880777  0.62616026  1  -0.586327  0.047489  2.063428  0.079  -0.563059  0.032617  2.326713  0.056  -0.600007  0.023658  2.312824  0.043  -0.298074  -0.533414  0.04103  2.336121  0.067
O  O45  1  0.87952420  0.84258752  0.46890689  1  -0.587832  0.047467  2.063826  0.079  -0.565532  0.032589  2.326836  0.056  -0.602531  0.02365  2.312934  0.043  -0.300203  -0.535928  0.040973  2.336259  0.067
O  O46  1  0.03700637  0.62631758  0.15739806  1  -0.589186  0.047431  2.061224  0.079  -0.566157  0.032627  2.324484  0.056  -0.603145  0.023659  2.31058  0.043  -0.300957  -0.536526  0.041027  2.333925  0.067
O  O47  1  0.41085874  0.53119303  0.37383883  1  -0.586394  0.047488  2.063454  0.079  -0.563142  0.032618  2.326763  0.056  -0.600087  0.023658  2.312871  0.043  -0.298085  -0.533497  0.041032  2.336166  0.067
O  O48  1  0.43023458  0.26776428  0.62567670  1  -0.617531  0.082157  2.329469  0.142  -0.604959  0.060004  2.634569  0.106  -0.654258  0.044087  2.621363  0.082  -0.310658  -0.562702  0.074693  2.641206  0.125
O  O49  1  0.16240567  0.35789754  0.73223370  1  -0.616422  0.082187  2.32873  0.142  -0.603366  0.06007  2.634457  0.106  -0.65273  0.044147  2.621223  0.082  -0.31001  -0.561133  0.074749  2.641053  0.125
O  O50  1  0.80445366  0.37429353  0.64200795  1  -0.617078  0.082161  2.328434  0.142  -0.603617  0.060018  2.634229  0.105  -0.653036  0.044085  2.621104  0.082  -0.310611  -0.561364  0.074689  2.640773  0.125
O  O51  1  0.56976491  0.73223652  0.37432448  1  -0.61765  0.082155  2.329502  0.142  -0.605062  0.060003  2.634605  0.106  -0.654358  0.044085  2.621385  0.082  -0.31072  -0.562805  0.07469  2.641246  0.125
O  O52  1  0.83759493  0.64210248  0.26776586  1  -0.61646  0.082185  2.32871  0.142  -0.603385  0.06007  2.634482  0.106  -0.652743  0.044147  2.621243  0.082  -0.310035  -0.56115  0.07475  2.641074  0.125
O  O53  1  0.19554544  0.62570649  0.35799151  1  -0.617139  0.082158  2.32852  0.142  -0.603665  0.060018  2.634315  0.105  -0.653083  0.044085  2.621188  0.082  -0.310638  -0.561414  0.07469  2.640854  0.125
O  O54  1  0.77380902  0.19167027  0.63718608  1  -0.618083  0.104452  2.225985  0.173  -0.628444  0.06018  2.55081  0.103  -0.678007  0.043389  2.546688  0.079  -0.354668  -0.585029  0.075822  2.550189  0.123
O  O55  1  0.58204604  0.44550606  0.80825728  1  -0.616771  0.104549  2.227012  0.174  -0.628197  0.060185  2.552206  0.103  -0.677646  0.043404  2.548063  0.079  -0.353523  -0.584708  0.075915  2.55153  0.123
O  O56  1  0.13651583  0.36279727  0.55451434  1  -0.617303  0.10423  2.227477  0.173  -0.628205  0.060146  2.552834  0.103  -0.677746  0.043396  2.548706  0.079  -0.353883  -0.584815  0.075732  2.552196  0.123
O  O57  1  0.22619047  0.80833053  0.36281377  1  -0.618096  0.104449  2.225963  0.173  -0.628452  0.06018  2.550778  0.103  -0.678013  0.043388  2.546657  0.079  -0.354645  -0.585036  0.075821  2.550157  0.123
O  O58  1  0.41795495  0.55449474  0.19174400  1  -0.616808  0.104554  2.22698  0.174  -0.628232  0.060188  2.552199  0.103  -0.67768  0.043405  2.548055  0.079  -0.353566  -0.584742  0.075918  2.551525  0.123
O  O59  1  0.86348478  0.63720275  0.44548522  1  -0.617333  0.10423  2.227467  0.173  -0.628259  0.060145  2.552831  0.103  -0.677792  0.043396  2.548699  0.079  -0.353911  -0.584869  0.075731  2.552195  0.123
O  O60  1  0.25296130  0.81720101  0.57953923  1  -0.405051  0.005615  2.070914  0.006  -0.373357  0.007867  2.283486  0.008  -0.397195  0.006469  2.268445  0.007  -0.160402  -0.355932  0.009002  2.295339  0.009
O  O61  1  0.43583945  0.76208812  0.18285813  1  -0.406466  0.005614  2.070828  0.006  -0.376569  0.00791  2.284279  0.008  -0.400409  0.006508  2.269149  0.008  -0.16245  -0.359134  0.009037  2.296241  0.009
O  O62  1  0.67350884  0.42076853  0.23770757  1  -0.405682  0.005619  2.073436  0.006  -0.374518  0.007912  2.286367  0.008  -0.398377  0.006509  2.271268  0.008  -0.161245  -0.35706  0.009038  2.298298  0.009
O  O63  1  0.74703707  0.18280057  0.42046091  1  -0.405092  0.005615  2.071121  0.006  -0.373413  0.007868  2.283695  0.008  -0.397253  0.00647  2.268648  0.007  -0.160395  -0.355989  0.009002  2.295551  0.009
O  O64  1  0.56415926  0.23791113  0.81714095  1  -0.406502  0.005615  2.07061  0.006  -0.376608  0.007911  2.284061  0.008  -0.400449  0.006509  2.268933  0.008  -0.162495  -0.359173  0.009038  2.296021  0.009
O  O65  1  0.32649404  0.57923304  0.76229287  1  -0.405687  0.005618  2.073535  0.006  -0.374495  0.007911  2.286454  0.008  -0.398355  0.006509  2.271357  0.008  -0.161247  -0.357035  0.009037  2.298385  0.009
O  O66  1  0.25722194  0.98519722  0.70728764  1  -0.38116  0.001925  1.943428  0.003  -0.344971  0.002568  2.115308  0.004  -0.36534  0.001843  2.106258  0.003  -0.161892  -0.33176  0.00335  2.122  0.005
O  O67  1  0.27224699  0.72207930  0.01491673  1  -0.381028  0.001932  1.942708  0.003  -0.344927  0.002579  2.114121  0.004  -0.365312  0.001852  2.105066  0.003  -0.162646  -0.331724  0.003362  2.120841  0.005
O  O68  1  0.55020964  0.29284015  0.27774583  1  -0.379871  0.001923  1.945368  0.003  -0.343728  0.002579  2.117245  0.004  -0.364102  0.001853  2.108184  0.003  -0.161857  -0.330553  0.003359  2.123965  0.005
O  O69  1  0.74277604  0.01480357  0.29271543  1  -0.38125  0.001924  1.943439  0.003  -0.345071  0.002568  2.115299  0.004  -0.365441  0.001843  2.106245  0.003  -0.161987  -0.331859  0.00335  2.121995  0.005
O  O70  1  0.72775134  0.27791918  0.98508329  1  -0.380936  0.001931  1.942947  0.003  -0.34483  0.002579  2.114367  0.004  -0.365215  0.001852  2.105314  0.003  -0.162592  -0.331627  0.003362  2.121085  0.005
O  O71  1  0.44979964  0.70716219  0.72225539  1  -0.379931  0.001922  1.945235  0.003  -0.343786  0.002579  2.117122  0.004  -0.36416  0.001853  2.10806  0.003  -0.161915  -0.330608  0.003359  2.12384  0.005
