# generated using pymatgen
data_Cu4SiH8(C3N2)4
_symmetry_space_group_name_H-M   'P 1'
_cell_length_a   15.53533358
_cell_length_b   15.56936123
_cell_length_c   15.68903232
_cell_angle_alpha   89.94425728
_cell_angle_beta   89.92833562
_cell_angle_gamma   89.90557222
_symmetry_Int_Tables_number   1
_chemical_formula_structural   Cu4SiH8(C3N2)4
_chemical_formula_sum   'Cu12 Si3 H24 C36 N24'
_cell_volume   3794.77824046
_cell_formula_units_Z   3
loop_
 _symmetry_equiv_pos_site_id
 _symmetry_equiv_pos_as_xyz
  1  'x, y, z'
loop_
 _atom_site_type_symbol
 _atom_site_label
 _atom_site_symmetry_multiplicity
 _atom_site_fract_x
 _atom_site_fract_y
 _atom_site_fract_z
 _atom_site_occupancy
 _atom_site_pbe_bader_charge
 _atom_site_pbe_bader_spin_density
 _atom_site_pbe_cm5_charge
 _atom_site_pbe_ddec_charge
 _atom_site_pbe_ddec_spin_density
 _atom_site_pbe_ddec_sum_bond_order
 _atom_site_pbe_magmom
Cu  Cu0  1  0.73846404  0.73641362  0.87966235  1  0.536118  0  0.482193  0.197866  0  2.119306  0
Cu  Cu1  1  0.90191629  0.75771684  0.76078024  1  0.535827  0  0.481331  0.195776  0  2.119952  0
Cu  Cu2  1  0.74006489  0.87815647  0.73359673  1  0.535036  0  0.482729  0.198123  0  2.121512  0
Cu  Cu3  1  0.73919252  0.25098918  0.10809338  1  0.535271  0  0.481078  0.196561  0  2.119542  0
Cu  Cu4  1  0.87047634  0.25807098  0.26221860  1  0.54449  0  0.483377  0.198692  0  2.12006  0
Cu  Cu5  1  0.74933423  0.09611007  0.23936212  1  0.537997  0  0.480659  0.19619  0  2.115189  0
Cu  Cu6  1  0.26008778  0.73741418  0.12223856  1  0.532636  0  0.481529  0.198216  0  2.118765  0
Cu  Cu7  1  0.11943027  0.74111413  0.26912066  1  0.532087  0  0.482102  0.198537  0  2.113827  0
Cu  Cu8  1  0.25586028  0.89257455  0.25185034  1  0.541677  0  0.480983  0.197286  0  2.112956  0
Cu  Cu9  1  0.25520031  0.26077489  0.88491105  1  0.527958  0  0.480951  0.196468  0  2.119815  0
Cu  Cu10  1  0.10415186  0.26277240  0.74837735  1  0.541438  0  0.481078  0.197651  0  2.109583  0
Cu  Cu11  1  0.25832949  0.12868096  0.73273211  1  0.54594  0  0.482887  0.198753  0  2.119866  0
Si  Si12  1  0.00068390  0.00531057  0.49988360  1  2.768525  0  0.141842  0.788771  0  4.007708  0
Si  Si13  1  0.99823011  0.50108826  0.01333236  1  2.769481  0  0.141105  0.784718  0  4.017181  0
Si  Si14  1  0.49556989  0.99461628  0.98586785  1  2.769563  0  0.141205  0.786497  0  4.012374  0
H  H15  1  0.79993161  0.58201953  0.99829155  1  0.080253  0  0.116085  0.099392  0  1.001897  0
H  H16  1  0.02897687  0.62374153  0.84711340  1  0.092755  0  0.118429  0.101585  0  0.991231  0
H  H17  1  0.59045652  0.99945500  0.79791985  1  0.104052  0  0.117161  0.099991  0  0.99556  0
H  H18  1  0.58432338  0.80254985  0.99244681  1  0.090089  0  0.116601  0.099254  0  0.998254  0
H  H19  1  0.03107021  0.83891240  0.62625142  1  0.103904  0  0.118339  0.101891  0  0.991666  0
H  H20  1  0.80211905  0.98828701  0.57393479  1  0.099299  0  0.116273  0.099834  0  1.000113  0
H  H21  1  0.81369925  0.39890203  0.99097108  1  0.06071  0  0.117212  0.099546  0  0.99439  0
H  H22  1  0.99053283  0.41091788  0.20343325  1  0.094881  0  0.116967  0.099927  0  0.998072  0
H  H23  1  0.60846405  0.97140010  0.16099432  1  0.085002  0  0.117995  0.10121  0  0.993546  0
H  H24  1  0.58813593  0.18675661  0.98783238  1  0.078786  0  0.116287  0.09946  0  1.00042  0
H  H25  1  0.97923849  0.20153869  0.42302842  1  0.095106  0  0.116322  0.099835  0  1.001435  0
H  H26  1  0.83191914  0.97057919  0.37690888  1  0.079519  0  0.118334  0.10117  0  0.990881  0
H  H27  1  0.19172900  0.58526834  0.00975753  1  0.088825  0  0.116646  0.099143  0  0.998692  0
H  H28  1  0.99146899  0.59784237  0.20147186  1  0.107737  0  0.118177  0.101347  0  0.993312  0
H  H29  1  0.39746924  0.01455608  0.16962817  1  0.088131  0  0.117586  0.101009  0  0.993049  0
H  H30  1  0.40194800  0.80233177  0.99182253  1  0.078703  0  0.116791  0.099976  0  0.998254  0
H  H31  1  0.00655807  0.80949862  0.42301137  1  0.109151  0  0.116691  0.100121  0  0.997344  0
H  H32  1  0.18237196  0.02218279  0.38890255  1  0.058872  0  0.117987  0.100823  0  0.992249  0
H  H33  1  0.18916308  0.40282876  0.01281369  1  0.091558  0  0.116882  0.09979  0  0.997472  0
H  H34  1  0.98306082  0.40726882  0.82764671  1  0.098053  0  0.117651  0.10119  0  0.993847  0
H  H35  1  0.40358843  0.00005229  0.79600778  1  0.08274  0  0.117264  0.100345  0  0.996663  0
H  H36  1  0.40111476  0.18348849  0.00304137  1  0.078282  0  0.117399  0.100269  0  0.994915  0
H  H37  1  0.97669028  0.18638402  0.60973556  1  0.095862  0  0.118217  0.1008  0  0.992099  0
H  H38  1  0.19622865  0.01809171  0.57696719  1  0.085493  0  0.116195  0.098988  0  1.000981  0
C  C39  1  0.84865948  0.60211312  0.95281680  1  0.398869  0  0.00753  0.014389  0  4.002484  0
C  C40  1  0.93437390  0.57440393  0.94458017  1  -0.638729  0  -0.093995  -0.345366  0  4.050695  0
C  C41  1  0.96533204  0.62342541  0.87577983  1  0.400329  0  0.011041  0.019983  0  3.99107  0
C  C42  1  0.59847845  0.94282449  0.83762166  1  0.340919  0  0.011393  0.01993  0  3.990058  0
C  C43  1  0.55897098  0.92253735  0.91572506  1  -0.639894  0  -0.093791  -0.34504  0  4.047272  0
C  C44  1  0.59537919  0.84260090  0.93678489  1  0.410829  0  0.009124  0.016116  0  3.996345  0
C  C45  1  0.96734458  0.86756061  0.62335509  1  0.374737  0  0.011059  0.019367  0  3.990074  0
C  C46  1  0.93695938  0.93462145  0.57127097  1  -0.616355  0  -0.09411  -0.346496  0  4.052103  0
C  C47  1  0.85071038  0.94371005  0.59686208  1  0.359617  0  0.009029  0.015281  0  4.001521  0
C  C48  1  0.84861220  0.39225705  0.05057090  1  0.408565  0  0.010694  0.01959  0  3.989193  0
C  C49  1  0.92425667  0.43357933  0.07750483  1  -0.61823  0  -0.093584  -0.344242  0  4.046953  0
C  C50  1  0.93865557  0.39840885  0.15881035  1  0.375619  0  0.010033  0.017245  0  3.993952  0
C  C51  1  0.61362405  0.03169882  0.12649357  1  0.378193  0  0.011108  0.019678  0  3.992174  0
C  C52  1  0.56917479  0.05919213  0.05333012  1  -0.617026  0  -0.094298  -0.346056  0  4.048508  0
C  C53  1  0.60316056  0.14141259  0.03831163  1  0.401683  0  0.008233  0.015747  0  4.000611  0
C  C54  1  0.93481870  0.15217473  0.40187895  1  0.361038  0  0.008039  0.013589  0  4.001695  0
C  C55  1  0.92711000  0.06653837  0.42918124  1  -0.599125  0  -0.093499  -0.344421  0  4.046591  0
C  C56  1  0.85978419  0.03452855  0.37845352  1  0.367553  0  0.011261  0.020228  0  3.985592  0
C  C57  1  0.15086569  0.59761914  0.06468568  1  0.404526  0  0.009304  0.016009  0  3.994213  0
C  C58  1  0.06942115  0.56381171  0.08464804  1  -0.63855  0  -0.093316  -0.34331  0  4.043764  0
C  C59  1  0.04888178  0.60402982  0.16231644  1  0.3389  0  0.011036  0.018668  0  3.988139  0
C  C60  1  0.38906764  0.95499832  0.13461262  1  0.391812  0  0.011526  0.018776  0  3.990858  0
C  C61  1  0.42680915  0.92884467  0.05732813  1  -0.618148  0  -0.093986  -0.345336  0  4.048222  0
C  C62  1  0.39145358  0.84692264  0.04401674  1  0.401145  0  0.009012  0.01659  0  3.997098  0
C  C63  1  0.05745838  0.85374537  0.40498722  1  0.366057  0  0.00968  0.016615  0  3.995769  0
C  C64  1  0.07329372  0.93767621  0.43399659  1  -0.602544  0  -0.094151  -0.346828  0  4.046667  0
C  C65  1  0.14697808  0.96206628  0.38785373  1  0.386867  0  0.010874  0.020345  0  3.987862  0
C  C66  1  0.14601884  0.39438307  0.95905432  1  0.410486  0  0.008626  0.017318  0  3.995762  0
C  C67  1  0.06566698  0.43265354  0.94297826  1  -0.689332  0  -0.094403  -0.346535  0  4.049833  0
C  C68  1  0.04113380  0.39638946  0.86464130  1  0.422989  0  0.011117  0.019484  0  3.99205  0
C  C69  1  0.39371287  0.05377320  0.83908850  1  0.398504  0  0.010126  0.018337  0  3.990862  0
C  C70  1  0.42967339  0.06860940  0.91992862  1  -0.601244  0  -0.093373  -0.344275  0  4.044912  0
C  C71  1  0.39237284  0.14710961  0.94464200  1  0.354336  0  0.009945  0.017345  0  3.992091  0
C  C72  1  0.03826165  0.15319859  0.61108370  1  0.377452  0  0.011214  0.020425  0  3.98568  0
C  C73  1  0.06563040  0.08056155  0.56503231  1  -0.638714  0  -0.093821  -0.345014  0  4.041605  0
C  C74  1  0.15005144  0.06750920  0.59449971  1  0.40183  0  0.008749  0.014847  0  3.998957  0
N  N75  1  0.90316023  0.67578487  0.84570053  1  -0.770627  0  -0.337989  -0.140047  0  3.74831  0
N  N76  1  0.83022155  0.66244828  0.89366151  1  -0.784679  0  -0.33985  -0.144004  0  3.743967  0
N  N77  1  0.65187873  0.81755257  0.87623185  1  -0.747056  0  -0.339479  -0.142681  0  3.740892  0
N  N78  1  0.65372252  0.88009416  0.81428201  1  -0.780746  0  -0.339558  -0.143624  0  3.744578  0
N  N79  1  0.83146273  0.88676638  0.65897421  1  -0.785  0  -0.339838  -0.143004  0  3.740226  0
N  N80  1  0.90431189  0.83926716  0.67544972  1  -0.770082  0  -0.338231  -0.140988  0  3.746252  0
N  N81  1  0.87662457  0.34108507  0.17852116  1  -0.781903  0  -0.339557  -0.142526  0  3.741029  0
N  N82  1  0.82049424  0.33718411  0.11094496  1  -0.77139  0  -0.338711  -0.143243  0  3.744052  0
N  N83  1  0.66267108  0.16116802  0.09773316  1  -0.778992  0  -0.339242  -0.142952  0  3.744332  0
N  N84  1  0.66925048  0.09261256  0.15270843  1  -0.777189  0  -0.337794  -0.140645  0  3.74419  0
N  N85  1  0.83007407  0.09615672  0.32554669  1  -0.764725  0  -0.337246  -0.141115  0  3.745249  0
N  N86  1  0.87688308  0.16957533  0.34013124  1  -0.77679  0  -0.340149  -0.143082  0  3.741193  0
N  N87  1  0.11290650  0.65725899  0.18636816  1  -0.774693  0  -0.337464  -0.14089  0  3.740839  0
N  N88  1  0.17646347  0.65339296  0.12537966  1  -0.747645  0  -0.340238  -0.144953  0  3.740119  0
N  N89  1  0.33734046  0.82616250  0.10818411  1  -0.780005  0  -0.339059  -0.143795  0  3.746177  0
N  N90  1  0.33567165  0.89370298  0.16458200  1  -0.79503  0  -0.338707  -0.141287  0  3.743034  0
N  N91  1  0.17270555  0.89791878  0.33585205  1  -0.77376  0  -0.337948  -0.142111  0  3.743464  0
N  N92  1  0.11674358  0.83037326  0.34639470  1  -0.771288  0  -0.339313  -0.143807  0  3.741182  0
N  N93  1  0.10184056  0.34108326  0.83661320  1  -0.78586  0  -0.337839  -0.141748  0  3.742919  0
N  N94  1  0.16741945  0.34003193  0.89542633  1  -0.778151  0  -0.339074  -0.143205  0  3.745844  0
N  N95  1  0.33870788  0.17636011  0.88353661  1  -0.763649  0  -0.338467  -0.1418  0  3.74223  0
N  N96  1  0.33965670  0.11822869  0.81762378  1  -0.770635  0  -0.339321  -0.143829  0  3.742781  0
N  N97  1  0.17102722  0.12728828  0.65315952  1  -0.789979  0  -0.340123  -0.143923  0  3.740244  0
N  N98  1  0.10128276  0.18082422  0.66343948  1  -0.776893  0  -0.336764  -0.140723  0  3.741229  0
