# generated using pymatgen
data_Ag2H9C11(NO2)2
_symmetry_space_group_name_H-M   'P 1'
_cell_length_a   6.37542153
_cell_length_b   9.16946473
_cell_length_c   10.63808476
_cell_angle_alpha   64.32347332
_cell_angle_beta   81.31861699
_cell_angle_gamma   82.81266788
_symmetry_Int_Tables_number   1
_chemical_formula_structural   Ag2H9C11(NO2)2
_chemical_formula_sum   'Ag4 H18 C22 N4 O8'
_cell_volume   552.81743800
_cell_formula_units_Z   2
loop_
 _symmetry_equiv_pos_site_id
 _symmetry_equiv_pos_as_xyz
  1  'x, y, z'
loop_
 _atom_site_type_symbol
 _atom_site_label
 _atom_site_symmetry_multiplicity
 _atom_site_fract_x
 _atom_site_fract_y
 _atom_site_fract_z
 _atom_site_occupancy
 _atom_site_hle17_bader_spin_density
 _atom_site_hle17_ddec_charge
 _atom_site_hle17_ddec_spin_density
 _atom_site_hle17_ddec_sum_bond_order
 _atom_site_hle17_magmom
 _atom_site_hse06_10hf_bader_spin_density
 _atom_site_hse06_10hf_ddec_charge
 _atom_site_hse06_10hf_ddec_spin_density
 _atom_site_hse06_10hf_ddec_sum_bond_order
 _atom_site_hse06_10hf_magmom
 _atom_site_hse06_bader_spin_density
 _atom_site_hse06_ddec_charge
 _atom_site_hse06_ddec_spin_density
 _atom_site_hse06_ddec_sum_bond_order
 _atom_site_hse06_magmom
 _atom_site_pbe_bader_spin_density
 _atom_site_pbe_cm5_charge
 _atom_site_pbe_ddec_charge
 _atom_site_pbe_ddec_spin_density
 _atom_site_pbe_ddec_sum_bond_order
 _atom_site_pbe_magmom
Ag  Ag0  1  0.28058312  0.01473851  0.13057046  1  0  0.632607  0  1.410629  0  0  0.512866  0  1.865086  0  0  0.539137  0  1.813608  0  0  0.465983  0.493966  0  1.901559  0
Ag  Ag1  1  0.71941624  0.98526442  0.86942846  1  0  0.632597  0  1.410644  0  0  0.512859  0  1.865104  0  0  0.539128  0  1.813627  0  0  0.465978  0.493958  0  1.901579  0
Ag  Ag2  1  0.84947962  0.85837050  0.24087102  1  0  0.59274  0  1.396909  0  0  0.471337  0  1.837616  0  0  0.503032  0  1.782323  0  0  0.45803  0.448445  0  1.877439  0
Ag  Ag3  1  0.15051512  0.14163116  0.75912974  1  0  0.59275  0  1.396923  0  0  0.471329  0  1.837664  0  0  0.503031  0  1.78237  0  0  0.458025  0.448444  0  1.877485  0
H  H4  1  0.81979795  0.59636849  0.47651798  1  0  0.12081  0  0.985319  0  0  0.138119  0  1.054166  0  0  0.140778  0  1.051902  0  0  0.092232  0.136057  0  1.055971  0
H  H5  1  0.18020512  0.40362964  0.52348335  1  0  0.120794  0  0.985338  0  0  0.138081  0  1.05419  0  0  0.140738  0  1.051928  0  0  0.092213  0.136018  0  1.055998  0
H  H6  1  0.65756803  0.53371973  0.63997266  1  0  0.144545  0  0.94647  0  0  0.164717  0  1.003481  0  0  0.165741  0  1.004938  0  0  0.102233  0.163576  0  1.002217  0
H  H7  1  0.34243703  0.46627477  0.36002890  1  0  0.144553  0  0.946514  0  0  0.164705  0  1.003533  0  0  0.165729  0  1.004991  0  0  0.102215  0.163565  0  1.002267  0
H  H8  1  0.93556503  0.53027380  0.63812573  1  0  0.143666  0  0.9395  0  0  0.162348  0  1.000257  0  0  0.163902  0  1.000363  0  0  0.101925  0.161409  0  1.000519  0
H  H9  1  0.06443949  0.46972556  0.36187407  1  0  0.143689  0  0.939476  0  0  0.162359  0  1.000224  0  0  0.163911  0  1.00033  0  0  0.101943  0.16142  0  1.000485  0
H  H10  1  0.74002920  0.69943416  0.78994984  1  0  0.09479  0  0.94776  0  0  0.10278  0  1.013494  0  0  0.103705  0  1.014775  0  0  0.118576  0.102146  0  1.012674  0
H  H11  1  0.25996595  0.30056385  0.21005131  1  0  0.09482  0  0.947715  0  0  0.102789  0  1.013465  0  0  0.103713  0  1.014749  0  0  0.118593  0.102156  0  1.012644  0
H  H12  1  0.54062750  0.25880599  0.60078475  1  0  0.128107  0  0.963016  0  0  0.143656  0  1.03594  0  0  0.146278  0  1.033533  0  0  0.095071  0.141933  0  1.037912  0
H  H13  1  0.45937675  0.74119580  0.39921510  1  0  0.128104  0  0.963004  0  0  0.143642  0  1.035942  0  0  0.146263  0  1.03354  0  0  0.095072  0.141914  0  1.037926  0
H  H14  1  0.70211468  0.33808490  0.43625447  1  0  0.147814  0  0.966591  0  0  0.16627  0  1.021711  0  0  0.169152  0  1.020851  0  0  0.097914  0.164059  0  1.022289  0
H  H15  1  0.29789143  0.66191448  0.56374330  1  0  0.147806  0  0.966603  0  0  0.166267  0  1.021722  0  0  0.169144  0  1.02087  0  0  0.097908  0.164056  0  1.022299  0
H  H16  1  0.81599071  0.25945214  0.59892980  1  0  0.119317  0  0.967859  0  0  0.137161  0  1.04136  0  0  0.13933  0  1.039068  0  0  0.092346  0.13551  0  1.042449  0
H  H17  1  0.18401249  0.74054477  0.40107009  1  0  0.119327  0  0.967846  0  0  0.137161  0  1.041372  0  0  0.13933  0  1.039075  0  0  0.092348  0.135511  0  1.042459  0
H  H18  1  0.16829082  0.57501908  0.88689697  1  0  0.107406  0  0.946498  0  0  0.11778  0  1.007005  0  0  0.121278  0  1.005541  0  0  0.104455  0.114924  0  1.008784  0
H  H19  1  0.83170840  0.42498506  0.11309869  1  0  0.107427  0  0.946539  0  0  0.11781  0  1.007029  0  0  0.121311  0  1.005558  0  0  0.104439  0.114939  0  1.008822  0
H  H20  1  0.76612920  0.14407269  0.32482445  1  0  0.107811  0  0.939948  0  0  0.116122  0  1.004455  0  0  0.118476  0  1.003445  0  0  0.119926  0.114209  0  1.005411  0
H  H21  1  0.23386912  0.85592537  0.67517733  1  0  0.107796  0  0.939938  0  0  0.116122  0  1.004428  0  0  0.11847  0  1.003428  0  0  0.119929  0.1142  0  1.005397  0
C  C22  1  0.79976428  0.59792351  0.58018720  1  0  -0.390231  0  3.670708  0  0  -0.467736  0  3.897685  0  0  -0.472561  0  3.907904  0  0  -0.242217  -0.463804  0  3.890458  0
C  C23  1  0.20023879  0.40207462  0.41981319  1  0  -0.390229  0  3.670739  0  0  -0.46766  0  3.897695  0  0  -0.472482  0  3.907914  0  0  -0.242187  -0.463729  0  3.890467  0
C  C24  1  0.62189174  0.66821769  0.15400857  1  0  0.656847  0  3.890638  0  0  0.604781  0  4.175977  0  0  0.63856  0  4.170532  0  0  0.20167  0.580602  0  4.17993  0
C  C25  1  0.37810947  0.33178283  0.84598921  1  0  0.656843  0  3.890654  0  0  0.604764  0  4.176033  0  0  0.638544  0  4.170587  0  0  0.201708  0.580585  0  4.17999  0
C  C26  1  0.74436109  0.79932760  0.68541137  1  0  0.040412  0  3.637502  0  0  0.0069  0  3.888885  0  0  0.009959  0  3.906273  0  0  0.054213  0.004442  0  3.877161  0
C  C27  1  0.25563551  0.20067165  0.31458919  1  0  0.040455  0  3.637507  0  0  0.006961  0  3.888912  0  0  0.010019  0  3.906305  0  0  0.054218  0.004502  0  3.877186  0
C  C28  1  0.69436660  0.24293282  0.54370831  1  0  -0.385321  0  3.676427  0  0  -0.465513  0  3.908628  0  0  -0.469828  0  3.916808  0  0  -0.248504  -0.461402  0  3.902205  0
C  C29  1  0.30563634  0.75706652  0.45629163  1  0  -0.385277  0  3.676456  0  0  -0.465471  0  3.908653  0  0  -0.469785  0  3.91684  0  0  -0.248493  -0.46136  0  3.902217  0
C  C30  1  0.19365862  0.75697952  0.01942087  1  0  0.664927  0  3.898888  0  0  0.610598  0  4.192367  0  0  0.645931  0  4.184494  0  0  0.200159  0.587002  0  4.196077  0
C  C31  1  0.80634060  0.24302462  0.98057761  1  0  0.664939  0  3.898966  0  0  0.610602  0  4.192464  0  0  0.645935  0  4.184593  0  0  0.20015  0.58701  0  4.196172  0
C  C32  1  0.31541421  0.54209495  0.93632673  1  0  -0.10318  0  3.726981  0  0  -0.132454  0  3.975386  0  0  -0.133422  0  3.994089  0  0  -0.08597  -0.13093  0  3.962802  0
C  C33  1  0.68458225  0.45790551  0.06367245  1  0  -0.103208  0  3.727127  0  0  -0.132499  0  3.975504  0  0  -0.133467  0  3.994207  0  0  -0.085883  -0.130959  0  3.962922  0
C  C34  1  0.35881445  0.62765995  0.01006834  1  0  -0.063114  0  3.715849  0  0  -0.048089  0  3.953968  0  0  -0.052009  0  3.972679  0  0  -0.013209  -0.045434  0  3.939857  0
C  C35  1  0.64118042  0.37234049  0.98993380  1  0  -0.063181  0  3.715953  0  0  -0.048131  0  3.954063  0  0  -0.05205  0  3.972774  0  0  -0.013286  -0.045488  0  3.939967  0
C  C36  1  0.54861089  0.58526980  0.07461267  1  0  -0.064914  0  3.724755  0  0  -0.052442  0  3.966586  0  0  -0.055046  0  3.984235  0  0  -0.012816  -0.051924  0  3.955456  0
C  C37  1  0.45138109  0.41472817  0.92539066  1  0  -0.064908  0  3.724621  0  0  -0.05245  0  3.96648  0  0  -0.055054  0  3.984129  0  0  -0.012744  -0.05193  0  3.955361  0
C  C38  1  0.75770926  0.04582345  0.43028553  1  0  0.019898  0  3.642798  0  0  -0.019282  0  3.902167  0  0  -0.017191  0  3.921703  0  0  0.040823  -0.020946  0  3.890021  0
C  C39  1  0.24228892  0.95417582  0.56971582  1  0  0.019927  0  3.642842  0  0  -0.019286  0  3.902211  0  0  -0.017188  0  3.921742  0  0  0.040789  -0.020945  0  3.89007  0
C  C40  1  0.72375478  0.07683789  0.54953746  1  0  0.255123  0  3.746348  0  0  0.257866  0  4.000986  0  0  0.262287  0  4.023017  0  0  0.114832  0.254262  0  3.986829  0
C  C41  1  0.27624499  0.92316141  0.45046467  1  0  0.25507  0  3.746299  0  0  0.257822  0  4.000941  0  0  0.262255  0  4.022935  0  0  0.114813  0.254219  0  3.986778  0
C  C42  1  0.77606535  0.76766448  0.56620237  1  0  0.268251  0  3.70745  0  0  0.275692  0  3.948462  0  0  0.280697  0  3.969871  0  0  0.125838  0.27205  0  3.934368  0
C  C43  1  0.22393455  0.23233360  0.43379832  1  0  0.268205  0  3.707593  0  0  0.275612  0  3.948599  0  0  0.280615  0  3.970009  0  0  0.125793  0.27197  0  3.934505  0
N  N44  1  0.71986265  0.94988057  0.67770642  1  0  -0.317085  0  3.316679  0  0  -0.25115  0  3.611745  0  0  -0.264192  0  3.623869  0  0  -0.329414  -0.242238  0  3.603351  0
N  N45  1  0.28013712  0.05011872  0.32229383  1  0  -0.317109  0  3.316586  0  0  -0.251173  0  3.611647  0  0  -0.264219  0  3.623769  0  0  -0.329421  -0.242261  0  3.603249  0
N  N46  1  0.78481199  0.89410737  0.43796862  1  0  -0.317142  0  3.289946  0  0  -0.242997  0  3.563265  0  0  -0.258192  0  3.579222  0  0  -0.32386  -0.233135  0  3.553244  0
N  N47  1  0.21518619  0.10589190  0.56203272  1  0  -0.317179  0  3.290041  0  0  -0.24299  0  3.56334  0  0  -0.258184  0  3.579298  0  0  -0.323818  -0.233129  0  3.553319  0
O  O48  1  0.16301576  0.76873691  0.13649646  1  0  -0.65136  0  2.123409  0  0  -0.570657  0  2.400548  0  0  -0.601295  0  2.387031  0  0  -0.337264  -0.549106  0  2.409178  0
O  O49  1  0.83697912  0.23126354  0.86350474  1  0  -0.651344  0  2.123515  0  0  -0.570669  0  2.400694  0  0  -0.601308  0  2.387179  0  0  -0.337277  -0.549113  0  2.409311  0
O  O50  1  0.09715522  0.83854474  0.91185996  1  0  -0.660559  0  2.050774  0  0  -0.599626  0  2.332616  0  0  -0.626163  0  2.316423  0  0  -0.333203  -0.580447  0  2.342584  0
O  O51  1  0.90284704  0.16146065  0.08813589  1  0  -0.660532  0  2.050747  0  0  -0.599583  0  2.332575  0  0  -0.626121  0  2.316386  0  0  -0.33316  -0.580403  0  2.342536  0
O  O52  1  0.69498799  0.58034226  0.26846891  1  0  -0.611333  0  1.953399  0  0  -0.54807  0  2.177961  0  0  -0.575189  0  2.170926  0  0  -0.310506  -0.528597  0  2.182737  0
O  O53  1  0.30501970  0.41965714  0.73153057  1  0  -0.61134  0  1.953459  0  0  -0.548055  0  2.178007  0  0  -0.575173  0  2.17097  0  0  -0.310532  -0.528585  0  2.182786  0
O  O54  1  0.61804729  0.82493772  0.09887843  1  0  -0.68083  0  2.21846  0  0  -0.590956  0  2.52182  0  0  -0.623137  0  2.504268  0  0  -0.349299  -0.566604  0  2.533955  0
O  O55  1  0.38195537  0.17506405  0.90112063  1  0  -0.680796  0  2.21851  0  0  -0.59094  0  2.521903  0  0  -0.623123  0  2.504353  0  0  -0.349296  -0.566592  0  2.534045  0
