# generated using pymatgen
data_ErH10C9N2ClO11
_symmetry_space_group_name_H-M   'P 1'
_cell_length_a   7.17200371
_cell_length_b   9.22393715
_cell_length_c   11.80083587
_cell_angle_alpha   100.18141042
_cell_angle_beta   98.26080640
_cell_angle_gamma   96.57210516
_symmetry_Int_Tables_number   1
_chemical_formula_structural   ErH10C9N2ClO11
_chemical_formula_sum   'Er2 H20 C18 N4 Cl2 O22'
_cell_volume   752.52945767
_cell_formula_units_Z   2
loop_
 _symmetry_equiv_pos_site_id
 _symmetry_equiv_pos_as_xyz
  1  'x, y, z'
loop_
 _atom_site_type_symbol
 _atom_site_label
 _atom_site_symmetry_multiplicity
 _atom_site_fract_x
 _atom_site_fract_y
 _atom_site_fract_z
 _atom_site_occupancy
 _atom_site_hle17_bader_spin_density
 _atom_site_hle17_ddec_charge
 _atom_site_hle17_ddec_spin_density
 _atom_site_hle17_ddec_sum_bond_order
 _atom_site_hle17_magmom
 _atom_site_hse06_10hf_bader_spin_density
 _atom_site_hse06_10hf_ddec_charge
 _atom_site_hse06_10hf_ddec_spin_density
 _atom_site_hse06_10hf_ddec_sum_bond_order
 _atom_site_hse06_10hf_magmom
 _atom_site_hse06_bader_spin_density
 _atom_site_hse06_ddec_charge
 _atom_site_hse06_ddec_spin_density
 _atom_site_hse06_ddec_sum_bond_order
 _atom_site_hse06_magmom
 _atom_site_pbe_bader_spin_density
 _atom_site_pbe_cm5_charge
 _atom_site_pbe_ddec_charge
 _atom_site_pbe_ddec_spin_density
 _atom_site_pbe_ddec_sum_bond_order
 _atom_site_pbe_magmom
Er  Er0  1  0.68077412  0.21774256  0.99202794  1  0  2.27895  0  1.529075  0  0  2.140815  0  1.988332  0  0  2.269402  0  1.794364  0  0  1.477751  2.108147  0  2.015094  0
Er  Er1  1  0.31922822  0.78226465  0.00797475  1  0  2.278944  0  1.529054  0  0  2.140761  0  1.988406  0  0  2.269385  0  1.79434  0  0  1.477736  2.108115  0  2.015142  0
H  H2  1  0.89555174  0.52458572  0.07733604  1  0  0.447752  0  0.825141  0  0  0.424661  0  0.881369  0  0  0.435568  0  0.865417  0  0  0.315876  0.417166  0  0.892451  0
H  H3  1  0.10445707  0.47541822  0.92266334  1  0  0.447675  0  0.825281  0  0  0.424579  0  0.881499  0  0  0.435484  0  0.86555  0  0  0.315825  0.417085  0  0.892578  0
H  H4  1  0.68392989  0.52864552  0.09682998  1  0  0.443558  0  0.856336  0  0  0.412107  0  0.9206  0  0  0.423968  0  0.903702  0  0  0.297472  0.403876  0  0.932463  0
H  H5  1  0.31607736  0.47135728  0.90317504  1  0  0.443537  0  0.856369  0  0  0.412094  0  0.920622  0  0  0.423954  0  0.903721  0  0  0.297466  0.403869  0  0.932477  0
H  H6  1  0.10308847  0.32191111  0.04333883  1  0  0.439518  0  0.867247  0  0  0.404986  0  0.935276  0  0  0.418191  0  0.916504  0  0  0.296845  0.395707  0  0.948582  0
H  H7  1  0.89691132  0.67808942  0.95666101  1  0  0.439598  0  0.86715  0  0  0.405077  0  0.935158  0  0  0.418286  0  0.916378  0  0  0.296884  0.395798  0  0.948467  0
H  H8  1  0.04540397  0.21760980  0.91457098  1  0  0.440767  0  0.848709  0  0  0.414018  0  0.90397  0  0  0.423859  0  0.889751  0  0  0.310139  0.407084  0  0.914144  0
H  H9  1  0.95459345  0.78238515  0.08542618  1  0  0.440759  0  0.848711  0  0  0.414034  0  0.903936  0  0  0.423871  0  0.889723  0  0  0.310154  0.4071  0  0.914111  0
H  H10  1  0.69487452  0.90166308  0.89759122  1  0  0.449544  0  0.848096  0  0  0.418316  0  0.911363  0  0  0.429773  0  0.894816  0  0  0.301032  0.410278  0  0.923125  0
H  H11  1  0.30512288  0.09833963  0.10241635  1  0  0.449583  0  0.848044  0  0  0.418367  0  0.91129  0  0  0.429816  0  0.894757  0  0  0.301056  0.410328  0  0.923052  0
H  H12  1  0.84985982  0.99235739  0.84235876  1  0  0.452708  0  0.80947  0  0  0.42917  0  0.867564  0  0  0.438861  0  0.853464  0  0  0.321559  0.422573  0  0.87732  0
H  H13  1  0.15013593  0.00764421  0.15764258  1  0  0.452707  0  0.809446  0  0  0.429186  0  0.867542  0  0  0.438875  0  0.853442  0  0  0.321535  0.422591  0  0.877295  0
H  H14  1  0.84845216  0.35556608  0.58624323  1  0  0.320618  0  0.83445  0  0  0.315983  0  0.870001  0  0  0.3221  0  0.866894  0  0  0.347326  0.311472  0  0.872534  0
H  H15  1  0.15155552  0.64443118  0.41375597  1  0  0.320598  0  0.834484  0  0  0.315863  0  0.870118  0  0  0.32199  0  0.866996  0  0  0.34732  0.311356  0  0.872647  0
H  H16  1  0.66195626  0.82968327  0.41027286  1  0  0.129415  0  0.931783  0  0  0.138968  0  0.989482  0  0  0.142843  0  0.986534  0  0  0.110014  0.136198  0  0.991647  0
H  H17  1  0.33803735  0.17031386  0.58973022  1  0  0.129364  0  0.931809  0  0  0.138914  0  0.989523  0  0  0.142757  0  0.986621  0  0  0.109978  0.136139  0  0.991689  0
H  H18  1  0.00417336  0.59939570  0.71788391  1  0  0.091279  0  0.948846  0  0  0.098968  0  1.014368  0  0  0.101565  0  1.010632  0  0  0.131876  0.09708  0  1.016988  0
H  H19  1  0.99583506  0.40060601  0.28211428  1  0  0.091334  0  0.948774  0  0  0.099027  0  1.014298  0  0  0.101622  0  1.010569  0  0  0.131925  0.097132  0  1.016924  0
H  H20  1  0.60464913  0.26995168  0.35765070  1  0  0.129277  0  0.960409  0  0  0.138402  0  1.019587  0  0  0.142148  0  1.016887  0  0  0.109733  0.135775  0  1.02139  0
H  H21  1  0.39535428  0.73004555  0.64234475  1  0  0.129183  0  0.96047  0  0  0.138358  0  1.019612  0  0  0.142098  0  1.01692  0  0  0.109712  0.135726  0  1.02142  0
C  C22  1  0.40675164  0.36404670  0.17750617  1  0  0.713929  0  3.811314  0  0  0.663989  0  4.10154  0  0  0.699373  0  4.09256  0  0  0.235806  0.639914  0  4.1088  0
C  C23  1  0.59324761  0.63595048  0.82249739  1  0  0.714034  0  3.811257  0  0  0.663992  0  4.101615  0  0  0.699351  0  4.09267  0  0  0.235811  0.639923  0  4.10887  0
C  C24  1  0.53036135  0.45809072  0.28369110  1  0  -0.088941  0  3.754007  0  0  -0.07931  0  3.999432  0  0  -0.085653  0  4.02124  0  0  -0.020492  -0.074831  0  3.984193  0
C  C25  1  0.46964161  0.54191206  0.71630678  1  0  -0.08892  0  3.754052  0  0  -0.079155  0  3.999358  0  0  -0.085485  0  4.021175  0  0  -0.020449  -0.074673  0  3.98411  0
C  C26  1  0.54404028  0.61565809  0.30018282  1  0  -0.078165  0  3.768568  0  0  -0.07204  0  4.019983  0  0  -0.076902  0  4.040501  0  0  -0.02482  -0.068169  0  4.0053  0
C  C27  1  0.45595406  0.38434350  0.69981840  1  0  -0.078265  0  3.768721  0  0  -0.072158  0  4.020077  0  0  -0.077032  0  4.040596  0  0  -0.024827  -0.068287  0  4.005392  0
C  C28  1  0.46367927  0.67997527  0.20045439  1  0  0.663869  0  3.907723  0  0  0.61266  0  4.211807  0  0  0.645762  0  4.211885  0  0  0.195957  0.588779  0  4.218443  0
C  C29  1  0.53631447  0.32003075  0.79955334  1  0  0.664023  0  3.907751  0  0  0.61286  0  4.211755  0  0  0.64597  0  4.211817  0  0  0.196183  0.588968  0  4.218391  0
C  C30  1  0.64839085  0.70908666  0.40062456  1  0  -0.12948  0  3.678066  0  0  -0.158782  0  3.92615  0  0  -0.159053  0  3.942389  0  0  -0.081602  -0.158502  0  3.915054  0
C  C31  1  0.35161155  0.29091278  0.59937450  1  0  -0.129348  0  3.67809  0  0  -0.158629  0  3.926189  0  0  -0.158872  0  3.942449  0  0  -0.081563  -0.158353  0  3.915087  0
C  C32  1  0.74195204  0.64237586  0.48593358  1  0  0.133297  0  3.855383  0  0  0.136595  0  4.110634  0  0  0.13972  0  4.132936  0  0  0.081479  0.13446  0  4.095674  0
C  C33  1  0.25805494  0.35762585  0.51406110  1  0  0.133334  0  3.855387  0  0  0.136595  0  4.110745  0  0  0.139718  0  4.133033  0  0  0.081504  0.134472  0  4.095769  0
C  C34  1  0.90970078  0.59198549  0.63609681  1  0  0.27135  0  3.687374  0  0  0.20902  0  3.988723  0  0  0.225661  0  3.996937  0  0  0.152106  0.198261  0  3.982273  0
C  C35  1  0.09031147  0.40801404  0.36389886  1  0  0.271283  0  3.687418  0  0  0.208908  0  3.988734  0  0  0.22555  0  3.996953  0  0  0.151988  0.198161  0  3.982277  0
C  C36  1  0.72284425  0.48429479  0.46920345  1  0  0.153068  0  3.812525  0  0  0.142033  0  4.06587  0  0  0.145741  0  4.089123  0  0  0.09489  0.139384  0  4.050342  0
C  C37  1  0.27716639  0.51570362  0.53079107  1  0  0.153129  0  3.812579  0  0  0.141965  0  4.066097  0  0  0.145678  0  4.089344  0  0  0.094955  0.139312  0  4.050572  0
C  C38  1  0.61893435  0.39042912  0.36926819  1  0  -0.140085  0  3.710653  0  0  -0.172439  0  3.97085  0  0  -0.173481  0  3.988672  0  0  -0.084103  -0.171553  0  3.95871  0
C  C39  1  0.38106889  0.60956700  0.63072878  1  0  -0.140069  0  3.710693  0  0  -0.172498  0  3.970977  0  0  -0.17354  0  3.988794  0  0  -0.084204  -0.17161  0  3.958839  0
N  N40  1  0.83020517  0.45682802  0.56768324  1  0  -0.346503  0  3.389943  0  0  -0.288354  0  3.627381  0  0  -0.306147  0  3.640778  0  0  -0.378658  -0.276169  0  3.618159  0
N  N41  1  0.16980670  0.54316929  0.43231124  1  0  -0.346568  0  3.390103  0  0  -0.288195  0  3.627488  0  0  -0.306001  0  3.64088  0  0  -0.378695  -0.27602  0  3.61827  0
N  N42  1  0.86029709  0.70621528  0.59094279  1  0  -0.420383  0  2.92322  0  0  -0.403141  0  3.20404  0  0  -0.416134  0  3.214032  0  0  -0.364579  -0.394071  0  3.196927  0
N  N43  1  0.13971616  0.29378204  0.40904841  1  0  -0.420383  0  2.923336  0  0  -0.403129  0  3.20419  0  0  -0.41612  0  3.214176  0  0  -0.364534  -0.394063  0  3.197069  0
Cl  Cl44  1  0.76057719  0.02142401  0.19718825  1  0  1.454166  0  6.080494  0  0  1.373151  0  6.664074  0  0  1.428115  0  6.647336  0  0  0.775386  1.335726  0  6.679919  0
Cl  Cl45  1  0.23941080  0.97857307  0.80281690  1  0  1.45399  0  6.080532  0  0  1.373012  0  6.664079  0  0  1.427933  0  6.647392  0  0  0.775406  1.335566  0  6.679928  0
O  O46  1  0.46936546  0.24979994  0.12218858  1  0  -0.794603  0  2.084884  0  0  -0.732046  0  2.336348  0  0  -0.76955  0  2.320778  0  0  -0.414595  -0.713592  0  2.344442  0
O  O47  1  0.53062814  0.75019719  0.87781281  1  0  -0.794715  0  2.084923  0  0  -0.732128  0  2.336461  0  0  -0.769638  0  2.320893  0  0  -0.414617  -0.713684  0  2.344562  0
O  O48  1  0.24451571  0.39840308  0.14781495  1  0  -0.582076  0  1.994567  0  0  -0.523294  0  2.209467  0  0  -0.547095  0  2.197992  0  0  -0.28295  -0.50637  0  2.216688  0
O  O49  1  0.75548102  0.60159631  0.85217939  1  0  -0.582089  0  1.994537  0  0  -0.523302  0  2.209499  0  0  -0.547092  0  2.198029  0  0  -0.282943  -0.506374  0  2.216712  0
O  O50  1  0.52317441  0.64237364  0.10185960  1  0  -0.737386  0  2.055614  0  0  -0.680697  0  2.296007  0  0  -0.716861  0  2.287223  0  0  -0.387942  -0.661897  0  2.301785  0
O  O51  1  0.47682639  0.35763244  0.89814957  1  0  -0.737375  0  2.055587  0  0  -0.680704  0  2.29594  0  0  -0.716859  0  2.287149  0  0  -0.388021  -0.661904  0  2.301711  0
O  O52  1  0.34366526  0.77065626  0.20731711  1  0  -0.672343  0  1.939485  0  0  -0.630862  0  2.173702  0  0  -0.662834  0  2.162067  0  0  -0.385971  -0.615343  0  2.181138  0
O  O53  1  0.65632751  0.22934419  0.79268636  1  0  -0.672451  0  1.939644  0  0  -0.630999  0  2.173848  0  0  -0.662972  0  2.162202  0  0  -0.386081  -0.615478  0  2.181287  0
O  O54  1  0.85613752  0.15921777  0.17167104  1  0  -0.60579  0  1.932745  0  0  -0.575271  0  2.209603  0  0  -0.601887  0  2.195101  0  0  -0.32609  -0.563555  0  2.219165  0
O  O55  1  0.14384958  0.84077488  0.82831816  1  0  -0.605769  0  1.932992  0  0  -0.575241  0  2.209826  0  0  -0.601861  0  2.195334  0  0  -0.326129  -0.563533  0  2.219395  0
O  O56  1  0.60631305  0.96514814  0.09448846  1  0  -0.702962  0  2.042767  0  0  -0.667113  0  2.333853  0  0  -0.700416  0  2.322662  0  0  -0.360228  -0.6545  0  2.343179  0
O  O57  1  0.39367737  0.03484674  0.90551574  1  0  -0.702864  0  2.042598  0  0  -0.667041  0  2.333661  0  0  -0.700346  0  2.322504  0  0  -0.360221  -0.654424  0  2.342987  0
O  O58  1  0.68301402  0.04773760  0.30267208  1  0  -0.440896  0  1.86864  0  0  -0.406885  0  2.093738  0  0  -0.423811  0  2.081621  0  0  -0.240811  -0.394691  0  2.10122  0
O  O59  1  0.31697182  0.95226392  0.69732503  1  0  -0.440818  0  1.868281  0  0  -0.406882  0  2.093401  0  0  -0.423738  0  2.081258  0  0  -0.240856  -0.394667  0  2.100874  0
O  O60  1  0.89442771  0.91461972  0.20357850  1  0  -0.507956  0  1.862738  0  0  -0.466158  0  2.088376  0  0  -0.482125  0  2.072857  0  0  -0.26742  -0.454476  0  2.098496  0
O  O61  1  0.10556287  0.08537627  0.79642248  1  0  -0.507949  0  1.862954  0  0  -0.466091  0  2.088537  0  0  -0.482059  0  2.073037  0  0  -0.267358  -0.454405  0  2.098656  0
O  O62  1  0.78517808  0.46106143  0.09167263  1  0  -0.909469  0  1.861694  0  0  -0.864007  0  2.064539  0  0  -0.895475  0  2.026339  0  0  -0.646875  -0.849523  0  2.086033  0
O  O63  1  0.21482453  0.53893912  0.90832830  1  0  -0.909364  0  1.861778  0  0  -0.863916  0  2.064633  0  0  -0.895379  0  2.02643  0  0  -0.646814  -0.849427  0  2.086117  0
O  O64  1  0.99595716  0.28926904  0.97068691  1  0  -0.93146  0  1.871478  0  0  -0.874296  0  2.069308  0  0  -0.907211  0  2.030686  0  0  -0.640323  -0.858589  0  2.092167  0
O  O65  1  0.00404084  0.71072924  0.02931247  1  0  -0.931527  0  1.871468  0  0  -0.874369  0  2.069279  0  0  -0.907284  0  2.030643  0  0  -0.640342  -0.858662  0  2.092141  0
O  O66  1  0.78408254  0.99694509  0.90950828  1  0  -0.924555  0  1.892055  0  0  -0.879116  0  2.098607  0  0  -0.908  0  2.059949  0  0  -0.647787  -0.866027  0  2.120854  0
O  O67  1  0.21591589  0.00305541  0.09049822  1  0  -0.924616  0  1.892008  0  0  -0.879188  0  2.098549  0  0  -0.908075  0  2.05989  0  0  -0.647784  -0.8661  0  2.120797  0
