# generated using pymatgen
data_NdH13C9N4O9
_symmetry_space_group_name_H-M   'P 1'
_cell_length_a   7.90984393
_cell_length_b   9.77293995
_cell_length_c   10.40805962
_cell_angle_alpha   117.08610743
_cell_angle_beta   107.20910046
_cell_angle_gamma   95.47606225
_symmetry_Int_Tables_number   1
_chemical_formula_structural   NdH13C9N4O9
_chemical_formula_sum   'Nd2 H26 C18 N8 O18'
_cell_volume   658.72684894
_cell_formula_units_Z   2
loop_
 _symmetry_equiv_pos_site_id
 _symmetry_equiv_pos_as_xyz
  1  'x, y, z'
loop_
 _atom_site_type_symbol
 _atom_site_label
 _atom_site_symmetry_multiplicity
 _atom_site_fract_x
 _atom_site_fract_y
 _atom_site_fract_z
 _atom_site_occupancy
 _atom_site_pbe_bader_spin_density
 _atom_site_pbe_cm5_charge
 _atom_site_pbe_ddec_charge
 _atom_site_pbe_ddec_spin_density
 _atom_site_pbe_ddec_sum_bond_order
 _atom_site_pbe_magmom
Nd  Nd0  1  0.21461183  0.20645135  0.81112382  1  0  1.46953  2.246142  0  1.956693  0
Nd  Nd1  1  0.78538700  0.79354922  0.18887581  1  0  1.469534  2.246152  0  1.956689  0
H  H2  1  0.96342803  0.15750572  0.96748302  1  0  0.303173  0.3945  0  0.93922  0
H  H3  1  0.03657344  0.84249485  0.03251721  1  0  0.303183  0.394492  0  0.939204  0
H  H4  1  0.14926491  0.12481742  0.05326266  1  0  0.296771  0.364308  0  0.988478  0
H  H5  1  0.85073391  0.87518316  0.94673698  1  0  0.296765  0.364303  0  0.988482  0
H  H6  1  0.57795061  0.14136879  0.93991274  1  0  0.305768  0.395976  0  0.94135  0
H  H7  1  0.42204954  0.85863178  0.06008623  1  0  0.305778  0.395985  0  0.941337  0
H  H8  1  0.61528795  0.27493619  0.82704413  1  0  0.297876  0.38831  0  0.953885  0
H  H9  1  0.38471220  0.72506439  0.17295677  1  0  0.297877  0.388292  0  0.953912  0
H  H10  1  0.84562725  0.09041721  0.56342933  1  0  0.306259  0.382985  0  0.95281  0
H  H11  1  0.15437253  0.90958217  0.43657001  1  0  0.306281  0.383005  0  0.952781  0
H  H12  1  0.43763351  0.97091940  0.84422452  1  0  0.318721  0.400694  0  0.919154  0
H  H13  1  0.56236626  0.02907998  0.15577482  1  0  0.31872  0.400691  0  0.919157  0
H  H14  1  0.79252432  0.03729062  0.67384727  1  0  0.292013  0.342962  0  1.023578  0
H  H15  1  0.20747508  0.96270756  0.32615148  1  0  0.291999  0.34294  0  1.023615  0
H  H16  1  0.46333066  0.34903571  0.16006749  1  0  0.286419  0.35072  0  1.012468  0
H  H17  1  0.53666912  0.65096367  0.83993185  1  0  0.286425  0.350724  0  1.012461  0
H  H18  1  0.45114069  0.50098106  0.13677308  1  0  0.297454  0.391959  0  0.943387  0
H  H19  1  0.54885908  0.49901832  0.86322626  1  0  0.297457  0.391981  0  0.94335  0
H  H20  1  0.49578628  0.24830739  0.65525238  1  0  0.293459  0.364022  0  0.985137  0
H  H21  1  0.50421349  0.75169199  0.34474696  1  0  0.293458  0.364014  0  0.985145  0
H  H22  1  0.17355268  0.63417421  0.29626183  1  0  0.115861  0.126183  0  1.024388  0
H  H23  1  0.82644652  0.36582756  0.70373935  1  0  0.115855  0.126183  0  1.024408  0
H  H24  1  0.82335756  0.19950750  0.18771188  1  0  0.111497  0.110882  0  1.01618  0
H  H25  1  0.17664391  0.80049307  0.81228835  1  0  0.111499  0.110877  0  1.016195  0
H  H26  1  0.30499344  0.45114074  0.61058350  1  0  0.114911  0.115977  0  1.019255  0
H  H27  1  0.69500633  0.54885865  0.38941681  1  0  0.114912  0.115987  0  1.019237  0
C  C28  1  0.42975932  0.68734026  0.56850152  1  0  0.215341  0.23447  0  4.064265  0
C  C29  1  0.57023913  0.31265912  0.43149848  1  0  0.215324  0.23449  0  4.064293  0
C  C30  1  0.26315984  0.55584082  0.46362017  1  0  -0.004716  0.022999  0  4.01892  0
C  C31  1  0.73683765  0.44415976  0.53638109  1  0  -0.0047  0.023014  0  4.018895  0
C  C32  1  0.14552374  0.54357277  0.32634698  1  0  -0.065283  -0.101668  0  3.870693  0
C  C33  1  0.85447545  0.45642901  0.67365420  1  0  -0.065263  -0.101632  0  3.870658  0
C  C34  1  0.98728124  0.41589179  0.22816848  1  0  -0.013998  -0.052537  0  3.998658  0
C  C35  1  0.01271890  0.58410879  0.77183241  1  0  -0.014038  -0.052602  0  3.998649  0
C  C36  1  0.94535308  0.29992704  0.26560497  1  0  -0.070618  -0.097976  0  3.925403  0
C  C37  1  0.05464802  0.70007233  0.73439371  1  0  -0.070621  -0.097994  0  3.925449  0
C  C38  1  0.05892344  0.31470170  0.40517451  1  0  -0.015006  -0.046666  0  3.979858  0
C  C39  1  0.94107840  0.68530006  0.59482631  1  0  -0.014968  -0.04659  0  3.97978  0
C  C40  1  0.21719203  0.44215702  0.50306852  1  0  -0.068925  -0.100618  0  3.898829  0
C  C41  1  0.78280811  0.55784355  0.49693141  1  0  -0.068927  -0.100661  0  3.898796  0
C  C42  1  0.01625813  0.19732176  0.45359558  1  0  0.237536  0.645198  0  4.169201  0
C  C43  1  0.98374466  0.80267881  0.54640591  1  0  0.237464  0.645054  0  4.169319  0
C  C44  1  0.86005294  0.40556514  0.08383410  1  0  0.240903  0.634948  0  4.142362  0
C  C45  1  0.13994589  0.59443544  0.91616553  1  0  0.240897  0.634888  0  4.142351  0
N  N46  1  0.52696749  0.72592277  0.71669589  1  0  -0.209803  -0.274436  0  3.307047  0
N  N47  1  0.47303265  0.27407781  0.28330500  1  0  -0.209819  -0.274463  0  3.307031  0
N  N48  1  0.66967050  0.85081498  0.77274792  1  0  -0.088989  -0.083882  0  3.323826  0
N  N49  1  0.33033060  0.14918440  0.22725269  1  0  -0.088972  -0.083906  0  3.323869  0
N  N50  1  0.65824552  0.88715376  0.66333960  1  0  -0.077197  -0.039045  0  3.357119  0
N  N51  1  0.34175293  0.11284563  0.33666040  1  0  -0.077199  -0.039009  0  3.357138  0
N  N52  1  0.51010678  0.78710690  0.53367230  1  0  -0.201469  -0.254474  0  3.231941  0
N  N53  1  0.48989166  0.21289249  0.46632770  1  0  -0.201444  -0.25447  0  3.231959  0
O  O54  1  0.13414976  0.21708378  0.57799947  1  0  -0.409566  -0.684045  0  2.376219  0
O  O55  1  0.86585171  0.78291679  0.42199980  1  0  -0.409551  -0.683997  0  2.376175  0
O  O56  1  0.86593062  0.08534064  0.37082276  1  0  -0.389166  -0.696976  0  2.281394  0
O  O57  1  0.13407047  0.91465874  0.62917688  1  0  -0.389133  -0.69689  0  2.281431  0
O  O58  1  0.84057899  0.53309716  0.08497359  1  0  -0.396797  -0.663772  0  2.27074  0
O  O59  1  0.15941946  0.46690222  0.91502545  1  0  -0.396801  -0.663765  0  2.270761  0
O  O60  1  0.44471006  0.38585034  0.08211437  1  0  -0.651241  -0.859107  0  2.122662  0
O  O61  1  0.55528971  0.61414904  0.91788497  1  0  -0.651252  -0.859134  0  2.122648  0
O  O62  1  0.49739293  0.28319707  0.76265812  1  0  -0.619138  -0.851642  0  2.151065  0
O  O63  1  0.50260853  0.71680350  0.23734308  1  0  -0.619145  -0.85162  0  2.151073  0
O  O64  1  0.44878178  0.08410535  0.90729528  1  0  -0.63598  -0.8332  0  2.107919  0
O  O65  1  0.55121837  0.91589523  0.09270465  1  0  -0.63599  -0.833206  0  2.107931  0
O  O66  1  0.87383967  0.12400042  0.67372966  1  0  -0.642147  -0.849527  0  2.176827  0
O  O67  1  0.12616011  0.87599895  0.32626871  1  0  -0.642163  -0.849547  0  2.176843  0
O  O68  1  0.07617211  0.12594199  0.95751422  1  0  -0.648079  -0.85777  0  2.110931  0
O  O69  1  0.92382804  0.87405857  0.04248475  1  0  -0.648079  -0.857751  0  2.111044  0
O  O70  1  0.77751426  0.26500572  0.96473287  1  0  -0.295364  -0.565885  0  2.237042  0
O  O71  1  0.22248588  0.73499486  0.03526802  1  0  -0.295375  -0.565844  0  2.237019  0
