# generated using pymatgen
data_CdH16C22(NO2)2
_symmetry_space_group_name_H-M   'P 1'
_cell_length_a   9.44306888
_cell_length_b   10.36206082
_cell_length_c   12.32480812
_cell_angle_alpha   96.63069159
_cell_angle_beta   95.15383276
_cell_angle_gamma   114.56474121
_symmetry_Int_Tables_number   1
_chemical_formula_structural   CdH16C22(NO2)2
_chemical_formula_sum   'Cd2 H32 C44 N4 O8'
_cell_volume   1076.73599892
_cell_formula_units_Z   2
loop_
 _symmetry_equiv_pos_site_id
 _symmetry_equiv_pos_as_xyz
  1  'x, y, z'
loop_
 _atom_site_type_symbol
 _atom_site_label
 _atom_site_symmetry_multiplicity
 _atom_site_fract_x
 _atom_site_fract_y
 _atom_site_fract_z
 _atom_site_occupancy
 _atom_site_hle17_bader_spin_density
 _atom_site_hle17_ddec_charge
 _atom_site_hle17_ddec_spin_density
 _atom_site_hle17_ddec_sum_bond_order
 _atom_site_hle17_magmom
 _atom_site_hse06_10hf_bader_spin_density
 _atom_site_hse06_10hf_ddec_charge
 _atom_site_hse06_10hf_ddec_spin_density
 _atom_site_hse06_10hf_ddec_sum_bond_order
 _atom_site_hse06_10hf_magmom
 _atom_site_hse06_bader_spin_density
 _atom_site_hse06_ddec_charge
 _atom_site_hse06_ddec_spin_density
 _atom_site_hse06_ddec_sum_bond_order
 _atom_site_hse06_magmom
 _atom_site_pbe_bader_spin_density
 _atom_site_pbe_cm5_charge
 _atom_site_pbe_ddec_charge
 _atom_site_pbe_ddec_spin_density
 _atom_site_pbe_ddec_sum_bond_order
 _atom_site_pbe_magmom
Cd  Cd0  1  0.70886998  0.61214462  0.10880498  1  0  1.127845  0  1.676125  0  0  0.931953  0  2.127547  0  0  0.992321  0  2.074022  0  0  0.777704  0.889162  0  2.164516  0
Cd  Cd1  1  0.29112853  0.38785430  0.89119424  1  0  1.127871  0  1.676138  0  0  0.931987  0  2.127568  0  0  0.99236  0  2.074041  0  0  0.77771  0.889197  0  2.164539  0
H  H2  1  0.84546542  0.44450459  0.96274818  1  0  0.078024  0  0.95776  0  0  0.088525  0  1.0172  0  0  0.090273  0  1.016468  0  0  0.116218  0.087172  0  1.017895  0
H  H3  1  0.15453411  0.55549648  0.03725295  1  0  0.077991  0  0.957781  0  0  0.088505  0  1.017201  0  0  0.090254  0  1.016467  0  0  0.116193  0.087153  0  1.017896  0
H  H4  1  0.94159449  0.43320736  0.78272679  1  0  0.127408  0  0.957789  0  0  0.137999  0  1.016232  0  0  0.141396  0  1.014666  0  0  0.112845  0.135355  0  1.017879  0
H  H5  1  0.05840559  0.56679262  0.21727508  1  0  0.127419  0  0.957793  0  0  0.13801  0  1.01623  0  0  0.141406  0  1.014667  0  0  0.112852  0.135367  0  1.017877  0
H  H6  1  0.96847572  0.85869816  0.77097976  1  0  0.113129  0  0.949995  0  0  0.122455  0  1.010695  0  0  0.125266  0  1.010694  0  0  0.106934  0.120341  0  1.01097  0
H  H7  1  0.03152279  0.14130076  0.22902027  1  0  0.113124  0  0.950001  0  0  0.122443  0  1.010709  0  0  0.125252  0  1.010708  0  0  0.10693  0.12033  0  1.010982  0
H  H8  1  0.87347600  0.85230125  0.95362814  1  0  0.079647  0  0.92392  0  0  0.092094  0  0.980704  0  0  0.094211  0  0.979069  0  0  0.119592  0.090367  0  0.982173  0
H  H9  1  0.12652565  0.14769982  0.04637232  1  0  0.079647  0  0.923914  0  0  0.092105  0  0.980685  0  0  0.094223  0  0.97905  0  0  0.119603  0.090377  0  0.982156  0
H  H10  1  0.05119649  0.73812661  0.62125088  1  0  0.065025  0  0.950021  0  0  0.077409  0  1.01118  0  0  0.077663  0  1.012553  0  0  0.097576  0.076965  0  1.010736  0
H  H11  1  0.94880308  0.26187230  0.37875003  1  0  0.065033  0  0.950012  0  0  0.077413  0  1.011183  0  0  0.077666  0  1.012555  0  0  0.097575  0.076969  0  1.010736  0
H  H12  1  0.06488551  0.45670024  0.64887462  1  0  0.091779  0  0.964732  0  0  0.099327  0  1.029654  0  0  0.101553  0  1.02845  0  0  0.097294  0.097733  0  1.030318  0
H  H13  1  0.93511564  0.54329976  0.35112489  1  0  0.091794  0  0.964677  0  0  0.099301  0  1.029617  0  0  0.101525  0  1.028416  0  0  0.097282  0.097706  0  1.030283  0
H  H14  1  0.21058723  0.67209233  0.50677343  1  0  0.051083  0  0.949757  0  0  0.062765  0  1.011184  0  0  0.063943  0  1.010597  0  0  0.08913  0.061797  0  1.012039  0
H  H15  1  0.78941123  0.32790875  0.49322601  1  0  0.0511  0  0.949793  0  0  0.062809  0  1.011187  0  0  0.063986  0  1.0106  0  0  0.089148  0.061837  0  1.012046  0
H  H16  1  0.81011927  0.62518049  0.49455933  1  0  0.078117  0  0.919582  0  0  0.089554  0  0.977899  0  0  0.090434  0  0.979051  0  0  0.102622  0.088849  0  0.977407  0
H  H17  1  0.18988339  0.37482274  0.50544142  1  0  0.078127  0  0.919635  0  0  0.089572  0  0.977943  0  0  0.090454  0  0.979093  0  0  0.102605  0.088865  0  0.977455  0
H  H18  1  0.64356676  0.69686891  0.60863956  1  0  0.10523  0  0.936254  0  0  0.118074  0  0.991111  0  0  0.120897  0  0.991303  0  0  0.108661  0.116265  0  0.99084  0
H  H19  1  0.35643540  0.30313324  0.39136105  1  0  0.105267  0  0.936205  0  0  0.118076  0  0.991096  0  0  0.120898  0  0.99129  0  0  0.10868  0.116266  0  0.990824  0
H  H20  1  0.43579735  0.62455934  0.73199925  1  0  0.085838  0  0.939648  0  0  0.097624  0  0.994987  0  0  0.100004  0  0.993092  0  0  0.117921  0.096099  0  0.995869  0
H  H21  1  0.56420480  0.37544280  0.26800217  1  0  0.085818  0  0.939628  0  0  0.097604  0  0.994978  0  0  0.099983  0  0.993079  0  0  0.117908  0.096078  0  0.995863  0
H  H22  1  0.45534583  0.23564632  0.74367346  1  0  0.082873  0  0.939491  0  0  0.092582  0  1.001029  0  0  0.094555  0  0.999442  0  0  0.117771  0.091007  0  1.002324  0
H  H23  1  0.54465526  0.76435582  0.25632789  1  0  0.082913  0  0.93946  0  0  0.092588  0  1.001044  0  0  0.094561  0  0.999457  0  0  0.117758  0.091013  0  1.002337  0
H  H24  1  0.66209404  0.28949354  0.62188930  1  0  0.103386  0  0.954155  0  0  0.116815  0  1.007791  0  0  0.119703  0  1.007112  0  0  0.1078  0.11445  0  1.009029  0
H  H25  1  0.33790654  0.71050755  0.37810947  1  0  0.103448  0  0.954196  0  0  0.116907  0  1.007789  0  0  0.119796  0  1.007109  0  0  0.107845  0.114541  0  1.009027  0
H  H26  1  0.33231963  0.09549560  0.90140689  1  0  0.111428  0  0.994899  0  0  0.11627  0  1.06674  0  0  0.120565  0  1.06293  0  0  0.098315  0.113089  0  1.069724  0
H  H27  1  0.66768050  0.90450224  0.09859233  1  0  0.111399  0  0.994934  0  0  0.116252  0  1.066756  0  0  0.120546  0  1.062949  0  0  0.098312  0.113073  0  1.069741  0
H  H28  1  0.73503441  0.16648508  0.13516339  1  0  0.096649  0  0.970729  0  0  0.102987  0  1.037459  0  0  0.106505  0  1.035834  0  0  0.095978  0.100585  0  1.038472  0
H  H29  1  0.26496466  0.83351277  0.86483494  1  0  0.096669  0  0.970776  0  0  0.103013  0  1.037496  0  0  0.10653  0  1.035873  0  0  0.095985  0.100612  0  1.038509  0
H  H30  1  0.15005087  0.86565122  0.43452860  1  0  0.095334  0  0.951035  0  0  0.104523  0  1.013255  0  0  0.108449  0  1.010502  0  0  0.10053  0.101292  0  1.01606  0
H  H31  1  0.84994815  0.13434879  0.56546995  1  0  0.095343  0  0.951004  0  0  0.104539  0  1.013213  0  0  0.108458  0  1.010471  0  0  0.100545  0.10131  0  1.016017  0
H  H32  1  0.77674607  0.99235394  0.37185918  1  0  0.096985  0  0.949127  0  0  0.106973  0  1.009539  0  0  0.110809  0  1.006897  0  0  0.102018  0.1041  0  1.011758  0
H  H33  1  0.22325137  0.00764498  0.62813996  1  0  0.096928  0  0.949123  0  0  0.106911  0  1.009552  0  0  0.110748  0  1.006909  0  0  0.10201  0.104044  0  1.011763  0
C  C34  1  0.87372494  0.53372958  0.91694981  1  0  0.132849  0  3.712283  0  0  0.102189  0  3.963731  0  0  0.109384  0  3.98301  0  0  0.045411  0.097607  0  3.950497  0
C  C35  1  0.12627514  0.46627041  0.08305125  1  0  0.132905  0  3.712278  0  0  0.102236  0  3.963724  0  0  0.109432  0  3.983001  0  0  0.045442  0.097655  0  3.950489  0
C  C36  1  0.92594391  0.52783245  0.81559544  1  0  -0.148071  0  3.675693  0  0  -0.167828  0  3.925972  0  0  -0.17487  0  3.945726  0  0  -0.078818  -0.163179  0  3.912688  0
C  C37  1  0.07405617  0.47216753  0.18440562  1  0  -0.148098  0  3.675647  0  0  -0.167851  0  3.925919  0  0  -0.174895  0  3.945674  0  0  -0.078829  -0.163204  0  3.912638  0
C  C38  1  0.95387633  0.64193819  0.75700914  1  0  0.132218  0  3.715564  0  0  0.142523  0  3.953115  0  0  0.148419  0  3.973851  0  0  0.014322  0.138751  0  3.938298  0
C  C39  1  0.04612375  0.35806180  0.24299191  1  0  0.13221  0  3.715568  0  0  0.142524  0  3.953102  0  0  0.14842  0  3.973839  0  0  0.014294  0.138751  0  3.938285  0
C  C40  1  0.94073019  0.76330724  0.80977630  1  0  -0.170444  0  3.707021  0  0  -0.186922  0  3.95657  0  0  -0.195067  0  3.978158  0  0  -0.083665  -0.181346  0  3.941756  0
C  C41  1  0.05926989  0.23669275  0.19022395  1  0  -0.170456  0  3.707027  0  0  -0.186929  0  3.956579  0  0  -0.195071  0  3.978165  0  0  -0.083666  -0.181353  0  3.941764  0
C  C42  1  0.88896463  0.76121412  0.91198424  1  0  0.130573  0  3.729441  0  0  0.099024  0  3.979713  0  0  0.106305  0  3.999236  0  0  0.046706  0.094453  0  3.966163  0
C  C43  1  0.11103596  0.23878695  0.08801696  1  0  0.130611  0  3.729461  0  0  0.099055  0  3.979734  0  0  0.106335  0  3.999257  0  0  0.046706  0.094483  0  3.966184  0
C  C44  1  0.97928385  0.63053220  0.63901770  1  0  -0.055393  0  3.517127  0  0  -0.06432  0  3.744881  0  0  -0.066432  0  3.760283  0  0  -0.067652  -0.062312  0  3.733777  0
C  C45  1  0.02071729  0.36946779  0.36098261  1  0  -0.055398  0  3.517163  0  0  -0.064357  0  3.744927  0  0  -0.066469  0  3.76033  0  0  -0.067661  -0.06235  0  3.733824  0
C  C46  1  0.02922565  0.51389631  0.59072566  1  0  -0.063048  0  3.472018  0  0  -0.074317  0  3.708572  0  0  -0.075433  0  3.722726  0  0  -0.085598  -0.073085  0  3.698162  0
C  C47  1  0.97077493  0.48610476  0.40927473  1  0  -0.063133  0  3.472101  0  0  -0.074302  0  3.708561  0  0  -0.075419  0  3.722719  0  0  -0.08559  -0.073069  0  3.69815  0
C  C48  1  0.12620111  0.55847015  0.49654597  1  0  -0.040021  0  3.505162  0  0  -0.054834  0  3.748271  0  0  -0.055435  0  3.763322  0  0  -0.084063  -0.054631  0  3.737913  0
C  C49  1  0.87379897  0.44152985  0.50345346  1  0  -0.040092  0  3.505223  0  0  -0.054934  0  3.748352  0  0  -0.055536  0  3.763403  0  0  -0.084079  -0.054729  0  3.737997  0
C  C50  1  0.81754853  0.55311315  0.55137075  1  0  -0.065805  0  3.530547  0  0  -0.074434  0  3.764485  0  0  -0.077023  0  3.779819  0  0  -0.06998  -0.072446  0  3.753862  0
C  C51  1  0.18244998  0.44688576  0.44862928  1  0  -0.065831  0  3.530577  0  0  -0.07448  0  3.764515  0  0  -0.077069  0  3.779849  0  0  -0.069965  -0.072492  0  3.753892  0
C  C52  1  0.67420454  0.50063359  0.60637679  1  0  0.126575  0  3.751667  0  0  0.133953  0  3.993902  0  0  0.139751  0  4.016459  0  0  0.010005  0.130258  0  3.978554  0
C  C53  1  0.32579660  0.49936640  0.39362434  1  0  0.126586  0  3.751545  0  0  0.134002  0  3.993739  0  0  0.139801  0  4.016292  0  0  0.010018  0.130307  0  3.978392  0
C  C54  1  0.60437596  0.59282236  0.63616097  1  0  -0.170324  0  3.731515  0  0  -0.189474  0  3.986671  0  0  -0.197751  0  4.008631  0  0  -0.085527  -0.184454  0  3.972325  0
C  C55  1  0.39562519  0.40717762  0.36384015  1  0  -0.170318  0  3.731411  0  0  -0.189448  0  3.986559  0  0  -0.197727  0  4.008519  0  0  -0.085532  -0.184426  0  3.972211  0
C  C56  1  0.48956127  0.55396418  0.70457325  1  0  0.1328  0  3.711376  0  0  0.102895  0  3.962089  0  0  0.11044  0  3.980919  0  0  0.045676  0.097895  0  3.94935  0
C  C57  1  0.51043982  0.44603796  0.29542729  1  0  0.132789  0  3.711395  0  0  0.10287  0  3.962094  0  0  0.110417  0  3.980925  0  0  0.045689  0.097868  0  3.949359  0
C  C58  1  0.49975922  0.33621727  0.71093706  1  0  0.13327  0  3.725106  0  0  0.102246  0  3.976606  0  0  0.109619  0  3.996743  0  0  0.045753  0.097595  0  3.96269  0
C  C59  1  0.50023818  0.66378380  0.28906231  1  0  0.133252  0  3.725013  0  0  0.102241  0  3.976521  0  0  0.109614  0  3.996659  0  0  0.045798  0.097589  0  3.962608  0
C  C60  1  0.61476245  0.36726337  0.64237066  1  0  -0.177899  0  3.73764  0  0  -0.194161  0  3.984804  0  0  -0.20296  0  4.007388  0  0  -0.08724  -0.188537  0  3.969715  0
C  C61  1  0.38523550  0.63273661  0.35763026  1  0  -0.178002  0  3.737705  0  0  -0.194302  0  3.984872  0  0  -0.203103  0  4.007454  0  0  -0.087298  -0.188677  0  3.969785  0
C  C62  1  0.58218630  0.30537263  0.04413864  1  0  0.633475  0  3.932751  0  0  0.582954  0  4.225607  0  0  0.61812  0  4.217855  0  0  0.195973  0.558798  0  4.230377  0
C  C63  1  0.41781120  0.69462414  0.95586029  1  0  0.633594  0  3.932654  0  0  0.583074  0  4.225527  0  0  0.618237  0  4.217773  0  0  0.196022  0.558915  0  4.230297  0
C  C64  1  0.53810002  0.14733041  0.02141837  1  0  -0.062397  0  3.771632  0  0  -0.038427  0  4.00013  0  0  -0.045501  0  4.023005  0  0  -0.022638  -0.03322  0  3.984399  0
C  C65  1  0.46190168  0.85266852  0.97858106  1  0  -0.062333  0  3.771612  0  0  -0.03839  0  4.000154  0  0  -0.04546  0  4.023024  0  0  -0.022624  -0.033178  0  3.984417  0
C  C66  1  0.40554236  0.05379678  0.94468821  1  0  -0.091031  0  3.740515  0  0  -0.113261  0  3.98686  0  0  -0.114723  0  4.00703  0  0  -0.094495  -0.112182  0  3.973463  0
C  C67  1  0.59445514  0.94619998  0.05531153  1  0  -0.091078  0  3.740605  0  0  -0.113311  0  3.986961  0  0  -0.114772  0  4.007132  0  0  -0.094523  -0.112235  0  3.973564  0
C  C68  1  0.63191486  0.09242887  0.07641148  1  0  -0.074927  0  3.745108  0  0  -0.096169  0  3.989795  0  0  -0.097082  0  4.010229  0  0  -0.0913  -0.09547  0  3.975689  0
C  C69  1  0.36808416  0.90757114  0.92358707  1  0  -0.074975  0  3.745214  0  0  -0.096219  0  3.989917  0  0  -0.097131  0  4.010348  0  0  -0.091303  -0.095518  0  3.975806  0
C  C70  1  0.90969402  0.82991264  0.27967119  1  0  0.613592  0  3.977833  0  0  0.566255  0  4.271113  0  0  0.600015  0  4.264726  0  0  0.182654  0.543373  0  4.274409  0
C  C71  1  0.09030713  0.17008737  0.72032750  1  0  0.6136  0  3.977808  0  0  0.566275  0  4.27109  0  0  0.600035  0  4.264705  0  0  0.182649  0.543392  0  4.274385  0
C  C72  1  0.96025420  0.92194577  0.39215816  1  0  -0.047346  0  3.754006  0  0  -0.025726  0  3.987134  0  0  -0.031355  0  4.00856  0  0  -0.019273  -0.022285  0  3.972454  0
C  C73  1  0.03974431  0.07805314  0.60784268  1  0  -0.047389  0  3.753952  0  0  -0.025829  0  3.98716  0  0  -0.03146  0  4.008584  0  0  -0.019294  -0.022388  0  3.972482  0
C  C74  1  0.08605633  0.92589343  0.46417369  1  0  -0.084065  0  3.762306  0  0  -0.105282  0  4.011793  0  0  -0.106247  0  4.031337  0  0  -0.089823  -0.104264  0  3.998608  0
C  C75  1  0.91394426  0.07410766  0.53582427  1  0  -0.08403  0  3.762203  0  0  -0.105231  0  4.011705  0  0  -0.106188  0  4.031248  0  0  -0.089806  -0.104215  0  3.998518  0
C  C76  1  0.87445859  0.99673694  0.42889055  1  0  -0.091982  0  3.768937  0  0  -0.11571  0  4.022257  0  0  -0.116522  0  4.041767  0  0  -0.0915  -0.11481  0  4.008772  0
C  C77  1  0.12553734  0.00325877  0.57110654  1  0  -0.091849  0  3.768849  0  0  -0.115553  0  4.022188  0  0  -0.116366  0  4.041702  0  0  -0.091451  -0.11466  0  4.008701  0
N  N78  1  0.85117306  0.64631438  0.96361886  1  0  -0.341811  0  3.27425  0  0  -0.262243  0  3.541291  0  0  -0.283498  0  3.560164  0  0  -0.334796  -0.247861  0  3.527819  0
N  N79  1  0.14882752  0.35368669  0.03638234  1  0  -0.341859  0  3.274318  0  0  -0.262296  0  3.54137  0  0  -0.283552  0  3.560242  0  0  -0.334798  -0.247913  0  3.527897  0
N  N80  1  0.44032271  0.42899247  0.74396493  1  0  -0.329357  0  3.239032  0  0  -0.253213  0  3.500774  0  0  -0.27433  0  3.521244  0  0  -0.328288  -0.239029  0  3.486877  0
N  N81  1  0.55967838  0.57100967  0.25603561  1  0  -0.329349  0  3.239045  0  0  -0.253165  0  3.500736  0  0  -0.274283  0  3.52121  0  0  -0.32832  -0.238982  0  3.486839  0
O  O82  1  0.50180095  0.35811501  0.99208793  1  0  -0.675658  0  2.051247  0  0  -0.607866  0  2.319398  0  0  -0.638242  0  2.307796  0  0  -0.338212  -0.586295  0  2.327357  0
O  O83  1  0.49819548  0.64188176  0.00791092  1  0  -0.675695  0  2.051239  0  0  -0.607894  0  2.319378  0  0  -0.638269  0  2.307779  0  0  -0.338223  -0.586322  0  2.327341  0
O  O84  1  0.70381965  0.38455068  0.11581229  1  0  -0.635991  0  1.976268  0  0  -0.575645  0  2.222904  0  0  -0.604021  0  2.213234  0  0  -0.327923  -0.555939  0  2.228407  0
O  O85  1  0.29617992  0.61544824  0.88418781  1  0  -0.636072  0  1.976296  0  0  -0.575724  0  2.222922  0  0  -0.604114  0  2.213283  0  0  -0.327957  -0.556035  0  2.228469  0
O  O86  1  0.95064539  0.72821941  0.26204024  1  0  -0.639647  0  1.941568  0  0  -0.589944  0  2.175374  0  0  -0.615433  0  2.16548  0  0  -0.334515  -0.571835  0  2.181883  0
O  O87  1  0.04935839  0.27178168  0.73795874  1  0  -0.63964  0  1.941503  0  0  -0.589937  0  2.175304  0  0  -0.615425  0  2.16541  0  0  -0.33452  -0.571825  0  2.181811  0
O  O88  1  0.81859232  0.85354307  0.20925629  1  0  -0.659872  0  1.983928  0  0  -0.600174  0  2.22788  0  0  -0.628648  0  2.217615  0  0  -0.34012  -0.580151  0  2.23418  0
O  O89  1  0.18140730  0.14645371  0.79074197  1  0  -0.659885  0  1.983962  0  0  -0.60018  0  2.227901  0  0  -0.628657  0  2.217637  0  0  -0.3401  -0.580156  0  2.234197  0
