# generated using pymatgen
data_GdAgH8C14(NO4)2
_symmetry_space_group_name_H-M   'P 1'
_cell_length_a   9.51740577
_cell_length_b   12.01986330
_cell_length_c   16.82800000
_cell_angle_alpha   96.52050461
_cell_angle_beta   90.00000000
_cell_angle_gamma   113.32253191
_symmetry_Int_Tables_number   1
_chemical_formula_structural   GdAgH8C14(NO4)2
_chemical_formula_sum   'Gd4 Ag4 H32 C56 N8 O32'
_cell_volume   1754.22152308
_cell_formula_units_Z   4
loop_
 _symmetry_equiv_pos_site_id
 _symmetry_equiv_pos_as_xyz
  1  'x, y, z'
loop_
 _atom_site_type_symbol
 _atom_site_label
 _atom_site_symmetry_multiplicity
 _atom_site_fract_x
 _atom_site_fract_y
 _atom_site_fract_z
 _atom_site_occupancy
 _atom_site_hle17_bader_spin_density
 _atom_site_hle17_ddec_charge
 _atom_site_hle17_ddec_spin_density
 _atom_site_hle17_ddec_sum_bond_order
 _atom_site_hle17_magmom
 _atom_site_hse06_10hf_bader_spin_density
 _atom_site_hse06_10hf_ddec_charge
 _atom_site_hse06_10hf_ddec_spin_density
 _atom_site_hse06_10hf_ddec_sum_bond_order
 _atom_site_hse06_10hf_magmom
 _atom_site_hse06_bader_spin_density
 _atom_site_hse06_ddec_charge
 _atom_site_hse06_ddec_spin_density
 _atom_site_hse06_ddec_sum_bond_order
 _atom_site_hse06_magmom
 _atom_site_pbe_bader_charge
 _atom_site_pbe_bader_spin_density
 _atom_site_pbe_cm5_charge
 _atom_site_pbe_ddec_charge
 _atom_site_pbe_ddec_spin_density
 _atom_site_pbe_ddec_sum_bond_order
 _atom_site_pbe_magmom
Gd  Gd0  1  0.70711184  0.00966858  0.93262819  1  0  2.176712  0  1.833724  0  0  2.091266  0  2.199074  0  0  2.147231  0  2.138784  0  2.194537  0  1.464171  2.048076  0  2.246828  0
Gd  Gd1  1  0.69747412  0.99033996  0.56738504  1  0  2.177838  0  1.832122  0  0  2.090752  0  2.199764  0  0  2.14704  0  2.139042  0  2.195117  0  1.464117  2.047622  0  2.247362  0
Gd  Gd2  1  0.29288872  0.99033083  0.06737241  1  0  2.176737  0  1.833638  0  0  2.091221  0  2.199079  0  0  2.147207  0  2.138761  0  2.194593  0  1.464157  2.04801  0  2.246867  0
Gd  Gd3  1  0.30252420  0.00966127  0.43261453  1  0  2.17776  0  1.832303  0  0  2.090673  0  2.199963  0  0  2.146974  0  2.139227  0  2.195127  0  1.464065  2.047574  0  2.247503  0
Ag  Ag4  1  0.04313192  0.32028284  0.08571390  1  0  0.52491  0  1.38109  0  0  0.36278  0  1.80042  0  0  0.395333  0  1.755729  0  0.569765  0  0.485438  0.340891  0  1.830695  0
Ag  Ag5  1  0.72278564  0.67967183  0.41424742  1  0  0.525208  0  1.37934  0  0  0.362965  0  1.798365  0  0  0.395599  0  1.753699  0  0.568384  0  0.485405  0.340958  0  1.828704  0
Ag  Ag6  1  0.95686850  0.67971839  0.91428685  1  0  0.524887  0  1.381108  0  0  0.362755  0  1.800421  0  0  0.395308  0  1.755729  0  0.569636  0  0.485429  0.340866  0  1.830694  0
Ag  Ag7  1  0.27721583  0.32032940  0.58575334  1  0  0.525186  0  1.379361  0  0  0.362939  0  1.798395  0  0  0.395571  0  1.753729  0  0.568378  0  0.485397  0.340936  0  1.828734  0
H  H8  1  0.76220110  0.71514611  0.04933186  1  0  0.098211  0  0.936576  0  0  0.105748  0  0.999954  0  0  0.108205  0  0.99778  0  0.113295  0  0.124149  0.103837  0  1.001693  0
H  H9  1  0.04707620  0.28488890  0.45063895  1  0  0.098545  0  0.936218  0  0  0.105718  0  0.999957  0  0  0.108299  0  0.997646  0  0.118089  0  0.12392  0.103874  0  1.001473  0
H  H10  1  0.23779991  0.28485421  0.95066763  1  0  0.098225  0  0.936593  0  0  0.105763  0  0.999967  0  0  0.108219  0  0.997792  0  0.113299  0  0.124147  0.103852  0  1.001705  0
H  H11  1  0.95292495  0.71510959  0.54936158  1  0  0.098577  0  0.936218  0  0  0.105742  0  0.999956  0  0  0.108332  0  0.997628  0  0.118118  0  0.123939  0.103897  0  1.001474  0
H  H12  1  0.88295729  0.90867106  0.16462685  1  0  0.123782  0  0.938839  0  0  0.132727  0  0.999491  0  0  0.135719  0  0.999029  0  0.123832  0  0.118783  0.130474  0  1.000066  0
H  H13  1  0.97414161  0.09128270  0.33529162  1  0  0.12333  0  0.938206  0  0  0.132213  0  0.999049  0  0  0.135231  0  0.998553  0  0.129044  0  0.11877  0.129994  0  0.999587  0
H  H14  1  0.11704372  0.09132926  0.83537383  1  0  0.123788  0  0.938843  0  0  0.132729  0  0.999499  0  0  0.135721  0  0.999037  0  0.123846  0  0.118785  0.130476  0  1.000073  0
H  H15  1  0.02585684  0.90871671  0.66470721  1  0  0.123302  0  0.93822  0  0  0.132191  0  0.999062  0  0  0.135208  0  0.998568  0  0.128816  0  0.11876  0.129973  0  0.9996  0
H  H16  1  0.83795078  0.41182665  0.95051268  1  0  0.094183  0  0.929412  0  0  0.102822  0  0.992272  0  0  0.106279  0  0.988279  0  0.122318  0  0.124281  0.100284  0  0.995241  0
H  H17  1  0.42620114  0.58817184  0.54946943  1  0  0.094053  0  0.928695  0  0  0.10239  0  0.991784  0  0  0.10593  0  0.987687  0  0.131144  0  0.124228  0.099808  0  0.994801  0
H  H18  1  0.16205129  0.58817367  0.04948741  1  0  0.094201  0  0.929407  0  0  0.102841  0  0.992264  0  0  0.106296  0  0.988272  0  0.122326  0  0.124294  0.100302  0  0.995232  0
H  H19  1  0.57379869  0.41183030  0.45053021  1  0  0.094066  0  0.928678  0  0  0.102411  0  0.991763  0  0  0.105953  0  0.987663  0  0.131161  0  0.124225  0.099828  0  0.994781  0
H  H20  1  0.49134587  0.36063888  0.12264428  1  0  0.124397  0  0.913239  0  0  0.136731  0  0.966999  0  0  0.140836  0  0.962721  0  0.14689  0  0.124563  0.133606  0  0.970276  0
H  H21  1  0.13074477  0.63943996  0.37740912  1  0  0.125281  0  0.913427  0  0  0.13731  0  0.967235  0  0  0.141426  0  0.962943  0  0.104219  0  0.124761  0.134202  0  0.970451  0
H  H22  1  0.50865664  0.63936235  0.87735647  1  0  0.124391  0  0.913223  0  0  0.136728  0  0.966982  0  0  0.140834  0  0.962704  0  0.146881  0  0.124555  0.133603  0  0.970259  0
H  H23  1  0.86925323  0.36055854  0.62259023  1  0  0.125202  0  0.913565  0  0  0.137235  0  0.967366  0  0  0.141349  0  0.963077  0  0.104214  0  0.124731  0.134128  0  0.97058  0
H  H24  1  0.40900731  0.80961880  0.21988936  1  0  0.132716  0  0.941866  0  0  0.143218  0  0.997862  0  0  0.146786  0  0.996197  0  0.137048  0  0.122056  0.140585  0  0.999278  0
H  H25  1  0.59933656  0.19046186  0.28006317  1  0  0.132506  0  0.941731  0  0  0.142568  0  0.998147  0  0  0.146136  0  0.996503  0  0.152046  0  0.121881  0.13994  0  0.999548  0
H  H26  1  0.59099055  0.19038152  0.78011073  1  0  0.13272  0  0.941883  0  0  0.143218  0  0.997875  0  0  0.146785  0  0.996209  0  0.137065  0  0.122068  0.140585  0  0.99929  0
H  H27  1  0.40066235  0.80953846  0.71993573  1  0  0.132544  0  0.941721  0  0  0.142569  0  0.99818  0  0  0.146137  0  0.996536  0  0.152026  0  0.121896  0.139942  0  0.99958  0
H  H28  1  0.56114105  0.58966549  0.13583554  1  0  0.101637  0  0.956656  0  0  0.111858  0  1.014295  0  0  0.11389  0  1.016291  0  0.0877  0  0.106857  0.110462  0  1.012969  0
H  H29  1  0.97147967  0.41043525  0.36418696  1  0  0.101137  0  0.956762  0  0  0.111519  0  1.014255  0  0  0.113496  0  1.016328  0  0.101605  0  0.106778  0.110075  0  1.013004  0
H  H30  1  0.43885996  0.41033482  0.86416395  1  0  0.101617  0  0.956644  0  0  0.111835  0  1.014287  0  0  0.113867  0  1.016281  0  0.087585  0  0.106862  0.110438  0  1.012961  0
H  H31  1  0.02852102  0.58956233  0.63581231  1  0  0.101142  0  0.956765  0  0  0.111512  0  1.01427  0  0  0.113488  0  1.016346  0  0.101608  0  0.106767  0.110068  0  1.013019  0
H  H32  1  0.45098982  0.69681690  0.32678856  1  0  0.071426  0  0.955096  0  0  0.083926  0  1.015027  0  0  0.085231  0  1.014465  0  0.09562  0  0.11564  0.082921  0  1.015557  0
H  H33  1  0.75413891  0.30324094  0.17317994  1  0  0.071098  0  0.955963  0  0  0.083849  0  1.015686  0  0  0.085098  0  1.015213  0  0.081712  0  0.115734  0.082906  0  1.016128  0
H  H34  1  0.54901224  0.30318342  0.67321212  1  0  0.071422  0  0.955101  0  0  0.083911  0  1.015047  0  0  0.085216  0  1.014484  0  0.095637  0  0.115634  0.082905  0  1.015578  0
H  H35  1  0.24586151  0.69676029  0.82681903  1  0  0.071106  0  0.955945  0  0  0.083849  0  1.015686  0  0  0.085097  0  1.015213  0  0.081701  0  0.115747  0.082905  0  1.016128  0
H  H36  1  0.91008577  0.79871403  0.27741167  1  0  0.097396  0  0.934643  0  0  0.108388  0  0.992818  0  0  0.110907  0  0.990708  0  0.125525  0  0.123504  0.106454  0  0.994518  0
H  H37  1  0.11125089  0.20128629  0.22257059  1  0  0.097362  0  0.934064  0  0  0.108363  0  0.992285  0  0  0.110879  0  0.99017  0  0.134652  0  0.123515  0.106416  0  0.994038  0
H  H38  1  0.08991479  0.20128537  0.72258894  1  0  0.097378  0  0.934636  0  0  0.108375  0  0.992803  0  0  0.110894  0  0.990694  0  0.125542  0  0.123498  0.106441  0  0.994504  0
H  H39  1  0.88874756  0.79871312  0.77742942  1  0  0.097359  0  0.934019  0  0  0.108367  0  0.992239  0  0  0.110882  0  0.990125  0  0.134651  0  0.123517  0.106419  0  0.993994  0
C  C40  1  0.73127258  0.61741039  0.04756543  1  0  0.138242  0  3.653417  0  0  0.105051  0  3.897522  0  0  0.113853  0  3.915663  0  0.455873  0  0.054503  0.099396  0  3.885208  0
C  C41  1  0.11390215  0.38263101  0.45241362  1  0  0.13789  0  3.652955  0  0  0.104918  0  3.896863  0  0  0.113666  0  3.915  0  0.469076  0  0.055206  0.09935  0  3.884418  0
C  C42  1  0.26872738  0.38258993  0.95243525  1  0  0.138199  0  3.653485  0  0  0.105008  0  3.897585  0  0  0.113809  0  3.915728  0  0.455891  0  0.054502  0.099353  0  3.88527  0
C  C43  1  0.88609945  0.61736839  0.54758639  1  0  0.137858  0  3.653051  0  0  0.104898  0  3.896944  0  0  0.113643  0  3.915082  0  0.469065  0  0.055196  0.099324  0  3.884496  0
C  C44  1  0.64409352  0.87040394  0.18465400  1  0  -0.010994  0  3.692254  0  0  0.00774  0  3.920768  0  0  0.005727  0  3.940069  0  -0.06512  0  0.006694  0.008891  0  3.90805  0
C  C45  1  0.77350222  0.12952882  0.31526752  1  0  -0.012267  0  3.690976  0  0  0.006177  0  3.920974  0  0  0.004185  0  3.940265  0  -0.062306  0  0.006883  0.007316  0  3.90829  0
C  C46  1  0.35590808  0.12959547  0.81534602  1  0  -0.011029  0  3.692181  0  0  0.007723  0  3.920684  0  0  0.005712  0  3.939981  0  -0.064757  0  0.006661  0.008792  0  3.908072  0
C  C47  1  0.22649473  0.87046967  0.68473004  1  0  -0.012262  0  3.691029  0  0  0.00619  0  3.921016  0  0  0.004207  0  3.940315  0  -0.062433  0  0.00689  0.007328  0  3.908331  0
C  C48  1  0.62624237  0.23742248  0.02521823  1  0  0.70502  0  3.912553  0  0  0.654533  0  4.212476  0  0  0.689732  0  4.203818  0  1.639482  0  0.229969  0.630677  0  4.217521  0
C  C49  1  0.38873347  0.76262440  0.47489378  1  0  0.70472  0  3.91242  0  0  0.654232  0  4.21223  0  0  0.68942  0  4.203551  0  1.600125  0  0.230305  0.630447  0  4.217158  0
C  C50  1  0.37375608  0.76257692  0.97478594  1  0  0.705102  0  3.912503  0  0  0.654679  0  4.212327  0  0  0.689877  0  4.203671  0  1.639674  0  0.230026  0.630824  0  4.21737  0
C  C51  1  0.61127115  0.23737683  0.52510994  1  0  0.704589  0  3.912559  0  0  0.654018  0  4.212485  0  0  0.689208  0  4.203808  0  1.600437  0  0.230179  0.630231  0  4.217411  0
C  C52  1  0.62284323  0.94319674  0.12145869  1  0  0.703526  0  3.881324  0  0  0.65835  0  4.173372  0  0  0.693531  0  4.162612  0  1.624078  0  0.229579  0.634479  0  4.179834  0
C  C53  1  0.67948713  0.05662098  0.37845409  1  0  0.706189  0  3.87988  0  0  0.659267  0  4.175405  0  0  0.694432  0  4.1647  0  1.625196  0  0.230367  0.635401  0  4.181861  0
C  C54  1  0.37715523  0.05680267  0.87854251  1  0  0.703539  0  3.881141  0  0  0.658284  0  4.173323  0  0  0.693464  0  4.162562  0  1.624084  0  0.229561  0.634436  0  4.179787  0
C  C55  1  0.32051703  0.94337933  0.62154718  1  0  0.706182  0  3.879861  0  0  0.659281  0  4.175352  0  0  0.694415  0  4.164702  0  1.62539  0  0.230375  0.635418  0  4.181801  0
C  C56  1  0.66224997  0.37186320  0.03653071  1  0  -0.116391  0  3.74991  0  0  -0.088948  0  3.981563  0  0  -0.101816  0  4.005945  0  -0.017855  0  -0.010633  -0.080875  0  3.965446  0
C  C57  1  0.29037484  0.62820468  0.46353250  1  0  -0.115176  0  3.749437  0  0  -0.088014  0  3.980896  0  0  -0.100776  0  4.00514  0  -0.002868  0  -0.01121  -0.080015  0  3.964867  0
C  C58  1  0.33775314  0.62813712  0.96346938  1  0  -0.116373  0  3.749788  0  0  -0.088927  0  3.981402  0  0  -0.101793  0  4.005783  0  -0.017734  0  -0.01063  -0.080855  0  3.965285  0
C  C59  1  0.70962256  0.37179472  0.53646751  1  0  -0.115135  0  3.749483  0  0  -0.087927  0  3.980922  0  0  -0.10069  0  4.005167  0  -0.003031  0  -0.011197  -0.079929  0  3.964894  0
C  C60  1  0.78504148  0.86401756  0.19994059  1  0  -0.115877  0  3.703041  0  0  -0.137198  0  3.951545  0  0  -0.14243  0  3.973025  0  0.036747  0  -0.071989  -0.133804  0  3.937469  0
C  C61  1  0.92083021  0.13590241  0.29997870  1  0  -0.116223  0  3.701339  0  0  -0.13726  0  3.950185  0  0  -0.142499  0  3.971649  0  0.038366  0  -0.072815  -0.133868  0  3.936047  0
C  C62  1  0.21495908  0.13598184  0.80005942  1  0  -0.115922  0  3.703017  0  0  -0.137242  0  3.951513  0  0  -0.142473  0  3.972991  0  0.0365  0  -0.071999  -0.133822  0  3.937459  0
C  C63  1  0.07916824  0.86409699  0.70002013  1  0  -0.116195  0  3.701369  0  0  -0.137251  0  3.950241  0  0  -0.142491  0  3.971706  0  0.038545  0  -0.0728  -0.133859  0  3.936103  0
C  C64  1  0.77470717  0.44901188  0.99180673  1  0  0.097732  0  3.701246  0  0  0.058928  0  3.94058  0  0  0.067209  0  3.959228  0  0.48602  0  0.05056  0.053202  0  3.928757  0
C  C65  1  0.32573561  0.55102314  0.50820033  1  0  0.097735  0  3.700542  0  0  0.05916  0  3.939564  0  0  0.067328  0  3.958234  0  0.482031  0  0.050569  0.053445  0  3.927865  0
C  C66  1  0.22529279  0.55098844  0.00819276  1  0  0.097708  0  3.701202  0  0  0.058894  0  3.940545  0  0  0.067182  0  3.95918  0  0.48592  0  0.050558  0.053167  0  3.928722  0
C  C67  1  0.67426481  0.44897809  0.49180043  1  0  0.097762  0  3.700506  0  0  0.059162  0  3.939525  0  0  0.067328  0  3.958199  0  0.48208  0  0.05059  0.053443  0  3.927826  0
C  C68  1  0.58153888  0.42130898  0.08876874  1  0  -0.008167  0  3.674811  0  0  -0.035211  0  3.914938  0  0  -0.029688  0  3.93176  0  -0.102466  0  -0.052875  -0.038509  0  3.903583  0
C  C69  1  0.16023591  0.57876620  0.41129447  1  0  -0.010267  0  3.675319  0  0  -0.036712  0  3.914957  0  0  -0.031188  0  3.931698  0  -0.034534  0  -0.052414  -0.039956  0  3.903553  0
C  C70  1  0.41846377  0.57869043  0.91123187  1  0  -0.008175  0  3.674843  0  0  -0.035234  0  3.914983  0  0  -0.029714  0  3.931808  0  -0.102483  0  -0.052873  -0.038532  0  3.903627  0
C  C71  1  0.83976314  0.42123229  0.58870547  1  0  -0.010201  0  3.675491  0  0  -0.036648  0  3.915103  0  0  -0.031123  0  3.931844  0  -0.034524  0  -0.052384  -0.039894  0  3.903698  0
C  C72  1  0.52103460  0.80794803  0.23018467  1  0  -0.108697  0  3.677822  0  0  -0.128581  0  3.917333  0  0  -0.133249  0  3.936901  0  0.035323  0  -0.069254  -0.12565  0  3.90458  0
C  C73  1  0.71300228  0.19205320  0.26974537  1  0  -0.107569  0  3.677594  0  0  -0.12665  0  3.916968  0  0  -0.131321  0  3.936544  0  0.009885  0  -0.068813  -0.123702  0  3.904248  0
C  C74  1  0.47896476  0.19205320  0.76981609  1  0  -0.108638  0  3.677861  0  0  -0.128494  0  3.917323  0  0  -0.133158  0  3.936888  0  0.03536  0  -0.069223  -0.125537  0  3.904591  0
C  C75  1  0.28699978  0.80794711  0.73025293  1  0  -0.10768  0  3.677547  0  0  -0.126743  0  3.916943  0  0  -0.131415  0  3.936516  0  0.009871  0  -0.068883  -0.123795  0  3.904224  0
C  C76  1  0.61918516  0.54653213  0.09523859  1  0  -0.121798  0  3.744108  0  0  -0.131147  0  3.993717  0  0  -0.140371  0  4.017853  0  0.044897  0  -0.081855  -0.125307  0  3.97746  0
C  C77  1  0.07265174  0.45355583  0.40479356  1  0  -0.12026  0  3.743542  0  0  -0.130015  0  3.99283  0  0  -0.139193  0  4.016992  0  -0.007387  0  -0.081963  -0.124166  0  3.976589  0
C  C78  1  0.38081690  0.45346819  0.90476149  1  0  -0.12172  0  3.744107  0  0  -0.131059  0  3.99371  0  0  -0.140282  0  4.017849  0  0.044971  0  -0.081829  -0.12522  0  3.977454  0
C  C79  1  0.92734836  0.54644266  0.59520638  1  0  -0.120264  0  3.743635  0  0  -0.130021  0  3.992928  0  0  -0.139199  0  4.01709  0  -0.007412  0  -0.081969  -0.124173  0  3.976688  0
C  C80  1  0.54443510  0.74581440  0.29015495  1  0  0.119199  0  3.700688  0  0  0.090574  0  3.943093  0  0  0.096983  0  3.96208  0  0.410839  0  0.046568  0.086194  0  3.930458  0
C  C81  1  0.79857489  0.25420600  0.20978555  1  0  0.118808  0  3.702812  0  0  0.089813  0  3.944833  0  0  0.096256  0  3.963893  0  0.439178  0  0.046091  0.085425  0  3.932085  0
C  C82  1  0.45556637  0.25418683  0.70984580  1  0  0.119171  0  3.700698  0  0  0.090532  0  3.943092  0  0  0.09694  0  3.962079  0  0.410419  0  0.046545  0.086155  0  3.93045  0
C  C83  1  0.20142598  0.74579614  0.79021290  1  0  0.118905  0  3.702727  0  0  0.08991  0  3.94472  0  0  0.096353  0  3.963779  0  0.439254  0  0.046141  0.085521  0  3.931977  0
C  C84  1  0.70807336  0.92906272  0.74466629  1  0  0.545779  0  3.961005  0  0  0.503075  0  4.270973  0  0  0.532514  0  4.262693  0  1.535939  0  0.206044  0.483092  0  4.275636  0
C  C85  1  0.77907924  0.07099421  0.75534967  1  0  0.543055  0  3.963007  0  0  0.500755  0  4.27253  0  0  0.530145  0  4.26434  0  1.645282  0  0.205467  0.480779  0  4.277175  0
C  C86  1  0.29192673  0.07093577  0.25533305  1  0  0.545777  0  3.961173  0  0  0.503067  0  4.271151  0  0  0.532507  0  4.26287  0  1.535923  0  0.206041  0.483082  0  4.275813  0
C  C87  1  0.22092086  0.92900429  0.24464670  1  0  0.54303  0  3.963093  0  0  0.500726  0  4.272635  0  0  0.530116  0  4.264445  0  1.64529  0  0.205489  0.480755  0  4.27727  0
C  C88  1  0.80048397  0.80186933  0.26203651  1  0  0.114857  0  3.672212  0  0  0.08536  0  3.915797  0  0  0.091176  0  3.935083  0  0.414591  0  0.047914  0.081477  0  3.902789  0
C  C89  1  0.99847737  0.19810360  0.23791441  1  0  0.116106  0  3.66885  0  0  0.086617  0  3.912283  0  0  0.092431  0  3.931533  0  0.400721  0  0.048357  0.082731  0  3.899313  0
C  C90  1  0.19951704  0.19813099  0.73796417  1  0  0.114889  0  3.672245  0  0  0.085379  0  3.915829  0  0  0.091193  0  3.935118  0  0.414235  0  0.047906  0.081497  0  3.902815  0
C  C91  1  0.00152364  0.80189672  0.76208568  1  0  0.11619  0  3.668783  0  0  0.086688  0  3.912229  0  0  0.092502  0  3.931477  0  0.400743  0  0.048398  0.082803  0  3.899257  0
C  C92  1  0.03406273  0.06975345  0.01196582  1  0  0.55753  0  3.944362  0  0  0.51056  0  4.246927  0  0  0.541219  0  4.237593  0  1.579295  0  0.205289  0.489667  0  4.25241  0
C  C93  1  0.96432582  0.93023500  0.48804163  1  0  0.557696  0  3.94541  0  0  0.510741  0  4.247734  0  0  0.541425  0  4.23843  0  1.623102  0  0.205781  0.489889  0  4.253229  0
C  C94  1  0.96593856  0.93024322  0.98803457  1  0  0.557403  0  3.944537  0  0  0.51055  0  4.246961  0  0  0.54122  0  4.237616  0  1.608501  0  0.205331  0.489657  0  4.252443  0
C  C95  1  0.03566829  0.06976623  0.51195913  1  0  0.55774  0  3.945691  0  0  0.510709  0  4.24809  0  0  0.541395  0  4.238786  0  1.592866  0  0.20576  0.489858  0  4.253584  0
N  N96  1  0.68222275  0.74437096  0.30738812  1  0  -0.297399  0  3.375889  0  0  -0.208404  0  3.66246  0  0  -0.226612  0  3.677765  0  -1.181608  0  -0.348595  -0.196027  0  3.651803  0
N  N97  1  0.93778590  0.25563027  0.19255499  1  0  -0.298219  0  3.375395  0  0  -0.208982  0  3.66196  0  0  -0.227163  0  3.677191  0  -1.196619  0  -0.348815  -0.196628  0  3.651327  0
N  N98  1  0.31777721  0.25562936  0.69261196  1  0  -0.297413  0  3.375905  0  0  -0.208396  0  3.662455  0  0  -0.226602  0  3.677762  0  -1.181048  0  -0.348585  -0.19602  0  3.651798  0
N  N99  1  0.06221511  0.74437005  0.80744391  1  0  -0.298333  0  3.375393  0  0  -0.209065  0  3.661935  0  0  -0.227244  0  3.677163  0  -1.196487  0  -0.348873  -0.196711  0  3.651303  0
N  N100  1  0.80709064  0.56930761  0.99599315  1  0  -0.293717  0  3.365123  0  0  -0.200983  0  3.644316  0  0  -0.22158  0  3.660707  0  -1.210967  0  -0.345921  -0.187017  0  3.632564  0
N  N101  1  0.23783820  0.43072557  0.50398049  1  0  -0.294673  0  3.365236  0  0  -0.201519  0  3.643773  0  0  -0.222189  0  3.660278  0  -1.200443  0  -0.346066  -0.187543  0  3.632035  0
N  N102  1  0.19291142  0.43069270  0.00400694  1  0  -0.293733  0  3.365158  0  0  -0.201  0  3.644356  0  0  -0.221598  0  3.66075  0  -1.210972  0  -0.345935  -0.187034  0  3.632605  0
N  N103  1  0.76216176  0.56927475  0.49601960  1  0  -0.294709  0  3.365303  0  0  -0.201544  0  3.643835  0  0  -0.222215  0  3.660341  0  -1.200446  0  -0.346059  -0.187555  0  3.632086  0
O  O104  1  0.66599298  0.87814884  0.80731572  1  0  -0.640124  0  2.02999  0  0  -0.604551  0  2.272945  0  0  -0.627476  0  2.262387  0  -1.17983  0  -0.36869  -0.588152  0  2.279813  0
O  O105  1  0.78779736  0.12191812  0.69271473  1  0  -0.639186  0  2.030535  0  0  -0.603562  0  2.273333  0  0  -0.626526  0  2.262823  0  -1.180161  0  -0.368313  -0.587163  0  2.28018  0
O  O106  1  0.33400397  0.12184965  0.19268719  1  0  -0.640102  0  2.030211  0  0  -0.604523  0  2.273178  0  0  -0.627449  0  2.262616  0  -1.179822  0  -0.368691  -0.588122  0  2.280047  0
O  O107  1  0.21220228  0.87807946  0.30728632  1  0  -0.639153  0  2.030419  0  0  -0.603525  0  2.273216  0  0  -0.626492  0  2.262708  0  -1.180129  0  -0.368331  -0.58713  0  2.280058  0
O  O108  1  0.72903691  0.98218147  0.07350959  1  0  -0.699839  0  2.034105  0  0  -0.658011  0  2.281297  0  0  -0.6852  0  2.273362  0  -1.185684  0  -0.363701  -0.638685  0  2.28635  0
O  O109  1  0.74673198  0.01762256  0.42636404  1  0  -0.700436  0  2.03445  0  0  -0.657567  0  2.282047  0  0  -0.684791  0  2.274188  0  -1.190344  0  -0.363143  -0.638243  0  2.287029  0
O  O110  1  0.27096516  0.01781885  0.92649109  1  0  -0.699829  0  2.034233  0  0  -0.657948  0  2.281425  0  0  -0.685146  0  2.273507  0  -1.185673  0  -0.363664  -0.638618  0  2.286467  0
O  O111  1  0.25326574  0.98237959  0.57363500  1  0  -0.700428  0  2.034213  0  0  -0.657554  0  2.281778  0  0  -0.684771  0  2.273939  0  -1.190375  0  -0.363125  -0.638234  0  2.286756  0
O  O112  1  0.96854403  0.12891985  0.98067272  1  0  -0.645381  0  2.118336  0  0  -0.590274  0  2.376393  0  0  -0.616587  0  2.365197  0  -1.165789  0  -0.366693  -0.571492  0  2.383651  0
O  O113  1  0.83965559  0.87103299  0.51932173  1  0  -0.645068  0  2.118727  0  0  -0.589961  0  2.377048  0  0  -0.616374  0  2.365978  0  -1.171886  0  -0.366687  -0.57121  0  2.384235  0
O  O114  1  0.03145396  0.87107864  0.01932662  1  0  -0.645291  0  2.118582  0  0  -0.590196  0  2.376568  0  0  -0.616512  0  2.365367  0  -1.165866  0  -0.366653  -0.571412  0  2.383825  0
O  O115  1  0.16034456  0.12897189  0.48067873  1  0  -0.645111  0  2.11873  0  0  -0.589983  0  2.377083  0  0  -0.616399  0  2.366014  0  -1.171849  0  -0.366693  -0.571234  0  2.384267  0
O  O116  1  0.72826354  0.20440050  0.99558347  1  0  -0.704973  0  2.053213  0  0  -0.661916  0  2.315278  0  0  -0.687895  0  2.302329  0  -1.184109  0  -0.374657  -0.643297  0  2.323699  0
O  O117  1  0.52374279  0.79561808  0.50455299  1  0  -0.705751  0  2.053814  0  0  -0.662275  0  2.31526  0  0  -0.688351  0  2.302478  0  -1.182793  0  -0.37503  -0.643603  0  2.323547  0
O  O118  1  0.27174076  0.79559799  0.00441765  1  0  -0.704944  0  2.053298  0  0  -0.661912  0  2.315351  0  0  -0.687898  0  2.302414  0  -1.184236  0  -0.374633  -0.643287  0  2.32376  0
O  O119  1  0.47625087  0.20438224  0.49544353  1  0  -0.705713  0  2.053594  0  0  -0.662219  0  2.315093  0  0  -0.688304  0  2.302317  0  -1.18277  0  -0.374946  -0.643546  0  2.323373  0
O  O120  1  0.49591892  0.16849438  0.04568328  1  0  -0.717603  0  2.103419  0  0  -0.676445  0  2.364923  0  0  -0.702927  0  2.353506  0  -1.202251  0  -0.390166  -0.657356  0  2.372221  0
O  O121  1  0.32740180  0.83155890  0.45436389  1  0  -0.717259  0  2.102318  0  0  -0.675803  0  2.363685  0  0  -0.702328  0  2.352316  0  -1.197702  0  -0.390279  -0.65668  0  2.370919  0
O  O122  1  0.50408780  0.83150685  0.95431985  1  0  -0.717749  0  2.103245  0  0  -0.676627  0  2.364724  0  0  -0.703104  0  2.3533  0  -1.202307  0  -0.390277  -0.657541  0  2.37202  0
O  O123  1  0.67259153  0.16843868  0.54563360  1  0  -0.717185  0  2.102514  0  0  -0.675696  0  2.36391  0  0  -0.702217  0  2.352541  0  -1.197966  0  -0.390238  -0.656572  0  2.371147  0
O  O124  1  0.49873748  0.95864729  0.12164643  1  0  -0.734762  0  2.096215  0  0  -0.694594  0  2.353745  0  0  -0.722174  0  2.344889  0  -1.20079  0  -0.387928  -0.674793  0  2.359347  0
O  O125  1  0.53988999  0.04105539  0.37825939  1  0  -0.736057  0  2.095793  0  0  -0.694813  0  2.35388  0  0  -0.722445  0  2.345061  0  -1.191983  0  -0.388743  -0.675116  0  2.359582  0
O  O126  1  0.50126472  0.04135120  0.87835350  1  0  -0.73478  0  2.09602  0  0  -0.694581  0  2.353542  0  0  -0.722157  0  2.344685  0  -1.200794  0  -0.387929  -0.674777  0  2.359123  0
O  O127  1  0.46010577  0.95894492  0.62173772  1  0  -0.736051  0  2.095913  0  0  -0.694835  0  2.354031  0  0  -0.722451  0  2.345225  0  -1.192083  0  -0.388771  -0.675136  0  2.359737  0
O  O128  1  0.69759770  0.87583624  0.67403211  1  0  -0.656062  0  2.012282  0  0  -0.620929  0  2.250155  0  0  -0.643405  0  2.238651  0  -1.180417  0  -0.385467  -0.60483  0  2.257747  0
O  O129  1  0.82180543  0.12421886  0.82598609  1  0  -0.655029  0  2.012358  0  0  -0.620193  0  2.249904  0  0  -0.642603  0  2.238444  0  -1.179638  0  -0.385461  -0.604092  0  2.257456  0
O  O130  1  0.30239911  0.12416408  0.32596798  1  0  -0.656058  0  2.012234  0  0  -0.620924  0  2.250118  0  0  -0.6434  0  2.238608  0  -1.180366  0  -0.385468  -0.604828  0  2.257708  0
O  O131  1  0.17819558  0.87578146  0.17401459  1  0  -0.655057  0  2.01258  0  0  -0.620209  0  2.250138  0  0  -0.642618  0  2.238671  0  -1.179717  0  -0.38547  -0.604108  0  2.257687  0
O  O132  1  0.14892933  0.11538567  0.06089178  1  0  -0.65489  0  2.059955  0  0  -0.615966  0  2.314698  0  0  -0.640501  0  2.303781  0  -1.172521  0  -0.367934  -0.598377  0  2.321843  0
O  O133  1  0.03358589  0.88464112  0.43909024  1  0  -0.655641  0  2.061117  0  0  -0.616406  0  2.315875  0  0  -0.641075  0  2.305077  0  -1.17998  0  -0.36858  -0.599016  0  2.322949  0
O  O134  1  0.85106579  0.88460917  0.93910786  1  0  -0.654908  0  2.059854  0  0  -0.616031  0  2.314559  0  0  -0.640568  0  2.303641  0  -1.172427  0  -0.368001  -0.598444  0  2.321702  0
O  O135  1  0.96641964  0.11536193  0.56090590  1  0  -0.655572  0  2.061374  0  0  -0.616327  0  2.316191  0  0  -0.640978  0  2.305361  0  -1.180063  0  -0.368491  -0.598936  0  2.323265  0
