# generated using pymatgen
data_CsH3C3SN2O3
_symmetry_space_group_name_H-M   'P 1'
_cell_length_a   8.13140836
_cell_length_b   8.89759018
_cell_length_c   9.76417834
_cell_angle_alpha   91.47900873
_cell_angle_beta   89.99995900
_cell_angle_gamma   89.99994096
_symmetry_Int_Tables_number   1
_chemical_formula_structural   CsH3C3SN2O3
_chemical_formula_sum   'Cs4 H12 C12 S4 N8 O12'
_cell_volume   706.20235817
_cell_formula_units_Z   4
loop_
 _symmetry_equiv_pos_site_id
 _symmetry_equiv_pos_as_xyz
  1  'x, y, z'
loop_
 _atom_site_type_symbol
 _atom_site_label
 _atom_site_symmetry_multiplicity
 _atom_site_fract_x
 _atom_site_fract_y
 _atom_site_fract_z
 _atom_site_occupancy
 _atom_site_pbe_bader_spin_density
 _atom_site_pbe_cm5_charge
 _atom_site_pbe_ddec_charge
 _atom_site_pbe_ddec_spin_density
 _atom_site_pbe_ddec_sum_bond_order
 _atom_site_pbe_magmom
Cs  Cs0  1  0.16848923  0.90794615  0.31347059  1  0  0.913573  0.892036  0  0.839002  0
Cs  Cs1  1  0.66848800  0.09205289  0.18652885  1  0  0.913576  0.892026  0  0.839022  0
Cs  Cs2  1  0.83151244  0.09205358  0.68652895  1  0  0.913576  0.892033  0  0.83901  0
Cs  Cs3  1  0.33151121  0.90794685  0.81346966  1  0  0.913583  0.892035  0  0.839016  0
H  H4  1  0.98259700  0.34211555  0.28695208  1  0  0.324379  0.27229  0  0.992156  0
H  H5  1  0.48259983  0.65788543  0.21304620  1  0  0.324374  0.27227  0  0.992141  0
H  H6  1  0.01740222  0.65788306  0.71304641  1  0  0.324392  0.2723  0  0.992125  0
H  H7  1  0.51740062  0.34211543  0.78695337  1  0  0.32437  0.272301  0  0.992136  0
H  H8  1  0.93902876  0.62431543  0.25024318  1  0  0.126942  0.121424  0  1.044362  0
H  H9  1  0.43903187  0.37568785  0.24975928  1  0  0.126958  0.121418  0  1.044339  0
H  H10  1  0.06097046  0.37568431  0.74975841  1  0  0.126955  0.12145  0  1.044332  0
H  H11  1  0.56096735  0.62431414  0.75024134  1  0  0.126955  0.121419  0  1.04432  0
H  H12  1  0.62501178  0.44826978  0.56666158  1  0  0.11817  0.100978  0  1.043127  0
H  H13  1  0.12501208  0.55172523  0.93334009  1  0  0.11819  0.101022  0  1.04309  0
H  H14  1  0.37498867  0.55172771  0.43333995  1  0  0.118178  0.101008  0  1.043112  0
H  H15  1  0.87499083  0.44827450  0.06665637  1  0  0.1182  0.10105  0  1.043122  0
C  C16  1  0.87826192  0.55965452  0.32807841  1  0  0.024845  -0.015214  0  3.917973  0
C  C17  1  0.37826380  0.44034656  0.17192301  1  0  0.024822  -0.015248  0  3.917928  0
C  C18  1  0.12174222  0.44034521  0.67192318  1  0  0.024809  -0.01531  0  3.918019  0
C  C19  1  0.62173665  0.55965430  0.82807758  1  0  0.024812  -0.015273  0  3.917998  0
C  C20  1  0.75509131  0.60054510  0.42085721  1  0  -0.045321  -0.211411  0  4.017156  0
C  C21  1  0.25509577  0.39945385  0.07914218  1  0  -0.045321  -0.211423  0  4.017126  0
C  C22  1  0.24490913  0.39945238  0.57914125  1  0  -0.045312  -0.211352  0  4.017154  0
C  C23  1  0.74490590  0.60054813  0.92085741  1  0  -0.045332  -0.211366  0  4.017159  0
C  C24  1  0.71569966  0.46633738  0.48767636  1  0  0.012739  -0.014834  0  4.032106  0
C  C25  1  0.21570034  0.53366161  0.01232510  1  0  0.012765  -0.014818  0  4.032205  0
C  C26  1  0.28429833  0.53366235  0.51232215  1  0  0.012758  -0.014899  0  4.032252  0
C  C27  1  0.78429888  0.46633925  0.98767446  1  0  0.012737  -0.014936  0  4.032312  0
S  S28  1  0.66981200  0.78086580  0.44409040  1  0  0.478063  1.231157  0  6.239985  0
S  S29  1  0.16981422  0.21913323  0.05591109  1  0  0.478042  1.231222  0  6.240146  0
S  S30  1  0.33018845  0.21913506  0.55591019  1  0  0.478033  1.231132  0  6.240085  0
S  S31  1  0.83018376  0.78086763  0.94409052  1  0  0.478006  1.231045  0  6.240307  0
N  N32  1  0.80793592  0.35142254  0.44060880  1  0  -0.315127  -0.266213  0  3.252568  0
N  N33  1  0.30793520  0.64857748  0.05938956  1  0  -0.315171  -0.266268  0  3.252551  0
N  N34  1  0.19206453  0.64857607  0.55938866  1  0  -0.315166  -0.266204  0  3.252582  0
N  N35  1  0.69206648  0.35142450  0.94060901  1  0  -0.31515  -0.266188  0  3.252594  0
N  N36  1  0.90641456  0.41203503  0.34475931  1  0  -0.293365  -0.077415  0  3.749699  0
N  N37  1  0.40641628  0.58796490  0.15524104  1  0  -0.293361  -0.077346  0  3.749545  0
N  N38  1  0.09358835  0.58796470  0.65524330  1  0  -0.293346  -0.077376  0  3.749573  0
N  N39  1  0.59358539  0.41203596  0.84475853  1  0  -0.293341  -0.077379  0  3.749644  0
O  O40  1  0.54179116  0.79520347  0.33660207  1  0  -0.437809  -0.681509  0  2.257621  0
O  O41  1  0.04179700  0.20479344  0.16340047  1  0  -0.437764  -0.681507  0  2.257729  0
O  O42  1  0.45820928  0.20479626  0.66339747  1  0  -0.437819  -0.681522  0  2.257692  0
O  O43  1  0.95820098  0.79521080  0.83660020  1  0  -0.437766  -0.681469  0  2.257753  0
O  O44  1  0.80525712  0.88775969  0.42348900  1  0  -0.511908  -0.70575  0  2.262911  0
O  O45  1  0.30526068  0.11223921  0.07650831  1  0  -0.511947  -0.705806  0  2.262842  0
O  O46  1  0.19474333  0.11224004  0.57651156  1  0  -0.511906  -0.705741  0  2.262845  0
O  O47  1  0.69473731  0.88776052  0.92349328  1  0  -0.511961  -0.70577  0  2.26289  0
O  O48  1  0.60080421  0.78769711  0.58251411  1  0  -0.395184  -0.645539  0  2.219155  0
O  O49  1  0.10080614  0.21230692  0.91748882  1  0  -0.395155  -0.645544  0  2.219314  0
O  O50  1  0.39919377  0.21230487  0.41748650  1  0  -0.395151  -0.645516  0  2.219184  0
O  O51  1  0.89919431  0.78769282  0.08251174  1  0  -0.395119  -0.645469  0  2.219289  0
