# generated using pymatgen
data_CdH11C12N2ClO4
_symmetry_space_group_name_H-M   'P 1'
_cell_length_a   7.23568211
_cell_length_b   12.92990129
_cell_length_c   13.49218434
_cell_angle_alpha   90.00009080
_cell_angle_beta   90.00049519
_cell_angle_gamma   90.67351486
_symmetry_Int_Tables_number   1
_chemical_formula_structural   CdH11C12N2ClO4
_chemical_formula_sum   'Cd4 H44 C48 N8 Cl4 O16'
_cell_volume   1262.19643069
_cell_formula_units_Z   4
loop_
 _symmetry_equiv_pos_site_id
 _symmetry_equiv_pos_as_xyz
  1  'x, y, z'
loop_
 _atom_site_type_symbol
 _atom_site_label
 _atom_site_symmetry_multiplicity
 _atom_site_fract_x
 _atom_site_fract_y
 _atom_site_fract_z
 _atom_site_occupancy
 _atom_site_hle17_bader_spin_density
 _atom_site_hle17_ddec_charge
 _atom_site_hle17_ddec_spin_density
 _atom_site_hle17_ddec_sum_bond_order
 _atom_site_hle17_magmom
 _atom_site_hse06_10hf_bader_spin_density
 _atom_site_hse06_10hf_ddec_charge
 _atom_site_hse06_10hf_ddec_spin_density
 _atom_site_hse06_10hf_ddec_sum_bond_order
 _atom_site_hse06_10hf_magmom
 _atom_site_hse06_bader_spin_density
 _atom_site_hse06_ddec_charge
 _atom_site_hse06_ddec_spin_density
 _atom_site_hse06_ddec_sum_bond_order
 _atom_site_hse06_magmom
 _atom_site_pbe_bader_spin_density
 _atom_site_pbe_cm5_charge
 _atom_site_pbe_ddec_charge
 _atom_site_pbe_ddec_spin_density
 _atom_site_pbe_ddec_sum_bond_order
 _atom_site_pbe_magmom
Cd  Cd0  1  0.86234154  0.41306289  0.05300710  1  0  1.148151  0  1.755975  0  0  0.978487  0  2.230343  0  0  1.036681  0  2.167137  0  0  0.702418  0.937351  0  2.273456  0
Cd  Cd1  1  0.63766040  0.08693642  0.55300616  1  0  1.148226  0  1.755875  0  0  0.978533  0  2.230234  0  0  1.036731  0  2.167026  0  0  0.702451  0.937394  0  2.273354  0
Cd  Cd2  1  0.13765990  0.58693936  0.94699421  1  0  1.14822  0  1.755814  0  0  0.978522  0  2.230153  0  0  1.036716  0  2.166949  0  0  0.702474  0.937389  0  2.273273  0
Cd  Cd3  1  0.36233963  0.91306350  0.44699145  1  0  1.14825  0  1.755726  0  0  0.978579  0  2.230066  0  0  1.036773  0  2.166859  0  0  0.7025  0.937445  0  2.27319  0
H  H4  1  0.10510183  0.84341570  0.93285652  1  0  0.110399  0  0.979036  0  0  0.115793  0  1.049172  0  0  0.11935  0  1.046255  0  0  0.097683  0.113157  0  1.051452  0
H  H5  1  0.39489744  0.65658482  0.43286018  1  0  0.110403  0  0.979079  0  0  0.115759  0  1.049241  0  0  0.119315  0  1.046322  0  0  0.097658  0.113123  0  1.05152  0
H  H6  1  0.89489823  0.15658655  0.06714405  1  0  0.110478  0  0.978948  0  0  0.115813  0  1.049135  0  0  0.11937  0  1.046219  0  0  0.097685  0.113179  0  1.051409  0
H  H7  1  0.60510119  0.34341355  0.56714039  1  0  0.110443  0  0.979035  0  0  0.1158  0  1.049202  0  0  0.119357  0  1.046286  0  0  0.097666  0.113165  0  1.051479  0
H  H8  1  0.16812547  0.82109689  0.11249949  1  0  0.102905  0  0.948727  0  0  0.111086  0  1.012835  0  0  0.11412  0  1.011633  0  0  0.095977  0.108822  0  1.013911  0
H  H9  1  0.33187286  0.67890540  0.61250183  1  0  0.102912  0  0.94862  0  0  0.111051  0  1.012776  0  0  0.114085  0  1.011572  0  0  0.095967  0.108785  0  1.013856  0
H  H10  1  0.83187322  0.17890612  0.88750182  1  0  0.102903  0  0.948692  0  0  0.111089  0  1.012803  0  0  0.114124  0  1.011601  0  0  0.095965  0.108826  0  1.013876  0
H  H11  1  0.66812440  0.32109452  0.38749874  1  0  0.102919  0  0.948634  0  0  0.111129  0  1.012718  0  0  0.11415  0  1.011529  0  0  0.096  0.108864  0  1.013797  0
H  H12  1  0.32027120  0.95866546  0.21016835  1  0  0.097388  0  0.989546  0  0  0.103399  0  1.059886  0  0  0.106505  0  1.058019  0  0  0.090691  0.101045  0  1.06144  0
H  H13  1  0.17973005  0.54133546  0.71016976  1  0  0.097404  0  0.989486  0  0  0.103414  0  1.059819  0  0  0.106516  0  1.05796  0  0  0.090697  0.101063  0  1.061375  0
H  H14  1  0.67972886  0.04133678  0.78983074  1  0  0.09744  0  0.98947  0  0  0.103431  0  1.05983  0  0  0.106537  0  1.057961  0  0  0.090717  0.101073  0  1.061398  0
H  H15  1  0.82026858  0.45866369  0.28983007  1  0  0.097431  0  0.989472  0  0  0.103434  0  1.059818  0  0  0.106539  0  1.057952  0  0  0.090711  0.101084  0  1.06137  0
H  H16  1  0.40895662  0.12807595  0.13297878  1  0  0.111765  0  0.9575  0  0  0.120909  0  1.019336  0  0  0.123571  0  1.01837  0  0  0.103337  0.118915  0  1.020175  0
H  H17  1  0.09104483  0.37192424  0.63298029  1  0  0.111798  0  0.957479  0  0  0.120976  0  1.019265  0  0  0.123641  0  1.018297  0  0  0.103349  0.11898  0  1.020104  0
H  H18  1  0.59104759  0.87192631  0.86701956  1  0  0.111776  0  0.957434  0  0  0.12095  0  1.019235  0  0  0.123616  0  1.018266  0  0  0.10334  0.118956  0  1.020075  0
H  H19  1  0.90895241  0.62807413  0.36702028  1  0  0.111764  0  0.957383  0  0  0.120937  0  1.019188  0  0  0.123604  0  1.018219  0  0  0.103331  0.118942  0  1.020026  0
H  H20  1  0.19623789  0.17734429  0.68667147  1  0  0.147873  0  0.952276  0  0  0.164737  0  1.012893  0  0  0.166886  0  1.012564  0  0  0.102482  0.163149  0  1.013236  0
H  H21  1  0.30375892  0.32265830  0.18667274  1  0  0.147908  0  0.952234  0  0  0.164777  0  1.012837  0  0  0.166926  0  1.012507  0  0  0.102478  0.16319  0  1.013176  0
H  H22  1  0.80376077  0.82265640  0.31332762  1  0  0.147872  0  0.952297  0  0  0.164741  0  1.012909  0  0  0.16689  0  1.012579  0  0  0.102477  0.163156  0  1.013248  0
H  H23  1  0.69623697  0.67734239  0.81332709  1  0  0.14786  0  0.952272  0  0  0.164757  0  1.012858  0  0  0.166905  0  1.012529  0  0  0.102487  0.163174  0  1.01319  0
H  H24  1  0.20133751  0.28134171  0.77264356  1  0  0.144553  0  0.921163  0  0  0.167188  0  0.972835  0  0  0.169596  0  0.97183  0  0  0.108543  0.165453  0  0.973599  0
H  H25  1  0.29865928  0.21866026  0.27264390  1  0  0.144629  0  0.921116  0  0  0.167261  0  0.972788  0  0  0.169669  0  0.971781  0  0  0.108568  0.165521  0  0.973559  0
H  H26  1  0.79866114  0.71865899  0.22735701  1  0  0.144574  0  0.921168  0  0  0.167212  0  0.972836  0  0  0.169619  0  0.971833  0  0  0.108552  0.165476  0  0.973602  0
H  H27  1  0.70133659  0.78133889  0.72735445  1  0  0.144585  0  0.921164  0  0  0.167232  0  0.972836  0  0  0.169641  0  0.971829  0  0  0.108558  0.165492  0  0.973608  0
H  H28  1  0.41255367  0.22812218  0.72768168  1  0  0.147065  0  0.934736  0  0  0.163244  0  1.001044  0  0  0.166414  0  0.998874  0  0  0.104787  0.160933  0  1.002698  0
H  H29  1  0.08744240  0.27187971  0.22768112  1  0  0.147095  0  0.934699  0  0  0.163267  0  1.001011  0  0  0.166436  0  0.998839  0  0  0.104771  0.160954  0  1.002667  0
H  H30  1  0.58744636  0.77187852  0.27231815  1  0  0.147082  0  0.934713  0  0  0.163266  0  1.001019  0  0  0.166435  0  0.998849  0  0  0.10479  0.160955  0  1.002673  0
H  H31  1  0.91255212  0.72812175  0.77232020  1  0  0.14709  0  0.934711  0  0  0.163273  0  1.001037  0  0  0.166443  0  0.998868  0  0  0.104791  0.160963  0  1.002689  0
H  H32  1  0.48334251  0.25768010  0.01988321  1  0  0.117962  0  0.950533  0  0  0.126335  0  1.018344  0  0  0.129131  0  1.016691  0  0  0.111695  0.124289  0  1.019649  0
H  H33  1  0.01665577  0.24232144  0.51988269  1  0  0.118008  0  0.950443  0  0  0.126327  0  1.0183  0  0  0.12912  0  1.016649  0  0  0.111704  0.124282  0  1.019606  0
H  H34  1  0.51666029  0.74232060  0.98011588  1  0  0.117934  0  0.950517  0  0  0.126308  0  1.018336  0  0  0.129103  0  1.016684  0  0  0.111696  0.124263  0  1.019642  0
H  H35  1  0.98333460  0.75767924  0.48011566  1  0  0.117942  0  0.950505  0  0  0.126316  0  1.018315  0  0  0.12911  0  1.016666  0  0  0.111696  0.124272  0  1.019621  0
H  H36  1  0.50035675  0.29074012  0.89386259  1  0  0.127359  0  0.943777  0  0  0.13685  0  1.005391  0  0  0.139861  0  1.003551  0  0  0.119378  0.134562  0  1.00696  0
H  H37  1  0.99963961  0.20926208  0.39386164  1  0  0.127319  0  0.943789  0  0  0.13677  0  1.005437  0  0  0.139796  0  1.003577  0  0  0.119361  0.134483  0  1.007005  0
H  H38  1  0.49964195  0.70926367  0.10613650  1  0  0.12731  0  0.94383  0  0  0.136811  0  1.005433  0  0  0.13982  0  1.003595  0  0  0.119366  0.134527  0  1.007  0
H  H39  1  0.00035489  0.79073784  0.60613523  1  0  0.127354  0  0.943814  0  0  0.136822  0  1.005434  0  0  0.139855  0  1.003569  0  0  0.119397  0.134537  0  1.007002  0
H  H40  1  0.09648155  0.90224434  0.77740655  1  0  0.119748  0  0.924059  0  0  0.131336  0  0.986112  0  0  0.133701  0  0.984533  0  0  0.122434  0.12964  0  0.987324  0
H  H41  1  0.40352355  0.59775670  0.27741164  1  0  0.11978  0  0.924048  0  0  0.131378  0  0.986086  0  0  0.133734  0  0.984504  0  0  0.122464  0.129685  0  0.987294  0
H  H42  1  0.90352127  0.09775713  0.22259032  1  0  0.119775  0  0.924123  0  0  0.131367  0  0.986159  0  0  0.133749  0  0.984589  0  0  0.122471  0.12967  0  0.987372  0
H  H43  1  0.59648751  0.40224093  0.72259041  1  0  0.119749  0  0.924065  0  0  0.131368  0  0.986139  0  0  0.133748  0  0.984568  0  0  0.122469  0.12967  0  0.987352  0
H  H44  1  0.02508992  0.01614491  0.71568923  1  0  0.121395  0  0.926506  0  0  0.129167  0  0.995266  0  0  0.131584  0  0.993645  0  0  0.118116  0.127379  0  0.996585  0
H  H45  1  0.47491147  0.48385542  0.21569451  1  0  0.121373  0  0.926575  0  0  0.129158  0  0.995334  0  0  0.131566  0  0.99371  0  0  0.118101  0.12737  0  0.996651  0
H  H46  1  0.97491566  0.98385658  0.28430838  1  0  0.121362  0  0.926524  0  0  0.129123  0  0.995316  0  0  0.131557  0  0.993703  0  0  0.118086  0.127334  0  0.996639  0
H  H47  1  0.52509128  0.51614141  0.78430606  1  0  0.121381  0  0.926436  0  0  0.129186  0  0.995223  0  0  0.131616  0  0.993611  0  0  0.118125  0.127397  0  0.996544  0
C  C48  1  0.22223979  0.99951563  0.93265013  1  0  0.099197  0  3.790029  0  0  0.088274  0  4.038249  0  0  0.090923  0  4.061626  0  0  0.096778  0.08647  0  4.022376  0
C  C49  1  0.27776227  0.50048644  0.43265152  1  0  0.099125  0  3.790072  0  0  0.088144  0  4.038326  0  0  0.090811  0  4.061683  0  0  0.096736  0.086349  0  4.022448  0
C  C50  1  0.77776440  0.00048507  0.06734822  1  0  0.099158  0  3.790039  0  0  0.088209  0  4.0383  0  0  0.090881  0  4.061648  0  0  0.096754  0.086405  0  4.022426  0
C  C51  1  0.72223774  0.49951194  0.56734831  1  0  0.099108  0  3.790102  0  0  0.088083  0  4.038391  0  0  0.090753  0  4.061741  0  0  0.096708  0.086287  0  4.022518  0
C  C52  1  0.17045687  0.90526140  0.97515677  1  0  -0.131644  0  3.746888  0  0  -0.15512  0  4.008677  0  0  -0.157152  0  4.028314  0  0  -0.092988  -0.153662  0  3.995381  0
C  C53  1  0.32954308  0.59473996  0.47516002  1  0  -0.131688  0  3.746984  0  0  -0.155103  0  4.008768  0  0  -0.157138  0  4.028396  0  0  -0.092945  -0.153647  0  3.995474  0
C  C54  1  0.82954319  0.09474085  0.02484381  1  0  -0.131606  0  3.746792  0  0  -0.155001  0  4.008569  0  0  -0.157038  0  4.028199  0  0  -0.092947  -0.153542  0  3.995263  0
C  C55  1  0.67045830  0.40525842  0.52484055  1  0  -0.131594  0  3.746849  0  0  -0.155019  0  4.008688  0  0  -0.157057  0  4.028313  0  0  -0.092912  -0.15356  0  3.995389  0
C  C56  1  0.20616525  0.89349123  0.07596886  1  0  -0.059809  0  3.729367  0  0  -0.081236  0  3.997378  0  0  -0.083373  0  4.018605  0  0  -0.09681  -0.079787  0  3.983009  0
C  C57  1  0.29383524  0.60650946  0.57597090  1  0  -0.059771  0  3.729268  0  0  -0.081157  0  3.997257  0  0  -0.083291  0  4.018482  0  0  -0.096833  -0.079713  0  3.982896  0
C  C58  1  0.79383479  0.10650947  0.92403097  1  0  -0.059857  0  3.729367  0  0  -0.081299  0  3.997365  0  0  -0.083435  0  4.018592  0  0  -0.096821  -0.079848  0  3.982986  0
C  C59  1  0.70616340  0.39349046  0.42402893  1  0  -0.059805  0  3.729311  0  0  -0.081241  0  3.997297  0  0  -0.08336  0  4.018522  0  0  -0.096843  -0.079795  0  3.982934  0
C  C60  1  0.29082822  0.97260556  0.13226097  1  0  -0.065034  0  3.749737  0  0  -0.088363  0  4.016569  0  0  -0.089759  0  4.037607  0  0  -0.100056  -0.087316  0  4.002373  0
C  C61  1  0.20917178  0.52739445  0.63226323  1  0  -0.065091  0  3.749661  0  0  -0.088417  0  4.016508  0  0  -0.089815  0  4.037547  0  0  -0.100109  -0.087372  0  4.002301  0
C  C62  1  0.70917321  0.02739591  0.86773812  1  0  -0.065025  0  3.749541  0  0  -0.088348  0  4.016402  0  0  -0.089745  0  4.037442  0  0  -0.100058  -0.087302  0  4.0022  0
C  C63  1  0.79082822  0.47260393  0.36773734  1  0  -0.065086  0  3.749558  0  0  -0.088421  0  4.016436  0  0  -0.089817  0  4.03747  0  0  -0.100067  -0.087376  0  4.002227  0
C  C64  1  0.34043538  0.06731928  0.09022271  1  0  -0.135685  0  3.727495  0  0  -0.153568  0  3.981822  0  0  -0.156453  0  4.001912  0  0  -0.092988  -0.151544  0  3.968161  0
C  C65  1  0.15956679  0.43268239  0.59022389  1  0  -0.13574  0  3.727477  0  0  -0.153656  0  3.981787  0  0  -0.15654  0  4.001866  0  0  -0.092945  -0.15163  0  3.968139  0
C  C66  1  0.65956743  0.93268220  0.90977786  1  0  -0.135777  0  3.727318  0  0  -0.153662  0  3.981666  0  0  -0.156552  0  4.001761  0  0  -0.09301  -0.151639  0  3.968008  0
C  C67  1  0.84043047  0.56731676  0.40977668  1  0  -0.135702  0  3.727258  0  0  -0.153631  0  3.981573  0  0  -0.15652  0  4.00166  0  0  -0.093007  -0.1516  0  3.967916  0
C  C68  1  0.30200996  0.07958625  0.98970634  1  0  0.114664  0  3.796923  0  0  0.101787  0  4.045811  0  0  0.105719  0  4.068103  0  0  0.100506  0.099136  0  4.030706  0
C  C69  1  0.19799305  0.42041532  0.48970726  1  0  0.114719  0  3.796837  0  0  0.101877  0  4.045709  0  0  0.105804  0  4.067998  0  0  0.100499  0.099207  0  4.030627  0
C  C70  1  0.69799283  0.92041368  0.01029349  1  0  0.114765  0  3.796843  0  0  0.101841  0  4.045821  0  0  0.105767  0  4.068112  0  0  0.100529  0.099186  0  4.030724  0
C  C71  1  0.80200697  0.57958383  0.51029331  1  0  0.114712  0  3.796918  0  0  0.10194  0  4.045723  0  0  0.105866  0  4.068013  0  0  0.100553  0.099265  0  4.030654  0
C  C72  1  0.26950542  0.13656844  0.83412438  1  0  0.402346  0  3.571305  0  0  0.363226  0  3.849198  0  0  0.385663  0  3.855695  0  0  0.265948  0.348426  0  3.844364  0
C  C73  1  0.23049374  0.36343363  0.33412537  1  0  0.402325  0  3.571301  0  0  0.363236  0  3.849143  0  0  0.385673  0  3.855645  0  0  0.265963  0.348433  0  3.844306  0
C  C74  1  0.73049463  0.86343303  0.16587619  1  0  0.402372  0  3.571174  0  0  0.363275  0  3.849037  0  0  0.385714  0  3.85553  0  0  0.265964  0.348472  0  3.844211  0
C  C75  1  0.76950627  0.63656475  0.66587446  1  0  0.402351  0  3.571121  0  0  0.363318  0  3.848912  0  0  0.385754  0  3.855408  0  0  0.265967  0.348518  0  3.844083  0
C  C76  1  0.26983485  0.20959974  0.75027886  1  0  -0.398861  0  3.690214  0  0  -0.480146  0  3.932341  0  0  -0.484652  0  3.93508  0  0  -0.228579  -0.476877  0  3.930399  0
C  C77  1  0.23016296  0.29040219  0.25027973  1  0  -0.399048  0  3.690086  0  0  -0.48032  0  3.932184  0  0  -0.484824  0  3.934921  0  0  -0.228602  -0.477051  0  3.930247  0
C  C78  1  0.73016657  0.79040096  0.24972023  1  0  -0.398957  0  3.690218  0  0  -0.480247  0  3.93233  0  0  -0.484752  0  3.935063  0  0  -0.228606  -0.476978  0  3.93039  0
C  C79  1  0.76983291  0.70959696  0.74971936  1  0  -0.398919  0  3.690131  0  0  -0.480264  0  3.932254  0  0  -0.484771  0  3.93499  0  0  -0.228605  -0.476996  0  3.930315  0
C  C80  1  0.40320218  0.26398734  0.95079975  1  0  -0.157227  0  3.600446  0  0  -0.209654  0  3.837538  0  0  -0.211529  0  3.843897  0  0  -0.054971  -0.208263  0  3.833343  0
C  C81  1  0.09679469  0.23601493  0.45079991  1  0  -0.1572  0  3.600427  0  0  -0.209535  0  3.837474  0  0  -0.21141  0  3.843819  0  0  -0.054948  -0.208144  0  3.833276  0
C  C82  1  0.59679785  0.73601259  0.04920008  1  0  -0.157088  0  3.600407  0  0  -0.209505  0  3.837498  0  0  -0.211379  0  3.843858  0  0  -0.05492  -0.208121  0  3.833313  0
C  C83  1  0.90319706  0.76398653  0.54919992  1  0  -0.157151  0  3.600451  0  0  -0.209522  0  3.837523  0  0  -0.211412  0  3.843876  0  0  -0.054922  -0.208133  0  3.833337  0
C  C84  1  0.25163422  0.34451359  0.96711705  1  0  0.689596  0  3.869491  0  0  0.638896  0  4.17285  0  0  0.673458  0  4.166371  0  0  0.209646  0.615394  0  4.176409  0
C  C85  1  0.24836427  0.15548716  0.46711484  1  0  0.689692  0  3.869356  0  0  0.638968  0  4.172737  0  0  0.673526  0  4.166263  0  0  0.209692  0.615484  0  4.176287  0
C  C86  1  0.74837418  0.65549176  0.03288055  1  0  0.6897  0  3.869369  0  0  0.638961  0  4.172808  0  0  0.673523  0  4.166332  0  0  0.209702  0.615434  0  4.176367  0
C  C87  1  0.75162465  0.84450965  0.53287832  1  0  0.689728  0  3.869379  0  0  0.638982  0  4.17281  0  0  0.673542  0  4.166335  0  0  0.209643  0.615467  0  4.176368  0
C  C88  1  0.14364827  0.97797195  0.75075351  1  0  -0.141407  0  3.586309  0  0  -0.198019  0  3.831195  0  0  -0.198469  0  3.836518  0  0  -0.046927  -0.19773  0  3.827782  0
C  C89  1  0.35635501  0.52202904  0.25075678  1  0  -0.141378  0  3.586448  0  0  -0.198009  0  3.831352  0  0  -0.198417  0  3.836631  0  0  -0.04686  -0.197721  0  3.82793  0
C  C90  1  0.85635730  0.02202953  0.24924632  1  0  -0.141433  0  3.586407  0  0  -0.198048  0  3.831408  0  0  -0.198586  0  3.836848  0  0  -0.046963  -0.19776  0  3.827997  0
C  C91  1  0.64365052  0.47796935  0.74924527  1  0  -0.141276  0  3.586096  0  0  -0.198068  0  3.831317  0  0  -0.198596  0  3.836744  0  0  -0.046964  -0.197782  0  3.827906  0
C  C92  1  0.29082032  0.96277963  0.66961650  1  0  0.693481  0  3.869183  0  0  0.640809  0  4.173314  0  0  0.675855  0  4.165917  0  0  0.21199  0.616983  0  4.177498  0
C  C93  1  0.20918173  0.53722586  0.16961985  1  0  0.693503  0  3.869058  0  0  0.640787  0  4.173255  0  0  0.675822  0  4.165857  0  0  0.212016  0.616981  0  4.177432  0
C  C94  1  0.70917828  0.03721719  0.33038037  1  0  0.693737  0  3.868809  0  0  0.64095  0  4.173093  0  0  0.676017  0  4.165691  0  0  0.212119  0.617114  0  4.177265  0
C  C95  1  0.79083220  0.46277951  0.83037776  1  0  0.693675  0  3.868826  0  0  0.640936  0  4.1731  0  0  0.676003  0  4.165699  0  0  0.212143  0.61711  0  4.177284  0
N  N96  1  0.32939291  0.16254086  0.92571609  1  0  -0.121507  0  3.520062  0  0  -0.044347  0  3.740978  0  0  -0.060191  0  3.763832  0  0  -0.227116  -0.033942  0  3.725424  0
N  N97  1  0.17060771  0.33746137  0.42571675  1  0  -0.121486  0  3.520098  0  0  -0.044349  0  3.740948  0  0  -0.0602  0  3.763812  0  0  -0.227095  -0.033936  0  3.725393  0
N  N98  1  0.67060850  0.83745907  0.07428522  1  0  -0.121537  0  3.519993  0  0  -0.04437  0  3.740917  0  0  -0.060213  0  3.763772  0  0  -0.227134  -0.033968  0  3.725374  0
N  N99  1  0.82939369  0.66253778  0.57428382  1  0  -0.121577  0  3.520194  0  0  -0.044462  0  3.741053  0  0  -0.060308  0  3.763916  0  0  -0.227153  -0.034054  0  3.725513  0
N  N100  1  0.20628196  0.03771517  0.83604305  1  0  -0.118763  0  3.485736  0  0  -0.040706  0  3.705917  0  0  -0.056484  0  3.728411  0  0  -0.221507  -0.030322  0  3.690645  0
N  N101  1  0.29371721  0.46228613  0.33604448  1  0  -0.118701  0  3.48575  0  0  -0.040625  0  3.705916  0  0  -0.056421  0  3.728401  0  0  -0.221545  -0.030239  0  3.690634  0
N  N102  1  0.79371947  0.96228630  0.16395678  1  0  -0.11883  0  3.485653  0  0  -0.040753  0  3.705833  0  0  -0.056517  0  3.728346  0  0  -0.22152  -0.03037  0  3.690563  0
N  N103  1  0.70628553  0.53771071  0.66395683  1  0  -0.118846  0  3.48566  0  0  -0.040738  0  3.705893  0  0  -0.056502  0  3.728406  0  0  -0.22153  -0.030352  0  3.690616  0
Cl  Cl104  1  0.69055433  0.29960570  0.16948738  1  0  -0.608394  0  0.831954  0  0  -0.53405  0  1.078954  0  0  -0.554495  0  1.057799  0  0  -0.309421  -0.519308  0  1.093484  0
Cl  Cl105  1  0.80944258  0.20039534  0.66949038  1  0  -0.608423  0  0.831955  0  0  -0.534057  0  1.078947  0  0  -0.554506  0  1.057799  0  0  -0.309417  -0.519307  0  1.093477  0
Cl  Cl106  1  0.30944154  0.70039344  0.83051097  1  0  -0.608373  0  0.831966  0  0  -0.534025  0  1.078961  0  0  -0.554472  0  1.057813  0  0  -0.309403  -0.519283  0  1.093495  0
Cl  Cl107  1  0.19055467  0.79960381  0.33050796  1  0  -0.608388  0  0.831918  0  0  -0.534051  0  1.078915  0  0  -0.554501  0  1.057768  0  0  -0.30941  -0.519303  0  1.093443  0
O  O108  1  0.10254027  0.31190085  0.00626485  1  0  -0.639815  0  2.028041  0  0  -0.574499  0  2.286007  0  0  -0.604787  0  2.276082  0  0  -0.32529  -0.553378  0  2.292057  0
O  O109  1  0.39745779  0.18809989  0.50626380  1  0  -0.639864  0  2.028014  0  0  -0.574528  0  2.285962  0  0  -0.604814  0  2.276035  0  0  -0.325295  -0.553402  0  2.292008  0
O  O110  1  0.89745421  0.68809751  0.99373943  1  0  -0.639881  0  2.028352  0  0  -0.574505  0  2.286276  0  0  -0.60479  0  2.276354  0  0  -0.325289  -0.553362  0  2.292308  0
O  O111  1  0.60253532  0.81189925  0.49374048  1  0  -0.639878  0  2.028148  0  0  -0.574552  0  2.286154  0  0  -0.604836  0  2.276227  0  0  -0.325288  -0.553407  0  2.292188  0
O  O112  1  0.29457099  0.43583041  0.94174994  1  0  -0.631844  0  2.027006  0  0  -0.566953  0  2.282504  0  0  -0.596817  0  2.270749  0  0  -0.323731  -0.546161  0  2.289821  0
O  O113  1  0.20542433  0.06417029  0.44174961  1  0  -0.631908  0  2.02699  0  0  -0.567024  0  2.28251  0  0  -0.596887  0  2.270757  0  0  -0.32374  -0.546238  0  2.28983  0
O  O114  1  0.70542346  0.56416564  0.05825359  1  0  -0.631974  0  2.026736  0  0  -0.567098  0  2.282267  0  0  -0.596966  0  2.270519  0  0  -0.323795  -0.546269  0  2.289551  0
O  O115  1  0.79457019  0.93583117  0.55824948  1  0  -0.631947  0  2.026879  0  0  -0.567065  0  2.282418  0  0  -0.596929  0  2.270665  0  0  -0.323736  -0.546243  0  2.289709  0
O  O116  1  0.24579317  0.89666487  0.60438821  1  0  -0.631085  0  2.03186  0  0  -0.56733  0  2.29035  0  0  -0.597225  0  2.278986  0  0  -0.320946  -0.546365  0  2.297267  0
O  O117  1  0.25421056  0.60333742  0.10439113  1  0  -0.631094  0  2.031757  0  0  -0.567314  0  2.29028  0  0  -0.597202  0  2.27891  0  0  -0.320972  -0.546362  0  2.297205  0
O  O118  1  0.75421247  0.10334125  0.39561162  1  0  -0.631288  0  2.031287  0  0  -0.56744  0  2.289766  0  0  -0.597357  0  2.278444  0  0  -0.321059  -0.546459  0  2.296664  0
O  O119  1  0.74578801  0.39665709  0.89561611  1  0  -0.631301  0  2.031239  0  0  -0.567485  0  2.289758  0  0  -0.597383  0  2.27839  0  0  -0.321092  -0.546522  0  2.296675  0
O  O120  1  0.43445589  0.01911779  0.67268974  1  0  -0.654822  0  2.071266  0  0  -0.58756  0  2.328374  0  0  -0.617657  0  2.318354  0  0  -0.321146  -0.566496  0  2.334419  0
O  O121  1  0.06554624  0.48088556  0.17268865  1  0  -0.654826  0  2.071165  0  0  -0.587592  0  2.328359  0  0  -0.617692  0  2.318349  0  0  -0.321175  -0.566541  0  2.334406  0
O  O122  1  0.56555385  0.98088448  0.32731232  1  0  -0.65483  0  2.071516  0  0  -0.58755  0  2.328697  0  0  -0.61764  0  2.318666  0  0  -0.321137  -0.566478  0  2.334727  0
O  O123  1  0.93444959  0.51911049  0.82731489  1  0  -0.654831  0  2.071667  0  0  -0.587562  0  2.328888  0  0  -0.617651  0  2.318858  0  0  -0.32117  -0.566498  0  2.334923  0
