# generated using pymatgen
data_CoH20C24(NO)4
_symmetry_space_group_name_H-M   'P 1'
_cell_length_a   8.53042435
_cell_length_b   8.17885764
_cell_length_c   9.36225807
_cell_angle_alpha   84.01206330
_cell_angle_beta   79.20653944
_cell_angle_gamma   73.44610608
_symmetry_Int_Tables_number   1
_chemical_formula_structural   CoH20C24(NO)4
_chemical_formula_sum   'Co1 H20 C24 N4 O4'
_cell_volume   614.14448404
_cell_formula_units_Z   1
loop_
 _symmetry_equiv_pos_site_id
 _symmetry_equiv_pos_as_xyz
  1  'x, y, z'
loop_
 _atom_site_type_symbol
 _atom_site_label
 _atom_site_symmetry_multiplicity
 _atom_site_fract_x
 _atom_site_fract_y
 _atom_site_fract_z
 _atom_site_occupancy
 _atom_site_pbe_cm5_charge
 _atom_site_pbe_ddec_charge
 _atom_site_pbe_ddec_spin_density
 _atom_site_pbe_ddec_sum_bond_order
 _atom_site_pbe_magmom
Co  Co0  1  0.49998517  0.99999692  0.99996971  1  0.662899  0.541177  -1.035909  3.1895  -0.935
H  H1  1  0.21515626  0.24105338  0.18330970  1  0.12357  0.098115  0.000156  1.0058  0.0
H  H2  1  0.78481947  0.75892269  0.81664493  1  0.123527  0.098027  0.000156  1.005812  0.0
H  H3  1  0.07467646  0.55411299  0.14643831  1  0.11254  0.11876  -6.1e-05  0.987659  0.0
H  H4  1  0.92531211  0.44587221  0.85354221  1  0.112651  0.11884  -6.1e-05  0.987724  0.0
H  H5  1  0.18598365  0.71852711  0.92702991  1  0.102577  0.098244  0.000391  1.033726  0.0
H  H6  1  0.81403535  0.28148143  0.07298085  1  0.102546  0.098206  0.000391  1.033664  0.0
H  H7  1  0.44163817  0.56120724  0.75824206  1  0.110415  0.117978  8.7e-05  1.017653  0.0
H  H8  1  0.55837861  0.43880512  0.24176764  1  0.110387  0.118038  8.7e-05  1.017632  0.0
H  H9  1  0.87225878  0.88865282  0.02451613  1  0.109258  0.07169  -0.000566  1.03587  -0.001
H  H10  1  0.12773620  0.11128016  0.97553008  1  0.10937  0.071694  -0.000567  1.035931  -0.001
H  H11  1  0.06989448  0.91683556  0.18256873  1  0.104755  0.121753  -0.000372  1.047968  0.0
H  H12  1  0.93011261  0.08313711  0.81745690  1  0.104739  0.121786  -0.000372  1.047763  0.0
H  H13  1  0.64716163  0.18059440  0.48135541  1  0.108648  0.131944  -0.000385  1.016254  0.0
H  H14  1  0.35282720  0.81944714  0.51863271  1  0.108596  0.131782  -0.000385  1.016318  0.0
H  H15  1  0.46569969  0.13495353  0.31433123  1  0.115135  0.081865  -0.000589  0.997281  -0.001
H  H16  1  0.53429712  0.86505355  0.68567156  1  0.115155  0.081883  -0.000589  0.997279  -0.001
H  H17  1  0.93464573  0.19491751  0.49509814  1  0.098481  0.113195  7.2e-05  0.987042  0.0
H  H18  1  0.06535390  0.80511007  0.50490444  1  0.098472  0.11316  7.2e-05  0.987007  0.0
H  H19  1  0.10954517  0.07205370  0.37576664  1  0.092459  0.096195  -2.4e-05  1.014995  0.0
H  H20  1  0.89044550  0.92796741  0.62423267  1  0.092469  0.096179  -2.4e-05  1.015047  0.0
C  C21  1  0.26014129  0.31951846  0.09235427  1  0.045686  0.070249  0.010711  3.910665  0.006
C  C22  1  0.73984493  0.68047566  0.90761941  1  0.04581  0.070424  0.010713  3.91061  0.006
C  C23  1  0.18280902  0.49246477  0.06953839  1  -0.077119  -0.11392  -0.000457  3.980478  -0.002
C  C24  1  0.81717579  0.50752552  0.93044228  1  -0.077278  -0.114036  -0.000459  3.980321  -0.002
C  C25  1  0.24510639  0.58362994  0.94821470  1  -0.073903  -0.042316  0.014399  3.957618  0.008
C  C26  1  0.75488934  0.41636815  0.05177841  1  -0.073871  -0.042274  0.014403  3.957504  0.008
C  C27  1  0.38571462  0.49878800  0.85463252  1  -0.073836  -0.119961  -0.00082  3.94861  -0.002
C  C28  1  0.61429362  0.50121659  0.14536648  1  -0.073824  -0.120034  -0.000821  3.948557  -0.002
C  C29  1  0.45843905  0.32705868  0.88473836  1  0.104906  0.083597  0.011134  3.957011  0.006
C  C30  1  0.54157484  0.67294721  0.11525426  1  0.104994  0.083707  0.011137  3.956964  0.006
C  C31  1  0.61142250  0.22375713  0.79365238  1  0.199795  0.513608  0.004138  4.240727  0.002
C  C32  1  0.38859384  0.77625264  0.20635015  1  0.199746  0.513337  0.004138  4.241323  0.002
C  C33  1  0.82694549  0.95045109  0.12788091  1  0.034329  0.073545  0.002524  3.998152  0.002
C  C34  1  0.17305444  0.04951259  0.87215098  1  0.034309  0.073609  0.002536  3.998086  0.002
C  C35  1  0.93638758  0.96686607  0.21492392  1  -0.091987  -0.20083  -0.002045  3.948268  -0.003
C  C36  1  0.06361784  0.03312193  0.78509309  1  -0.091909  -0.2007  -0.002048  3.948079  -0.003
C  C37  1  0.87381437  0.05250940  0.34429153  1  0.01489  0.178632  0.004113  3.928348  0.003
C  C38  1  0.12618016  0.94751048  0.65571474  1  0.014904  0.178581  0.004128  3.928326  0.003
C  C39  1  0.70103568  0.11311049  0.38146590  1  -0.084726  -0.187336  -0.002259  3.916975  -0.003
C  C40  1  0.29896021  0.88691323  0.61853765  1  -0.084709  -0.187193  -0.002261  3.916654  -0.003
C  C41  1  0.60058002  0.08916554  0.28854541  1  0.041416  0.08459  0.002322  3.977001  0.001
C  C42  1  0.39941573  0.91083644  0.71146337  1  0.041399  0.084546  0.002333  3.976701  0.001
C  C43  1  0.98767068  0.07380926  0.44084920  1  -0.156497  -0.198955  0.00033  3.91558  0.0
C  C44  1  0.01232380  0.92621958  0.55915839  1  -0.156554  -0.199049  0.000329  3.915759  0.0
N  N45  1  0.39507916  0.23764517  0.00072137  1  -0.343223  -0.196444  0.005958  3.687915  0.004
N  N46  1  0.60491687  0.76234775  0.99925828  1  -0.343269  -0.19646  0.005959  3.688039  0.004
N  N47  1  0.66144994  0.01145310  0.16230667  1  -0.317808  -0.234035  -0.037601  3.534962  -0.061
N  N48  1  0.33855238  0.98851954  0.83771974  1  -0.317948  -0.234054  -0.037594  3.535062  -0.061
O  O49  1  0.65505067  0.06308644  0.83924893  1  -0.312464  -0.510852  -8.6e-05  2.41083  -0.002
O  O50  1  0.34496030  0.93692193  0.16072685  1  -0.312565  -0.510892  -9.2e-05  2.410926  -0.002
O  O51  1  0.68689500  0.29001753  0.68732511  1  -0.318756  -0.519935  0.006866  2.105961  0.006
O  O52  1  0.31313994  0.71001158  0.31268113  1  -0.318586  -0.519659  0.006866  2.106668  0.006
