# generated using pymatgen
data_SmH13C19S(NO4)2
_symmetry_space_group_name_H-M   'P 1'
_cell_length_a   8.75003546
_cell_length_b   10.61489857
_cell_length_c   11.03902785
_cell_angle_alpha   81.01991205
_cell_angle_beta   69.21068835
_cell_angle_gamma   88.86416102
_symmetry_Int_Tables_number   1
_chemical_formula_structural   SmH13C19S(NO4)2
_chemical_formula_sum   'Sm2 H26 C38 S2 N4 O16'
_cell_volume   946.10448673
_cell_formula_units_Z   2
loop_
 _symmetry_equiv_pos_site_id
 _symmetry_equiv_pos_as_xyz
  1  'x, y, z'
loop_
 _atom_site_type_symbol
 _atom_site_label
 _atom_site_symmetry_multiplicity
 _atom_site_fract_x
 _atom_site_fract_y
 _atom_site_fract_z
 _atom_site_occupancy
 _atom_site_hle17_bader_spin_density
 _atom_site_hle17_ddec_charge
 _atom_site_hle17_ddec_spin_density
 _atom_site_hle17_ddec_sum_bond_order
 _atom_site_hle17_magmom
 _atom_site_hse06_10hf_bader_spin_density
 _atom_site_hse06_10hf_ddec_charge
 _atom_site_hse06_10hf_ddec_spin_density
 _atom_site_hse06_10hf_ddec_sum_bond_order
 _atom_site_hse06_10hf_magmom
 _atom_site_hse06_bader_spin_density
 _atom_site_hse06_ddec_charge
 _atom_site_hse06_ddec_spin_density
 _atom_site_hse06_ddec_sum_bond_order
 _atom_site_hse06_magmom
 _atom_site_pbe_bader_spin_density
 _atom_site_pbe_cm5_charge
 _atom_site_pbe_ddec_charge
 _atom_site_pbe_ddec_spin_density
 _atom_site_pbe_ddec_sum_bond_order
 _atom_site_pbe_magmom
Sm  Sm0  1  0.15720470  0.07524110  0.19373418  1  0  2.202185  0  1.655745  0  0  2.018332  0  2.150031  0  0  2.064967  0  2.109116  0  0  1.483987  1.983193  0  2.180919  0
Sm  Sm1  1  0.84279786  0.92475218  0.80626083  1  0  2.202112  0  1.655847  0  0  2.018185  0  2.150257  0  0  2.064821  0  2.109336  0  0  1.484008  1.983049  0  2.181136  0
H  H2  1  0.24321566  0.78257999  0.31092832  1  0  0.117869  0  0.970616  0  0  0.126698  0  1.031801  0  0  0.130126  0  1.029271  0  0  0.114783  0.124201  0  1.033618  0
H  H3  1  0.75679103  0.21742285  0.68907222  1  0  0.117884  0  0.970496  0  0  0.126717  0  1.031682  0  0  0.130145  0  1.029151  0  0  0.1148  0.124217  0  1.033502  0
H  H4  1  0.72190141  0.62495114  0.63266534  1  0  0.101246  0  0.974234  0  0  0.110447  0  1.037624  0  0  0.113776  0  1.035164  0  0  0.105665  0.107929  0  1.039606  0
H  H5  1  0.27810286  0.37505264  0.36733031  1  0  0.101244  0  0.974251  0  0  0.110488  0  1.037581  0  0  0.113817  0  1.03512  0  0  0.105698  0.107968  0  1.03956  0
H  H6  1  0.59748706  0.41053520  0.73957785  1  0  0.090742  0  0.945069  0  0  0.105163  0  0.998148  0  0  0.107666  0  0.997877  0  0  0.104211  0.103354  0  0.998545  0
H  H7  1  0.40251962  0.58946764  0.26042088  1  0  0.09075  0  0.945014  0  0  0.105135  0  0.998156  0  0  0.107637  0  0.997881  0  0  0.104205  0.103329  0  0.99855  0
H  H8  1  0.74857499  0.01788848  0.34405941  1  0  0.088479  0  0.968464  0  0  0.093235  0  1.037267  0  0  0.096788  0  1.033533  0  0  0.120037  0.090614  0  1.03997  0
H  H9  1  0.25142071  0.98211435  0.65594696  1  0  0.088494  0  0.968395  0  0  0.093142  0  1.037308  0  0  0.096688  0  1.03358  0  0  0.12005  0.090524  0  1.040015  0
H  H10  1  0.46016408  0.04983032  0.26450332  1  0  0.42726  0  0.831557  0  0  0.405628  0  0.894341  0  0  0.41361  0  0.885364  0  0  0.320123  0.399999  0  0.900688  0
H  H11  1  0.53984035  0.95017635  0.73550271  1  0  0.427347  0  0.831557  0  0  0.405718  0  0.894315  0  0  0.413702  0  0.885336  0  0  0.320159  0.400087  0  0.900666  0
H  H12  1  0.31475689  0.01261392  0.39579745  1  0  0.425329  0  0.840703  0  0  0.398201  0  0.915275  0  0  0.406825  0  0.905052  0  0  0.316427  0.392156  0  0.92236  0
H  H13  1  0.68524632  0.98739274  0.60420802  1  0  0.425381  0  0.840711  0  0  0.39824  0  0.915299  0  0  0.406864  0  0.905075  0  0  0.316439  0.392195  0  0.922383  0
H  H14  1  0.48935347  0.12012154  0.47432594  1  0  0.105108  0  0.979499  0  0  0.114148  0  1.041837  0  0  0.117489  0  1.040446  0  0  0.105015  0.111701  0  1.043045  0
H  H15  1  0.51064348  0.87988223  0.52567450  1  0  0.105113  0  0.979462  0  0  0.114172  0  1.041776  0  0  0.117514  0  1.040385  0  0  0.105026  0.111724  0  1.042988  0
H  H16  1  0.48349706  0.35424097  0.45413254  1  0  0.099646  0  0.955057  0  0  0.109989  0  1.01918  0  0  0.112892  0  1.017103  0  0  0.108449  0.107866  0  1.020751  0
H  H17  1  0.51649743  0.64576279  0.54586769  1  0  0.099599  0  0.955194  0  0  0.109981  0  1.01928  0  0  0.112884  0  1.017203  0  0  0.108429  0.10786  0  1.020848  0
H  H18  1  0.63063927  0.56842749  0.35298255  1  0  0.09478  0  0.954074  0  0  0.108259  0  1.01295  0  0  0.110734  0  1.012531  0  0  0.104668  0.106448  0  1.013421  0
H  H19  1  0.36935767  0.43157627  0.64701336  1  0  0.094786  0  0.954002  0  0  0.108252  0  1.012901  0  0  0.110727  0  1.012482  0  0  0.104665  0.10644  0  1.013372  0
H  H20  1  0.87939399  0.69406228  0.20342416  1  0  0.13083  0  0.937928  0  0  0.138985  0  0.998682  0  0  0.142813  0  0.995978  0  0  0.113639  0.13593  0  1.001113  0
H  H21  1  0.12060535  0.30594054  0.79657394  1  0  0.13078  0  0.938012  0  0  0.138943  0  0.998752  0  0  0.142767  0  0.996048  0  0  0.113633  0.135888  0  1.001181  0
H  H22  1  0.16730389  0.69950500  0.04392412  1  0  0.121018  0  0.918306  0  0  0.132427  0  0.974309  0  0  0.135763  0  0.97163  0  0  0.118117  0.129998  0  0.976212  0
H  H23  1  0.83269769  0.30049306  0.95607860  1  0  0.120973  0  0.91833  0  0  0.132432  0  0.974278  0  0  0.135768  0  0.971597  0  0  0.118105  0.13  0  0.976183  0
H  H24  1  0.40860446  0.57767792  0.92637901  1  0  0.101454  0  0.950097  0  0  0.113374  0  1.007236  0  0  0.116297  0  1.006869  0  0  0.107216  0.111356  0  1.007569  0
H  H25  1  0.59139096  0.42231917  0.07362559  1  0  0.101446  0  0.950061  0  0  0.113358  0  1.007199  0  0  0.116294  0  1.006817  0  0  0.107218  0.11134  0  1.007532  0
H  H26  1  0.39831003  0.33866283  0.98669226  1  0  0.083811  0  0.957174  0  0  0.091576  0  1.022008  0  0  0.094842  0  1.018259  0  0  0.119719  0.089235  0  1.024602  0
H  H27  1  0.60168665  0.66133521  0.01330821  1  0  0.083825  0  0.957331  0  0  0.091624  0  1.022127  0  0  0.094877  0  1.018391  0  0  0.119764  0.089284  0  1.024722  0
C  C28  1  0.18793121  0.68890112  0.35978618  1  0  -0.042734  0  3.724516  0  0  -0.07251  0  3.976772  0  0  -0.070074  0  3.995098  0  0  -0.075934  -0.073775  0  3.964649  0
C  C29  1  0.81207425  0.31110171  0.64021109  1  0  -0.042723  0  3.724316  0  0  -0.072501  0  3.976589  0  0  -0.070065  0  3.994916  0  0  -0.075925  -0.07377  0  3.964465  0
C  C30  1  0.02917918  0.67688646  0.44797489  1  0  -0.161393  0  3.695422  0  0  -0.139763  0  3.942345  0  0  -0.148102  0  3.964499  0  0  -0.011406  -0.134594  0  3.927836  0
C  C31  1  0.97082265  0.32311731  0.55202235  1  0  -0.161342  0  3.695365  0  0  -0.139727  0  3.942287  0  0  -0.148064  0  3.964439  0  0  -0.011375  -0.134558  0  3.927778  0
C  C32  1  0.95308559  0.55548850  0.51492560  1  0  0.058221  0  3.751995  0  0  0.067549  0  3.979402  0  0  0.067833  0  4.004184  0  0  0.00101  0.0674  0  3.962092  0
C  C33  1  0.04691855  0.44451242  0.48507052  1  0  0.058125  0  3.75208  0  0  0.067476  0  3.979464  0  0  0.06776  0  4.004245  0  0  0.00095  0.067323  0  3.962156  0
C  C34  1  0.79082694  0.54048435  0.60801700  1  0  -0.098806  0  3.725774  0  0  -0.128325  0  3.987755  0  0  -0.128112  0  4.00615  0  0  -0.086537  -0.127977  0  3.975232  0
C  C35  1  0.20917357  0.45951751  0.39197819  1  0  -0.098828  0  3.725876  0  0  -0.128369  0  3.987826  0  0  -0.128157  0  4.006219  0  0  -0.086589  -0.128017  0  3.975304  0
C  C36  1  0.72184531  0.42112988  0.66804881  1  0  -0.06138  0  3.767066  0  0  -0.073113  0  4.023966  0  0  -0.076483  0  4.044551  0  0  -0.087621  -0.071296  0  4.010493  0
C  C37  1  0.27816015  0.57887295  0.33194936  1  0  -0.061365  0  3.767044  0  0  -0.073091  0  4.023954  0  0  -0.076456  0  4.044538  0  0  -0.087583  -0.071278  0  4.010486  0
C  C38  1  0.94790305  0.94631776  0.05404502  1  0  0.55914  0  3.939673  0  0  0.518622  0  4.235191  0  0  0.549038  0  4.224433  0  0  0.212327  0.498006  0  4.241691  0
C  C39  1  0.05207644  0.05367926  0.94594869  1  0  0.559523  0  3.939412  0  0  0.518992  0  4.234964  0  0  0.549412  0  4.224201  0  0  0.212476  0.498373  0  4.241467  0
C  C40  1  0.46292625  0.93248400  0.00378377  1  0  0.568385  0  3.908852  0  0  0.529906  0  4.197057  0  0  0.560129  0  4.1874  0  0  0.216801  0.509327  0  4.203115  0
C  C41  1  0.53709000  0.06751409  0.99621479  1  0  0.568101  0  3.909288  0  0  0.529771  0  4.197318  0  0  0.559953  0  4.187718  0  0  0.216723  0.509221  0  4.203336  0
C  C42  1  0.74199170  0.12123964  0.34087436  1  0  0.128081  0  3.720619  0  0  0.100706  0  3.976338  0  0  0.107794  0  3.992127  0  0  0.050269  0.096169  0  3.965447  0
C  C43  1  0.25800513  0.87876127  0.65913107  1  0  0.128213  0  3.720445  0  0  0.100914  0  3.976195  0  0  0.108008  0  3.99198  0  0  0.050335  0.09637  0  3.965308  0
C  C44  1  0.59789496  0.17774690  0.41134831  1  0  -0.124911  0  3.749792  0  0  -0.136296  0  3.999418  0  0  -0.142832  0  4.020151  0  0  -0.090338  -0.132122  0  3.985477  0
C  C45  1  0.40210185  0.82225401  0.58865260  1  0  -0.124928  0  3.749721  0  0  -0.136319  0  3.999347  0  0  -0.142856  0  4.020077  0  0  -0.090364  -0.132147  0  3.985409  0
C  C46  1  0.59489205  0.30906732  0.40103080  1  0  -0.035963  0  3.674261  0  0  -0.059432  0  3.916483  0  0  -0.057155  0  3.934476  0  0  -0.060911  -0.060565  0  3.904157  0
C  C47  1  0.40510362  0.69093549  0.59896742  1  0  -0.035977  0  3.674402  0  0  -0.059492  0  3.916601  0  0  -0.057212  0  3.934591  0  0  -0.06091  -0.060627  0  3.904283  0
C  C48  1  0.73596588  0.38409857  0.32044101  1  0  0.023615  0  3.797982  0  0  0.040551  0  4.027586  0  0  0.038036  0  4.053494  0  0  -0.001115  0.04209  0  4.010318  0
C  C49  1  0.26402988  0.61590614  0.67955690  1  0  0.023648  0  3.797908  0  0  0.040602  0  4.027499  0  0  0.038087  0  4.053405  0  0  -0.001087  0.042143  0  4.010229  0
C  C50  1  0.74045051  0.52054254  0.30139581  1  0  -0.108078  0  3.751477  0  0  -0.132621  0  4.009739  0  0  -0.137473  0  4.03387  0  0  -0.086707  -0.129396  0  3.993332  0
C  C51  1  0.25954275  0.47946121  0.69860114  1  0  -0.10818  0  3.751231  0  0  -0.13273  0  4.00951  0  0  -0.137582  0  4.033639  0  0  -0.08675  -0.129504  0  3.993098  0
C  C52  1  0.87770472  0.59000539  0.21893335  1  0  -0.073374  0  3.690872  0  0  -0.098365  0  3.947677  0  0  -0.099932  0  3.969124  0  0  -0.074248  -0.097139  0  3.933139  0
C  C53  1  0.12229077  0.40999360  0.78106550  1  0  -0.073248  0  3.69082  0  0  -0.098229  0  3.947622  0  0  -0.09979  0  3.969062  0  0  -0.074224  -0.097004  0  3.933077  0
C  C54  1  0.02192138  0.52711668  0.15131245  1  0  0.025847  0  3.770439  0  0  0.043178  0  4.001541  0  0  0.039972  0  4.026926  0  0  0.001911  0.045183  0  3.984067  0
C  C55  1  0.97807893  0.47288043  0.84868896  1  0  0.025984  0  3.770444  0  0  0.043242  0  4.001542  0  0  0.040038  0  4.026926  0  0  0.001944  0.045252  0  3.984064  0
C  C56  1  0.16428492  0.59539842  0.06142011  1  0  -0.028864  0  3.65243  0  0  -0.055838  0  3.904955  0  0  -0.052859  0  3.922112  0  0  -0.055253  -0.057357  0  3.893183  0
C  C57  1  0.83571302  0.40460058  0.93857806  1  0  -0.0289  0  3.65242  0  0  -0.055913  0  3.904973  0  0  -0.052937  0  3.922136  0  0  -0.055275  -0.057431  0  3.893197  0
C  C58  1  0.29810103  0.52833566  0.99836227  1  0  -0.125687  0  3.747492  0  0  -0.140716  0  4.008294  0  0  -0.148176  0  4.030691  0  0  -0.084595  -0.136126  0  3.993352  0
C  C59  1  0.70189815  0.47166335  0.00164007  1  0  -0.125659  0  3.747488  0  0  -0.140674  0  4.008321  0  0  -0.148144  0  4.030711  0  0  -0.084564  -0.136085  0  3.993378  0
C  C60  1  0.29252169  0.39441749  0.03040673  1  0  0.144932  0  3.712634  0  0  0.114129  0  3.974455  0  0  0.122299  0  3.989535  0  0  0.05877  0.108919  0  3.964091  0
C  C61  1  0.70747250  0.60557960  0.96959550  1  0  0.144898  0  3.712805  0  0  0.11405  0  3.974655  0  0  0.12223  0  3.989746  0  0  0.058669  0.108838  0  3.964291  0
C  C62  1  0.02516088  0.39151667  0.17310998  1  0  0.139899  0  3.745179  0  0  0.13445  0  3.985407  0  0  0.138655  0  4.006431  0  0  0.123669  0.131622  0  3.970875  0
C  C63  1  0.97483458  0.60848137  0.82689175  1  0  0.139603  0  3.745336  0  0  0.134335  0  3.985351  0  0  0.13854  0  4.006378  0  0  0.123634  0.131495  0  3.970839  0
C  C64  1  0.87803270  0.31855826  0.25587985  1  0  0.146884  0  3.7422  0  0  0.142758  0  3.980851  0  0  0.146815  0  4.001748  0  0  0.123579  0.139973  0  3.966686  0
C  C65  1  0.12196411  0.68144265  0.74411924  1  0  0.14707  0  3.742113  0  0  0.142857  0  3.980758  0  0  0.146914  0  4.001656  0  0  0.123576  0.140073  0  3.966597  0
S  S66  1  0.91653606  0.81704579  0.47541642  1  0  1.37828  0  5.579793  0  0  1.28073  0  6.094035  0  0  1.330675  0  6.06615  0  0  0.541537  1.246051  0  6.112227  0
S  S67  1  0.08346442  0.18295512  0.52458255  1  0  1.378218  0  5.579738  0  0  1.280681  0  6.093985  0  0  1.330629  0  6.066096  0  0  0.541578  1.246004  0  6.112172  0
N  N68  1  0.87893351  0.18916051  0.26660232  1  0  -0.428051  0  3.243276  0  0  -0.377309  0  3.509498  0  0  -0.391673  0  3.527746  0  0  -0.376492  -0.367532  0  3.496951  0
N  N69  1  0.12106445  0.81083850  0.73340218  1  0  -0.428189  0  3.24327  0  0  -0.377406  0  3.509455  0  0  -0.391772  0  3.5277  0  0  -0.376548  -0.367626  0  3.496907  0
N  N70  1  0.16163701  0.32721498  0.11665497  1  0  -0.405641  0  3.203947  0  0  -0.355291  0  3.471532  0  0  -0.369408  0  3.488432  0  0  -0.357541  -0.345652  0  3.460022  0
N  N71  1  0.83835850  0.67278402  0.88334660  1  0  -0.405491  0  3.203932  0  0  -0.355179  0  3.471475  0  0  -0.369294  0  3.488364  0  0  -0.357491  -0.345534  0  3.459965  0
O  O72  1  0.03141432  0.92338634  0.39603086  1  0  -0.747428  0  2.096715  0  0  -0.687402  0  2.37691  0  0  -0.708753  0  2.361291  0  0  -0.39543  -0.672008  0  2.386762  0
O  O73  1  0.96858367  0.07661361  0.60396986  1  0  -0.747383  0  2.096667  0  0  -0.687407  0  2.376947  0  0  -0.70876  0  2.361328  0  0  -0.395436  -0.671997  0  2.386759  0
O  O74  1  0.77280164  0.80630914  0.43979372  1  0  -0.643985  0  1.932886  0  0  -0.593511  0  2.17551  0  0  -0.614852  0  2.162158  0  0  -0.322757  -0.578148  0  2.183939  0
O  O75  1  0.22719871  0.19368892  0.56020753  1  0  -0.64399  0  1.932935  0  0  -0.593464  0  2.175479  0  0  -0.614803  0  2.16212  0  0  -0.322774  -0.578105  0  2.183903  0
O  O76  1  0.86907383  0.81974721  0.61792501  1  0  -0.800049  0  2.112788  0  0  -0.744471  0  2.39434  0  0  -0.767024  0  2.379783  0  0  -0.4113  -0.728135  0  2.403841  0
O  O77  1  0.13093232  0.18024416  0.38207199  1  0  -0.800069  0  2.1128  0  0  -0.744511  0  2.394355  0  0  -0.767072  0  2.379815  0  0  -0.411344  -0.728158  0  2.403819  0
O  O78  1  0.85442436  0.87766155  0.02389678  1  0  -0.663416  0  2.050309  0  0  -0.619602  0  2.293676  0  0  -0.642711  0  2.285669  0  0  -0.380915  -0.603044  0  2.298655  0
O  O79  1  0.14556482  0.12233267  0.97611183  1  0  -0.66359  0  2.049924  0  0  -0.619785  0  2.2933  0  0  -0.642899  0  2.28529  0  0  -0.380989  -0.603223  0  2.298281  0
O  O80  1  0.96501888  0.93526930  0.16419093  1  0  -0.652049  0  2.092713  0  0  -0.605859  0  2.344938  0  0  -0.629044  0  2.335954  0  0  -0.377988  -0.58943  0  2.350767  0
O  O81  1  0.03497728  0.06471729  0.83581053  1  0  -0.652197  0  2.093028  0  0  -0.606003  0  2.345287  0  0  -0.629182  0  2.336293  0  0  -0.378154  -0.589582  0  2.351126  0
O  O82  1  0.55650833  0.85853473  0.93211888  1  0  -0.679995  0  2.040318  0  0  -0.628754  0  2.280476  0  0  -0.651251  0  2.268797  0  0  -0.379071  -0.61288  0  2.287779  0
O  O83  1  0.44350170  0.14146143  0.06787359  1  0  -0.679943  0  2.040559  0  0  -0.628749  0  2.280653  0  0  -0.651235  0  2.268996  0  0  -0.379112  -0.612883  0  2.287944  0
O  O84  1  0.31655172  0.90723256  0.07888952  1  0  -0.643309  0  2.034309  0  0  -0.596719  0  2.273381  0  0  -0.61997  0  2.265247  0  0  -0.362493  -0.580422  0  2.278411  0
O  O85  1  0.68346816  0.09276459  0.92110906  1  0  -0.643092  0  2.034351  0  0  -0.596533  0  2.273356  0  0  -0.619776  0  2.265251  0  0  -0.362291  -0.580243  0  2.278364  0
O  O86  1  0.36657237  0.98998260  0.30842453  1  0  -0.837895  0  1.861122  0  0  -0.79311  0  2.049794  0  0  -0.809908  0  2.02905  0  0  -0.593262  -0.781106  0  2.064084  0
O  O87  1  0.63344142  0.01001456  0.69158484  1  0  -0.838061  0  1.861282  0  0  -0.793259  0  2.049967  0  0  -0.810061  0  2.02922  0  0  -0.593313  -0.781238  0  2.064233  0
