# generated using pymatgen
data_ZnH21C24S(NO2)3
_symmetry_space_group_name_H-M   'P 1'
_cell_length_a   9.63197794
_cell_length_b   9.91132662
_cell_length_c   12.60995248
_cell_angle_alpha   76.68910056
_cell_angle_beta   71.21348831
_cell_angle_gamma   80.56896031
_symmetry_Int_Tables_number   1
_chemical_formula_structural   ZnH21C24S(NO2)3
_chemical_formula_sum   'Zn2 H42 C48 S2 N6 O12'
_cell_volume   1103.79585717
_cell_formula_units_Z   2
loop_
 _symmetry_equiv_pos_site_id
 _symmetry_equiv_pos_as_xyz
  1  'x, y, z'
loop_
 _atom_site_type_symbol
 _atom_site_label
 _atom_site_symmetry_multiplicity
 _atom_site_fract_x
 _atom_site_fract_y
 _atom_site_fract_z
 _atom_site_occupancy
 _atom_site_pbe_bader_spin_density
 _atom_site_pbe_cm5_charge
 _atom_site_pbe_ddec_charge
 _atom_site_pbe_ddec_spin_density
 _atom_site_pbe_ddec_sum_bond_order
 _atom_site_pbe_magmom
Zn  Zn0  1  0.51632397  0.96130134  0.34557889  1  0  0.695867  0.838317  0  2.344861  0
Zn  Zn1  1  0.48367377  0.03869798  0.65442222  1  0  0.69585  0.838253  0  2.344947  0
H  H2  1  0.86151944  0.65405366  0.48722203  1  0  0.121802  0.098017  0  0.964099  0
H  H3  1  0.13847600  0.34594671  0.51277708  1  0  0.121812  0.098051  0  0.964055  0
H  H4  1  0.94545447  0.86730644  0.34787726  1  0  0.095761  0.097671  0  0.992927  0
H  H5  1  0.05454197  0.13269496  0.65212221  1  0  0.095731  0.097656  0  0.992939  0
H  H6  1  0.92844821  0.95395585  0.45935735  1  0  0.093298  0.093298  0  0.999454  0
H  H7  1  0.07154274  0.04604558  0.54064427  1  0  0.093317  0.093266  0  0.999604  0
H  H8  1  0.10584156  0.74771697  0.52912101  1  0  0.096224  0.111464  0  1.011091  0
H  H9  1  0.89415229  0.25228860  0.47088152  1  0  0.096234  0.111464  0  1.011075  0
H  H10  1  0.13935400  0.69753196  0.39784913  1  0  0.099896  0.126158  0  1.017796  0
H  H11  1  0.86064015  0.30247049  0.60215469  1  0  0.099936  0.126175  0  1.017859  0
H  H12  1  0.68829600  0.48430045  0.57061816  1  0  0.109981  0.109386  0  1.00703  0
H  H13  1  0.31170810  0.51570092  0.42937703  1  0  0.109991  0.109377  0  1.007022  0
H  H14  1  0.44245588  0.41319004  0.60018219  1  0  0.105602  0.118673  0  1.001239  0
H  H15  1  0.55754703  0.58681238  0.39981391  1  0  0.105614  0.118705  0  1.001143  0
H  H16  1  0.29300526  0.51695078  0.93500816  1  0  0.0998  0.107789  0  1.00997  0
H  H17  1  0.70700134  0.48304746  0.06498698  1  0  0.099787  0.107778  0  1.009967  0
H  H18  1  0.54055347  0.58970858  0.90491854  1  0  0.101223  0.101777  0  1.03953  0
H  H19  1  0.45945235  0.41028654  0.09507973  1  0  0.101214  0.101768  0  1.039498  0
H  H20  1  0.21635284  0.29688678  0.79741758  1  0  0.091443  0.134157  0  1.018696  0
H  H21  1  0.78365039  0.70311251  0.20258296  1  0  0.091458  0.134183  0  1.018653  0
H  H22  1  0.15851668  0.45143567  0.71592521  1  0  0.094825  0.143956  0  1.006698  0
H  H23  1  0.84148315  0.54856467  0.28407599  1  0  0.09482  0.143938  0  1.006743  0
H  H24  1  0.12147331  0.43982236  0.86506468  1  0  0.087959  0.12284  0  1.016343  0
H  H25  1  0.87853322  0.56017690  0.13493742  1  0  0.087953  0.122827  0  1.016326  0
H  H26  1  0.42487106  0.78605699  0.20129556  1  0  0.121509  0.092427  0  0.995435  0
H  H27  1  0.57512887  0.21394231  0.79870501  1  0  0.121507  0.09243  0  0.995436  0
H  H28  1  0.51938473  0.74490104  0.00080072  1  0  0.107229  0.111935  0  1.010457  0
H  H29  1  0.48061761  0.25509616  0.99920042  1  0  0.107242  0.111962  0  1.010434  0
H  H30  1  0.72329664  0.88040431  0.86017931  1  0  0.113798  0.129764  0  1.017904  0
H  H31  1  0.27670439  0.11959499  0.13982178  1  0  0.113819  0.129797  0  1.017893  0
H  H32  1  0.99849038  0.22395219  0.89433493  1  0  0.107532  0.115805  0  1.015644  0
H  H33  1  0.00151066  0.77604710  0.10566694  1  0  0.107522  0.115779  0  1.015666  0
H  H34  1  0.89129535  0.06540937  0.82088056  1  0  0.107204  0.120409  0  1.022706  0
H  H35  1  0.10870297  0.93459515  0.17911868  1  0  0.10725  0.120515  0  1.022661  0
H  H36  1  0.02365520  0.30039706  0.06905008  1  0  0.111539  0.116202  0  0.995095  0
H  H37  1  0.97634844  0.69959806  0.93095190  1  0  0.111557  0.116244  0  0.995094  0
H  H38  1  0.92476449  0.29863326  0.27691305  1  0  0.109097  0.11155  0  1.031084  0
H  H39  1  0.07523535  0.70136708  0.72308894  1  0  0.109116  0.111602  0  1.031054  0
H  H40  1  0.69889738  0.17561333  0.39229303  1  0  0.118946  0.099023  0  1.020031  0
H  H41  1  0.30110136  0.82438702  0.60770764  1  0  0.118948  0.099027  0  1.020033  0
H  H42  1  0.79300064  0.82538970  0.66770927  1  0  0.301142  0.292765  0  0.994241  0
H  H43  1  0.20699689  0.17461170  0.33229073  1  0  0.301144  0.292745  0  0.994267  0
C  C44  1  0.68421815  0.82063223  0.49644985  1  0  0.216894  0.585483  0  4.14975  0
C  C45  1  0.31577609  0.17936919  0.50355095  1  0  0.216908  0.585498  0  4.149646  0
C  C46  1  0.83393972  0.75603583  0.51336062  1  0  0.010328  0.024192  0  3.843292  0
C  C47  1  0.16605681  0.24396454  0.48663822  1  0  0.010351  0.02416  0  3.843284  0
C  C48  1  0.95324255  0.85111266  0.43491078  1  0  -0.158808  -0.146489  0  3.893427  0
C  C49  1  0.04675159  0.14888979  0.56508907  1  0  -0.158799  -0.146454  0  3.893585  0
C  C50  1  0.10649467  0.78821416  0.44025413  1  0  -0.174554  -0.306113  0  3.935565  0
C  C51  1  0.89350147  0.21179037  0.55974723  1  0  -0.1746  -0.30611  0  3.935628  0
C  C52  1  0.22606678  0.88660322  0.38563412  1  0  0.202758  0.619715  0  4.172008  0
C  C53  1  0.77393045  0.11340130  0.61436697  1  0  0.202786  0.61972  0  4.171981  0
C  C54  1  0.62830240  0.54336984  0.73607913  1  0  -0.027343  -0.101695  0  4.003218  0
C  C55  1  0.37170091  0.45662841  0.26391761  1  0  -0.027317  -0.101576  0  4.003095  0
C  C56  1  0.60097950  0.49494936  0.64939157  1  0  -0.08359  -0.085516  0  3.994998  0
C  C57  1  0.39902372  0.50504993  0.35060580  1  0  -0.083615  -0.085572  0  3.994906  0
C  C58  1  0.46198888  0.45573707  0.66599117  1  0  -0.083896  -0.127569  0  3.910641  0
C  C59  1  0.53801423  0.54426327  0.33400446  1  0  -0.083905  -0.127572  0  3.910459  0
C  C60  1  0.34915517  0.46266611  0.76868380  1  0  -0.003824  0.174908  0  3.969062  0
C  C61  1  0.65085034  0.53733213  0.23131319  1  0  -0.003795  0.174991  0  3.968803  0
C  C62  1  0.37855655  0.51260209  0.85396551  1  0  -0.093661  -0.148542  0  3.972682  0
C  C63  1  0.62144756  0.48739929  0.14603048  1  0  -0.09371  -0.148611  0  3.972745  0
C  C64  1  0.51672858  0.55340726  0.83804247  1  0  -0.092337  -0.09439  0  4.010693  0
C  C65  1  0.48327933  0.44658889  0.16195509  1  0  -0.09231  -0.094423  0  4.010731  0
C  C66  1  0.20332164  0.41102761  0.78817407  1  0  -0.243108  -0.429115  0  3.959638  0
C  C67  1  0.79668159  0.58897168  0.21182648  1  0  -0.243129  -0.429147  0  3.959494  0
C  C68  1  0.51481691  0.84118674  0.13883337  1  0  0.06392  0.117941  0  3.941321  0
C  C69  1  0.48518323  0.15881047  0.86116832  1  0  0.063923  0.117951  0  3.941386  0
C  C70  1  0.56851072  0.81895846  0.02598431  1  0  -0.081147  -0.124267  0  3.975963  0
C  C71  1  0.43149031  0.18104083  0.97401678  1  0  -0.081175  -0.124324  0  3.975993  0
C  C72  1  0.68108623  0.89249318  0.94889007  1  0  -0.057374  -0.060311  0  3.886618  0
C  C73  1  0.31891381  0.10750508  0.05111145  1  0  -0.057382  -0.060323  0  3.886654  0
C  C74  1  0.74052838  0.98893204  0.98526258  1  0  -0.00266  0.038419  0  4.012922  0
C  C75  1  0.25947265  0.01106725  0.01473771  1  0  -0.002653  0.038419  0  4.013004  0
C  C76  1  0.68275198  0.00148716  0.10135985  1  0  0.115192  0.113864  0  3.998615  0
C  C77  1  0.31724925  0.99851005  0.89864156  1  0  0.115209  0.113895  0  3.998663  0
C  C78  1  0.74451961  0.09237460  0.14448936  1  0  0.115902  0.116051  0  3.988006  0
C  C79  1  0.25548294  0.90762052  0.85551289  1  0  0.11587  0.11598  0  3.987981  0
C  C80  1  0.86290122  0.16850089  0.07025518  1  0  -0.001263  0.042656  0  4.021221  0
C  C81  1  0.13709882  0.83149737  0.92974792  1  0  -0.001234  0.042735  0  4.021272  0
C  C82  1  0.91178202  0.16064847  0.95157937  1  0  -0.084165  -0.12183  0  3.970168  0
C  C83  1  0.08822001  0.83935186  0.04842286  1  0  -0.084186  -0.121823  0  3.970324  0
C  C84  1  0.85354615  0.07375573  0.91070181  1  0  -0.082361  -0.116785  0  3.960597  0
C  C85  1  0.14645279  0.92624254  0.08929918  1  0  -0.08239  -0.116905  0  3.960835  0
C  C86  1  0.92871267  0.24394013  0.12065655  1  0  -0.058641  -0.074252  0  3.910933  0
C  C87  1  0.07128739  0.75605812  0.87934813  1  0  -0.058651  -0.07431  0  3.910941  0
C  C88  1  0.87352098  0.24359916  0.23634815  1  0  -0.074962  -0.107032  0  3.944408  0
C  C89  1  0.12647634  0.75640433  0.76365072  1  0  -0.074983  -0.107113  0  3.944284  0
C  C90  1  0.74927217  0.17272420  0.30169695  1  0  0.065856  0.121256  0  3.885988  0
C  C91  1  0.25072777  0.82727510  0.69830441  1  0  0.065839  0.121251  0  3.886049  0
S  S92  1  0.80655419  0.58886513  0.71894827  1  0  0.551253  1.072747  0  5.993361  0
S  S93  1  0.19344664  0.41113626  0.28105091  1  0  0.551214  1.072621  0  5.993397  0
N  N94  1  0.68775566  0.09838295  0.25660520  1  0  -0.313937  -0.256247  0  3.525119  0
N  N95  1  0.31224318  0.90161636  0.74339563  1  0  -0.313942  -0.256234  0  3.525132  0
N  N96  1  0.57115325  0.92893544  0.17556128  1  0  -0.320205  -0.275183  0  3.555964  0
N  N97  1  0.42884789  0.07106281  0.82444076  1  0  -0.320192  -0.275157  0  3.556035  0
N  N98  1  0.83345506  0.73734148  0.63180609  1  0  -0.455342  -0.496698  0  3.488272  0
N  N99  1  0.16654356  0.26265991  0.36819205  1  0  -0.455348  -0.496666  0  3.488326  0
O  O100  1  0.67026089  0.81978864  0.39942678  1  0  -0.318978  -0.542752  0  2.326112  0
O  O101  1  0.32972737  0.18020655  0.60057424  1  0  -0.31894  -0.542677  0  2.32602  0
O  O102  1  0.58849827  0.87276439  0.57513770  1  0  -0.323643  -0.572234  0  2.422073  0
O  O103  1  0.41149806  0.12723805  0.42486319  1  0  -0.323669  -0.572258  0  2.421979  0
O  O104  1  0.20717787  0.99560885  0.31521594  1  0  -0.323401  -0.57132  0  2.199078  0
O  O105  1  0.79281716  0.00439569  0.68478331  1  0  -0.32345  -0.571394  0  2.199243  0
O  O106  1  0.34445520  0.84732449  0.41637048  1  0  -0.335093  -0.573105  0  2.330467  0
O  O107  1  0.65554134  0.15267587  0.58362994  1  0  -0.335094  -0.573076  0  2.330413  0
O  O108  1  0.80810941  0.61136148  0.82829367  1  0  -0.322841  -0.549117  0  2.175231  0
O  O109  1  0.19189480  0.38863886  0.17170248  1  0  -0.322843  -0.549098  0  2.175185  0
O  O110  1  0.91146599  0.48444263  0.66424744  1  0  -0.316643  -0.540026  0  2.18642  0
O  O111  1  0.08853901  0.51556082  0.33574875  1  0  -0.316616  -0.539971  0  2.186472  0
