# generated using pymatgen
data_ZnH12(C2N)8
_symmetry_space_group_name_H-M   'P 1'
_cell_length_a   7.62826958
_cell_length_b   9.20454963
_cell_length_c   12.50504043
_cell_angle_alpha   101.98718997
_cell_angle_beta   100.56580588
_cell_angle_gamma   104.21146304
_symmetry_Int_Tables_number   1
_chemical_formula_structural   ZnH12(C2N)8
_chemical_formula_sum   'Zn2 H24 C32 N16'
_cell_volume   806.77903472
_cell_formula_units_Z   2
loop_
 _symmetry_equiv_pos_site_id
 _symmetry_equiv_pos_as_xyz
  1  'x, y, z'
loop_
 _atom_site_type_symbol
 _atom_site_label
 _atom_site_symmetry_multiplicity
 _atom_site_fract_x
 _atom_site_fract_y
 _atom_site_fract_z
 _atom_site_occupancy
 _atom_site_hle17_bader_spin_density
 _atom_site_hle17_ddec_charge
 _atom_site_hle17_ddec_spin_density
 _atom_site_hle17_ddec_sum_bond_order
 _atom_site_hle17_magmom
 _atom_site_hse06_10hf_bader_spin_density
 _atom_site_hse06_10hf_ddec_charge
 _atom_site_hse06_10hf_ddec_spin_density
 _atom_site_hse06_10hf_ddec_sum_bond_order
 _atom_site_hse06_10hf_magmom
 _atom_site_hse06_bader_spin_density
 _atom_site_hse06_ddec_charge
 _atom_site_hse06_ddec_spin_density
 _atom_site_hse06_ddec_sum_bond_order
 _atom_site_hse06_magmom
 _atom_site_pbe_bader_spin_density
 _atom_site_pbe_cm5_charge
 _atom_site_pbe_ddec_charge
 _atom_site_pbe_ddec_spin_density
 _atom_site_pbe_ddec_sum_bond_order
 _atom_site_pbe_magmom
Zn  Zn0  1  0.59546549  0.91551310  0.70195987  1  0  1.042118  0  1.999795  0  0  0.857153  0  2.496618  0  0  0.898209  0  2.445938  0  0  0.756826  0.829926  0  2.530245  0
Zn  Zn1  1  0.40452545  0.08448896  0.29804522  1  0  1.042081  0  2.000003  0  0  0.857086  0  2.496881  0  0  0.898145  0  2.446197  0  0  0.75681  0.829865  0  2.530488  0
H  H2  1  0.34112614  0.82380515  0.46282443  1  0  0.090783  0  0.96687  0  0  0.097851  0  1.034771  0  0  0.099544  0  1.034091  0  0  0.114799  0.096578  0  1.035407  0
H  H3  1  0.65887635  0.17619911  0.53717836  1  0  0.090845  0  0.966828  0  0  0.097903  0  1.034749  0  0  0.099598  0  1.034065  0  0  0.11481  0.096626  0  1.03539  0
H  H4  1  0.39369989  0.35409733  0.73453822  1  0  0.101709  0  0.989138  0  0  0.109437  0  1.055326  0  0  0.112266  0  1.0546  0  0  0.106504  0.107499  0  1.055942  0
H  H5  1  0.60631068  0.64589984  0.26546368  1  0  0.101692  0  0.989129  0  0  0.109395  0  1.055355  0  0  0.112221  0  1.054633  0  0  0.106539  0.10746  0  1.055975  0
H  H6  1  0.82873577  0.87252647  0.92321008  1  0  0.077988  0  0.939373  0  0  0.087512  0  1.001745  0  0  0.089396  0  1.000691  0  0  0.115163  0.085851  0  1.003149  0
H  H7  1  0.17126367  0.12747664  0.07678977  1  0  0.078009  0  0.939337  0  0  0.087519  0  1.001714  0  0  0.089403  0  1.000662  0  0  0.115157  0.085859  0  1.003117  0
H  H8  1  0.03067237  0.47148347  0.23364123  1  0  0.113715  0  0.961474  0  0  0.133103  0  1.023606  0  0  0.133954  0  1.024661  0  0  0.091242  0.13244  0  1.022964  0
H  H9  1  0.96933909  0.52852298  0.76635495  1  0  0.113698  0  0.961638  0  0  0.13309  0  1.023768  0  0  0.133941  0  1.024824  0  0  0.091257  0.132446  0  1.023106  0
H  H10  1  0.17453499  0.66706053  0.25906576  1  0  0.114456  0  0.94972  0  0  0.136089  0  1.010306  0  0  0.136395  0  1.011806  0  0  0.092887  0.13604  0  1.008887  0
H  H11  1  0.82547597  0.33294479  0.74093419  1  0  0.114475  0  0.949703  0  0  0.1361  0  1.010278  0  0  0.136401  0  1.011791  0  0  0.092863  0.136058  0  1.008841  0
H  H12  1  0.96668591  0.62994965  0.30552697  1  0  0.107353  0  0.967185  0  0  0.126756  0  1.035269  0  0  0.126859  0  1.036827  0  0  0.0903  0.126763  0  1.033814  0
H  H13  1  0.03332069  0.37005452  0.69446909  1  0  0.1073  0  0.967192  0  0  0.126703  0  1.035279  0  0  0.126807  0  1.036835  0  0  0.090316  0.12671  0  1.033825  0
H  H14  1  0.25304631  0.32994520  0.56653389  1  0  0.103188  0  0.982304  0  0  0.109345  0  1.050875  0  0  0.112124  0  1.050365  0  0  0.10444  0.107885  0  1.050402  0
H  H15  1  0.74695811  0.67005318  0.43346346  1  0  0.103207  0  0.982339  0  0  0.109397  0  1.050869  0  0  0.112174  0  1.05036  0  0  0.104458  0.107945  0  1.050388  0
H  H16  1  0.07264498  0.33039813  0.37997941  1  0  0.116548  0  0.960623  0  0  0.126399  0  1.022473  0  0  0.129201  0  1.020581  0  0  0.105981  0.124271  0  1.024044  0
H  H17  1  0.92736469  0.66960370  0.62001987  1  0  0.116546  0  0.960624  0  0  0.126393  0  1.022492  0  0  0.129196  0  1.020599  0  0  0.105972  0.124261  0  1.024063  0
H  H18  1  0.59888902  0.39618821  0.92390213  1  0  0.104009  0  0.948828  0  0  0.115519  0  1.007802  0  0  0.1177  0  1.007241  0  0  0.109282  0.113842  0  1.008554  0
H  H19  1  0.40112863  0.60381354  0.07609810  1  0  0.104033  0  0.948713  0  0  0.115541  0  1.007692  0  0  0.11772  0  1.007135  0  0  0.109282  0.113867  0  1.008442  0
H  H20  1  0.93665425  0.79289384  0.08965356  1  0  0.116072  0  0.948515  0  0  0.136247  0  1.008348  0  0  0.137039  0  1.00896  0  0  0.093819  0.135865  0  1.007663  0
H  H21  1  0.06335366  0.20710336  0.91034803  1  0  0.116037  0  0.948508  0  0  0.136215  0  1.008345  0  0  0.137009  0  1.008954  0  0  0.093799  0.13583  0  1.007662  0
H  H22  1  0.97072754  0.60804172  0.04747094  1  0  0.112708  0  0.949767  0  0  0.135834  0  1.008932  0  0  0.136451  0  1.009553  0  0  0.0947  0.135411  0  1.00845  0
H  H23  1  0.02927428  0.39195319  0.95252559  1  0  0.112671  0  0.949732  0  0  0.135787  0  1.008916  0  0  0.136405  0  1.009535  0  0  0.094697  0.135364  0  1.008434  0
H  H24  1  0.78730907  0.62578335  0.11191464  1  0  0.113081  0  0.96093  0  0  0.134307  0  1.024407  0  0  0.135053  0  1.025328  0  0  0.093516  0.133723  0  1.023932  0
H  H25  1  0.21269580  0.37421270  0.88808402  1  0  0.113108  0  0.960967  0  0  0.134337  0  1.024425  0  0  0.135084  0  1.025345  0  0  0.093539  0.133755  0  1.023946  0
C  C26  1  0.38977540  0.57834602  0.61529885  1  0  0.165624  0  3.771897  0  0  0.157206  0  4.017104  0  0  0.162807  0  4.038196  0  0  0.115717  0.153642  0  4.002622  0
C  C27  1  0.61022629  0.42165241  0.38470218  1  0  0.165609  0  3.771991  0  0  0.157105  0  4.01725  0  0  0.162706  0  4.038342  0  0  0.115704  0.153547  0  4.002757  0
C  C28  1  0.31542158  0.71178097  0.48275718  1  0  0.08466  0  3.650222  0  0  0.050383  0  3.88896  0  0  0.055311  0  3.908609  0  0  0.052246  0.046928  0  3.875899  0
C  C29  1  0.68458094  0.28821979  0.51724589  1  0  0.0845  0  3.650366  0  0  0.050187  0  3.889055  0  0  0.055115  0  3.9087  0  0  0.05214  0.046716  0  3.876023  0
C  C30  1  0.19087262  0.57735043  0.40530640  1  0  0.105227  0  3.724865  0  0  0.133855  0  3.963036  0  0  0.13051  0  3.988003  0  0  -0.000408  0.13611  0  3.945994  0
C  C31  1  0.80913482  0.42265259  0.59469280  1  0  0.105329  0  3.7249  0  0  0.134031  0  3.962968  0  0  0.13069  0  3.987933  0  0  -0.000306  0.136289  0  3.945921  0
C  C32  1  0.97877952  0.02841925  0.64391711  1  0  0.559458  0  3.963501  0  0  0.514833  0  4.247499  0  0  0.542329  0  4.256688  0  0  0.333261  0.495958  0  4.241309  0
C  C33  1  0.02120026  0.97157003  0.35607437  1  0  0.559589  0  3.963336  0  0  0.514947  0  4.247331  0  0  0.542438  0  4.256525  0  0  0.333337  0.496069  0  4.241146  0
C  C34  1  0.50374729  0.59152593  0.72809835  1  0  0.176784  0  3.768187  0  0  0.170344  0  4.010572  0  0  0.177025  0  4.03051  0  0  0.121715  0.165879  0  3.997329  0
C  C35  1  0.49625036  0.40847255  0.27190541  1  0  0.176609  0  3.768175  0  0  0.170234  0  4.01051  0  0  0.176919  0  4.030447  0  0  0.121662  0.165766  0  3.997271  0
C  C36  1  0.49229597  0.46764756  0.77785163  1  0  -0.129138  0  3.705785  0  0  -0.146577  0  3.955884  0  0  -0.152377  0  3.975554  0  0  -0.076626  -0.14358  0  3.943096  0
C  C37  1  0.50770791  0.53235318  0.22215001  1  0  -0.128943  0  3.705639  0  0  -0.146385  0  3.955707  0  0  -0.152186  0  3.975377  0  0  -0.076625  -0.143395  0  3.942931  0
C  C38  1  0.73544846  0.75495818  0.88418161  1  0  0.087281  0  3.688336  0  0  0.048244  0  3.938108  0  0  0.052909  0  3.958145  0  0  0.052803  0.045565  0  3.924329  0
C  C39  1  0.26455098  0.24504145  0.11582093  1  0  0.087257  0  3.688352  0  0  0.048236  0  3.938118  0  0  0.052901  0  3.958155  0  0  0.052828  0.04556  0  3.924337  0
C  C40  1  0.08586576  0.58617989  0.29437101  1  0  -0.338626  0  3.723212  0  0  -0.418644  0  3.953941  0  0  -0.420764  0  3.966541  0  0  -0.241049  -0.416805  0  3.944935  0
C  C41  1  0.91414522  0.41382541  0.70562734  1  0  -0.338653  0  3.723287  0  0  -0.418682  0  3.954018  0  0  -0.420803  0  3.966616  0  0  -0.241106  -0.416865  0  3.944989  0
C  C42  1  0.73500985  0.63781932  0.93963342  1  0  0.099071  0  3.741735  0  0  0.125522  0  3.985796  0  0  0.122236  0  4.010535  0  0  0.001191  0.127852  0  3.968541  0
C  C43  1  0.26499538  0.36218140  0.06036757  1  0  0.099062  0  3.741749  0  0  0.125516  0  3.985784  0  0  0.122232  0  4.010525  0  0  0.00116  0.127846  0  3.968532  0
C  C44  1  0.26933911  0.43857533  0.54247398  1  0  -0.124575  0  3.698158  0  0  -0.144105  0  3.954067  0  0  -0.149932  0  3.97513  0  0  -0.079139  -0.139993  0  3.938907  0
C  C45  1  0.73066482  0.56142539  0.45752446  1  0  -0.124612  0  3.698168  0  0  -0.144154  0  3.954096  0  0  -0.149982  0  3.975161  0  0  -0.079143  -0.140049  0  3.938924  0
C  C46  1  0.16866597  0.43835406  0.43752794  1  0  -0.056987  0  3.650919  0  0  -0.0834  0  3.896902  0  0  -0.081674  0  3.915728  0  0  -0.066978  -0.084544  0  3.88425  0
C  C47  1  0.83134062  0.56164663  0.56247081  1  0  -0.056939  0  3.650976  0  0  -0.08338  0  3.896946  0  0  -0.081657  0  3.915775  0  0  -0.066985  -0.084525  0  3.884301  0
C  C48  1  0.60755774  0.49136593  0.88375546  1  0  -0.058274  0  3.674702  0  0  -0.083564  0  3.922825  0  0  -0.081134  0  3.940747  0  0  -0.06469  -0.084548  0  3.910244  0
C  C49  1  0.39245151  0.50863126  0.11624549  1  0  -0.058394  0  3.674624  0  0  -0.083678  0  3.922725  0  0  -0.081249  0  3.940648  0  0  -0.064694  -0.084663  0  3.910149  0
C  C50  1  0.67844983  0.13215042  0.95096588  1  0  0.511122  0  4.013771  0  0  0.473757  0  4.294391  0  0  0.500184  0  4.304741  0  0  0.310318  0.455362  0  4.288173  0
C  C51  1  0.32154827  0.86785270  0.04903462  1  0  0.511003  0  4.013914  0  0  0.473629  0  4.294534  0  0  0.50006  0  4.304889  0  0  0.310205  0.455236  0  4.28831  0
C  C52  1  0.86387722  0.66872068  0.05307080  1  0  -0.336103  0  3.725445  0  0  -0.417176  0  3.956388  0  0  -0.418851  0  3.967691  0  0  -0.237553  -0.415835  0  3.948438  0
C  C53  1  0.13612982  0.33127769  0.94692926  1  0  -0.336059  0  3.7254  0  0  -0.417136  0  3.956328  0  0  -0.418814  0  3.967636  0  0  -0.237552  -0.415794  0  3.948377  0
C  C54  1  0.28862650  0.06434936  0.63841114  1  0  0.537392  0  3.95868  0  0  0.491681  0  4.246595  0  0  0.51876  0  4.255754  0  0  0.323198  0.473581  0  4.240298  0
C  C55  1  0.71135708  0.93564691  0.36158662  1  0  0.537368  0  3.95854  0  0  0.491649  0  4.246454  0  0  0.518724  0  4.255612  0  0  0.323193  0.473561  0  4.240148  0
C  C56  1  0.76100935  0.18464993  0.14406681  1  0  0.447094  0  4.016428  0  0  0.420719  0  4.307472  0  0  0.443199  0  4.319871  0  0  0.270553  0.40526  0  4.298851  0
C  C57  1  0.23897943  0.81534981  0.85593608  1  0  0.446942  0  4.016535  0  0  0.420545  0  4.307593  0  0  0.44303  0  4.319994  0  0  0.270449  0.40509  0  4.298967  0
N  N58  1  0.41015194  0.71223500  0.58403959  1  0  -0.351009  0  3.330836  0  0  -0.272933  0  3.596485  0  0  -0.291267  0  3.614033  0  0  -0.318923  -0.26064  0  3.584064  0
N  N59  1  0.58984702  0.28776696  0.41596324  1  0  -0.350908  0  3.33092  0  0  -0.272748  0  3.596515  0  0  -0.291084  0  3.614069  0  0  -0.31886  -0.260458  0  3.584086  0
N  N60  1  0.62368822  0.73305247  0.78273553  1  0  -0.348367  0  3.294652  0  0  -0.276192  0  3.563963  0  0  -0.293143  0  3.580306  0  0  -0.31535  -0.264947  0  3.552462  0
N  N61  1  0.37630541  0.26694955  0.21726748  1  0  -0.348281  0  3.294765  0  0  -0.276131  0  3.564068  0  0  -0.293084  0  3.580415  0  0  -0.315318  -0.264887  0  3.552566  0
N  N62  1  0.43502723  0.04513779  0.63515157  1  0  -0.59435  0  2.853846  0  0  -0.544469  0  3.152344  0  0  -0.565659  0  3.153286  0  0  -0.376396  -0.530295  0  3.151772  0
N  N63  1  0.56495618  0.95486203  0.36485389  1  0  -0.594169  0  2.853692  0  0  -0.544287  0  3.152201  0  0  -0.565479  0  3.153148  0  0  -0.37635  -0.530118  0  3.151624  0
N  N64  1  0.82358091  0.97097526  0.64502686  1  0  -0.59868  0  2.895652  0  0  -0.544185  0  3.208706  0  0  -0.566126  0  3.206583  0  0  -0.386148  -0.530218  0  3.211  0
N  N65  1  0.17640461  0.02901164  0.35496735  1  0  -0.598683  0  2.895473  0  0  -0.544185  0  3.208523  0  0  -0.566129  0  3.206407  0  0  -0.386174  -0.530216  0  3.210818  0
N  N66  1  0.66562213  0.07014528  0.85600413  1  0  -0.63521  0  2.93129  0  0  -0.57695  0  3.230652  0  0  -0.600011  0  3.231659  0  0  -0.397415  -0.561456  0  3.230751  0
N  N67  1  0.33438117  0.92986132  0.14400150  1  0  -0.63517  0  2.931332  0  0  -0.576893  0  3.230669  0  0  -0.599956  0  3.23168  0  0  -0.397348  -0.561398  0  3.230759  0
N  N68  1  0.14040869  0.10740369  0.63963469  1  0  -0.4799  0  3.337963  0  0  -0.41877  0  3.598363  0  0  -0.44348  0  3.602361  0  0  -0.303741  -0.401884  0  3.594521  0
N  N69  1  0.85956982  0.89258558  0.36035344  1  0  -0.480179  0  3.33814  0  0  -0.41902  0  3.598551  0  0  -0.443717  0  3.602535  0  0  -0.303844  -0.402139  0  3.594717  0
N  N70  1  0.68858368  0.21302884  0.05017560  1  0  -0.470869  0  3.283523  0  0  -0.420665  0  3.544194  0  0  -0.444211  0  3.55048  0  0  -0.319086  -0.404208  0  3.539573  0
N  N71  1  0.31140769  0.78697786  0.94982703  1  0  -0.470769  0  3.283847  0  0  -0.420537  0  3.544505  0  0  -0.444092  0  3.550796  0  0  -0.319  -0.404093  0  3.539886  0
N  N72  1  0.82387007  0.17039103  0.23344455  1  0  -0.565348  0  2.632527  0  0  -0.544471  0  2.87181  0  0  -0.560837  0  2.881293  0  0  -0.366959  -0.533278  0  2.865279  0
N  N73  1  0.17611214  0.82960527  0.76655546  1  0  -0.565214  0  2.63242  0  0  -0.544322  0  2.871693  0  0  -0.560687  0  2.88118  0  0  -0.36687  -0.533127  0  2.865158  0
