# generated using pymatgen
data_CdNiH16C10(N3O)2
_symmetry_space_group_name_H-M   'P 1'
_cell_length_a   7.52712642
_cell_length_b   7.52710617
_cell_length_c   14.15250958
_cell_angle_alpha   77.29447822
_cell_angle_beta   77.29434500
_cell_angle_gamma   87.63910899
_symmetry_Int_Tables_number   1
_chemical_formula_structural   CdNiH16C10(N3O)2
_chemical_formula_sum   'Cd2 Ni2 H32 C20 N12 O4'
_cell_volume   763.03516641
_cell_formula_units_Z   2
loop_
 _symmetry_equiv_pos_site_id
 _symmetry_equiv_pos_as_xyz
  1  'x, y, z'
loop_
 _atom_site_type_symbol
 _atom_site_label
 _atom_site_symmetry_multiplicity
 _atom_site_fract_x
 _atom_site_fract_y
 _atom_site_fract_z
 _atom_site_occupancy
 _atom_site_hle17_bader_spin_density
 _atom_site_hle17_ddec_charge
 _atom_site_hle17_ddec_spin_density
 _atom_site_hle17_ddec_sum_bond_order
 _atom_site_hle17_magmom
 _atom_site_hse06_10hf_bader_spin_density
 _atom_site_hse06_10hf_ddec_charge
 _atom_site_hse06_10hf_ddec_spin_density
 _atom_site_hse06_10hf_ddec_sum_bond_order
 _atom_site_hse06_10hf_magmom
 _atom_site_hse06_bader_spin_density
 _atom_site_hse06_ddec_charge
 _atom_site_hse06_ddec_spin_density
 _atom_site_hse06_ddec_sum_bond_order
 _atom_site_hse06_magmom
 _atom_site_pbe_bader_spin_density
 _atom_site_pbe_cm5_charge
 _atom_site_pbe_ddec_charge
 _atom_site_pbe_ddec_spin_density
 _atom_site_pbe_ddec_sum_bond_order
 _atom_site_pbe_magmom
Cd  Cd0  1  0.89045314  0.10953691  0.24999703  1  0  1.097872  0  1.853624  0  0  0.904794  0  2.327564  0  0  0.951922  0  2.283245  0  0  0.81244  0.871611  0  2.357884  0
Cd  Cd1  1  0.10953802  0.89045954  0.74999601  1  0  1.097942  0  1.85366  0  0  0.904876  0  2.327634  0  0  0.952  0  2.283313  0  0  0.812474  0.871698  0  2.357963  0
Ni  Ni2  1  0.00001701  0.49999476  0.49999107  1  0  0.134405  0  3.361226  0  0  0.151489  0  3.821675  0  0  0.161498  0  3.771388  0  0  0.405069  0.15275  0  3.85136  0
Ni  Ni3  1  0.49999555  0.99999571  0.99999417  1  0  0.1344  0  3.361071  0  0  0.151601  0  3.821501  0  0  0.161601  0  3.771223  0  0  0.405199  0.152879  0  3.851163  0
H  H4  1  0.41678033  0.11111850  0.27794811  1  0  0.065257  0  0.932058  0  0  0.083363  0  0.994325  0  0  0.082379  0  0.996342  0  0  0.103019  0.084027  0  0.992962  0
H  H5  1  0.88885637  0.58321793  0.22205207  1  0  0.065239  0  0.932138  0  0  0.0834  0  0.994316  0  0  0.082419  0  0.996324  0  0  0.10304  0.084061  0  0.992968  0
H  H6  1  0.58320815  0.88888877  0.72205247  1  0  0.065238  0  0.93209  0  0  0.083365  0  0.994349  0  0  0.082381  0  0.996366  0  0  0.10301  0.084028  0  0.992989  0
H  H7  1  0.11113344  0.41678662  0.77794939  1  0  0.065218  0  0.932192  0  0  0.083406  0  0.994327  0  0  0.082422  0  0.996339  0  0  0.10302  0.084074  0  0.992987  0
H  H8  1  0.31774952  0.06022591  0.40663185  1  0  0.059553  0  0.918688  0  0  0.078561  0  0.97721  0  0  0.078398  0  0.978087  0  0  0.100931  0.078611  0  0.976718  0
H  H9  1  0.93976799  0.68223173  0.09336531  1  0  0.059581  0  0.918882  0  0  0.078575  0  0.977368  0  0  0.078413  0  0.978244  0  0  0.100935  0.078629  0  0.976877  0
H  H10  1  0.68224839  0.93977046  0.59336749  1  0  0.059544  0  0.918639  0  0  0.078558  0  0.977167  0  0  0.078396  0  0.978044  0  0  0.100921  0.078608  0  0.976672  0
H  H11  1  0.06024076  0.31776590  0.90664112  1  0  0.0596  0  0.918806  0  0  0.078587  0  0.977326  0  0  0.078425  0  0.9782  0  0  0.10096  0.078649  0  0.976836  0
H  H12  1  0.31624140  0.79266294  0.33139793  1  0  0.056279  0  0.940385  0  0  0.069402  0  1.006773  0  0  0.069248  0  1.007497  0  0  0.098517  0.069393  0  1.006427  0
H  H13  1  0.20731565  0.68377045  0.16860228  1  0  0.056184  0  0.940313  0  0  0.069346  0  1.006708  0  0  0.069199  0  1.007427  0  0  0.098451  0.069338  0  1.006361  0
H  H14  1  0.68375521  0.20733888  0.66860093  1  0  0.056085  0  0.94027  0  0  0.06924  0  1.006676  0  0  0.069068  0  1.007415  0  0  0.098421  0.069233  0  1.006331  0
H  H15  1  0.79267945  0.31622853  0.83141122  1  0  0.056133  0  0.94011  0  0  0.069262  0  1.006555  0  0  0.069121  0  1.007273  0  0  0.098437  0.069256  0  1.006209  0
H  H16  1  0.55992549  0.80475041  0.29229169  1  0  0.050391  0  0.946169  0  0  0.063215  0  1.013044  0  0  0.063335  0  1.013604  0  0  0.096193  0.063077  0  1.012736  0
H  H17  1  0.19523417  0.44008414  0.20771568  1  0  0.050421  0  0.946266  0  0  0.063295  0  1.013095  0  0  0.063417  0  1.013654  0  0  0.09623  0.063157  0  1.012788  0
H  H18  1  0.44007257  0.19525688  0.70770285  1  0  0.050356  0  0.946195  0  0  0.063196  0  1.013058  0  0  0.063315  0  1.013618  0  0  0.096206  0.063061  0  1.012752  0
H  H19  1  0.80474727  0.55991214  0.79230040  1  0  0.050403  0  0.946193  0  0  0.06325  0  1.013028  0  0  0.063375  0  1.013595  0  0  0.096245  0.063115  0  1.01272  0
H  H20  1  0.61972064  0.52637382  0.39448386  1  0  0.046455  0  0.933384  0  0  0.059609  0  1.001146  0  0  0.060318  0  1.000857  0  0  0.095272  0.059056  0  1.001449  0
H  H21  1  0.47362842  0.38028207  0.10552909  1  0  0.046405  0  0.933546  0  0  0.059561  0  1.001272  0  0  0.060264  0  1.000987  0  0  0.09524  0.059007  0  1.001577  0
H  H22  1  0.38028834  0.47364022  0.60551290  1  0  0.046464  0  0.933346  0  0  0.059607  0  1.001156  0  0  0.060315  0  1.000871  0  0  0.095289  0.059054  0  1.00146  0
H  H23  1  0.52636080  0.61968414  0.89449944  1  0  0.046577  0  0.933604  0  0  0.059748  0  1.001327  0  0  0.06046  0  1.001045  0  0  0.095316  0.059193  0  1.001631  0
H  H24  1  0.37800577  0.48344852  0.42795629  1  0  0.041037  0  0.9349  0  0  0.050075  0  1.011127  0  0  0.052531  0  1.006546  0  0  0.091281  0.047956  0  1.01476  0
H  H25  1  0.51655388  0.62199243  0.07205165  1  0  0.041008  0  0.934936  0  0  0.050032  0  1.011153  0  0  0.052494  0  1.006567  0  0  0.091225  0.047909  0  1.01479  0
H  H26  1  0.62200181  0.51656009  0.57203912  1  0  0.040968  0  0.934861  0  0  0.050039  0  1.011086  0  0  0.052502  0  1.006501  0  0  0.09124  0.047911  0  1.014727  0
H  H27  1  0.48345441  0.37797643  0.92797650  1  0  0.041123  0  0.934791  0  0  0.050143  0  1.011057  0  0  0.052601  0  1.00648  0  0  0.091293  0.048031  0  1.014681  0
H  H28  1  0.64357491  0.99071056  0.42442779  1  0  0.290527  0  0.906902  0  0  0.279739  0  0.965772  0  0  0.285259  0  0.962404  0  0  0.293229  0.27579  0  0.968246  0
H  H29  1  0.00929944  0.35640994  0.07557040  1  0  0.29045  0  0.906925  0  0  0.279656  0  0.965795  0  0  0.285173  0  0.962439  0  0  0.293178  0.275707  0  0.968264  0
H  H30  1  0.35641907  0.00929945  0.57556902  1  0  0.290484  0  0.906926  0  0  0.279718  0  0.965748  0  0  0.285236  0  0.962388  0  0  0.293206  0.275772  0  0.968219  0
H  H31  1  0.99070670  0.64359589  0.92443257  1  0  0.290517  0  0.906833  0  0  0.279761  0  0.965662  0  0  0.285282  0  0.962297  0  0  0.293195  0.275815  0  0.96813  0
H  H32  1  0.59121549  0.20378349  0.39873127  1  0  0.288914  0  0.926309  0  0  0.279425  0  0.983917  0  0  0.284424  0  0.981371  0  0  0.290046  0.275854  0  0.985757  0
H  H33  1  0.79622612  0.40877125  0.10125629  1  0  0.288905  0  0.926332  0  0  0.279423  0  0.983941  0  0  0.284422  0  0.981395  0  0  0.290028  0.275849  0  0.985787  0
H  H34  1  0.40877846  0.79622245  0.60126461  1  0  0.288911  0  0.926298  0  0  0.279455  0  0.983882  0  0  0.284454  0  0.981335  0  0  0.290052  0.275883  0  0.985728  0
H  H35  1  0.20378562  0.59124011  0.89873409  1  0  0.288958  0  0.926332  0  0  0.279477  0  0.983922  0  0  0.284476  0  0.981377  0  0  0.290078  0.275904  0  0.985767  0
C  C36  1  0.95528989  0.69171650  0.40323586  1  0  0.079229  0  3.497927  0  0  0.048144  0  3.831443  0  0  0.056079  0  3.835299  0  0  0.021219  0.040316  0  3.828707  0
C  C37  1  0.30827896  0.04472490  0.09675374  1  0  0.079172  0  3.497761  0  0  0.048064  0  3.831326  0  0  0.055999  0  3.835179  0  0  0.021171  0.040232  0  3.828593  0
C  C38  1  0.04473115  0.30827170  0.59675470  1  0  0.079269  0  3.498023  0  0  0.048185  0  3.831554  0  0  0.05612  0  3.835406  0  0  0.021238  0.04036  0  3.828822  0
C  C39  1  0.69172178  0.95527426  0.90323577  1  0  0.079336  0  3.497749  0  0  0.048251  0  3.831272  0  0  0.056186  0  3.835128  0  0  0.021227  0.040419  0  3.828543  0
C  C40  1  0.00853543  0.65676463  0.58169985  1  0  0.081515  0  3.499104  0  0  0.047389  0  3.834478  0  0  0.05607  0  3.837654  0  0  0.01957  0.039013  0  3.832235  0
C  C41  1  0.34322117  0.99148454  0.91828519  1  0  0.081669  0  3.498878  0  0  0.047506  0  3.834307  0  0  0.056188  0  3.837481  0  0  0.019605  0.039125  0  3.832065  0
C  C42  1  0.99148425  0.34321548  0.41828190  1  0  0.081717  0  3.499184  0  0  0.0476  0  3.834539  0  0  0.056278  0  3.837718  0  0  0.019705  0.039227  0  3.832293  0
C  C43  1  0.65676733  0.00851872  0.08170879  1  0  0.081505  0  3.499272  0  0  0.047359  0  3.834653  0  0  0.056037  0  3.837831  0  0  0.019557  0.03898  0  3.832406  0
C  C44  1  0.43649020  0.03387253  0.35026479  1  0  0.064908  0  3.654317  0  0  0.004254  0  3.92397  0  0  0.008345  0  3.936447  0  0  -0.076354  0.001521  0  3.915213  0
C  C45  1  0.96612802  0.56351263  0.14972972  1  0  0.064713  0  3.65464  0  0  0.004127  0  3.924165  0  0  0.00822  0  3.936647  0  0  -0.076372  0.001378  0  3.915431  0
C  C46  1  0.56350096  0.96612796  0.64973273  1  0  0.064956  0  3.654223  0  0  0.004271  0  3.923923  0  0  0.008362  0  3.936396  0  0  -0.076305  0.001546  0  3.915156  0
C  C47  1  0.03387683  0.43649868  0.85026994  1  0  0.064738  0  3.654609  0  0  0.004113  0  3.924148  0  0  0.008216  0  3.936625  0  0  -0.076377  0.00133  0  3.915459  0
C  C48  1  0.44230844  0.83341392  0.34880775  1  0  0.05694  0  3.64218  0  0  0.000887  0  3.910181  0  0  0.006583  0  3.917952  0  0  -0.073687  -0.002907  0  3.904729  0
C  C49  1  0.16659165  0.55768539  0.15119207  1  0  0.05709  0  3.641864  0  0  0.000935  0  3.909997  0  0  0.006626  0  3.917767  0  0  -0.07364  -0.002853  0  3.904549  0
C  C50  1  0.55768546  0.16658793  0.65118860  1  0  0.057275  0  3.641709  0  0  0.00122  0  3.909793  0  0  0.006936  0  3.91756  0  0  -0.07357  -0.002577  0  3.904344  0
C  C51  1  0.83340753  0.44231358  0.84882025  1  0  0.057109  0  3.641527  0  0  0.001029  0  3.909592  0  0  0.006695  0  3.917393  0  0  -0.073673  -0.002752  0  3.904155  0
C  C52  1  0.49223721  0.54536794  0.44763414  1  0  0.061845  0  3.682564  0  0  0.000906  0  3.961895  0  0  0.00692  0  3.967687  0  0  -0.073953  -0.003109  0  3.958044  0
C  C53  1  0.45463645  0.50775754  0.05237888  1  0  0.061831  0  3.682884  0  0  0.000989  0  3.962105  0  0  0.007005  0  3.967904  0  0  -0.073822  -0.003028  0  3.958258  0
C  C54  1  0.50777310  0.45464066  0.55236097  1  0  0.061871  0  3.682604  0  0  0.000861  0  3.962063  0  0  0.006861  0  3.967873  0  0  -0.073966  -0.003148  0  3.958217  0
C  C55  1  0.54536375  0.49221952  0.94764926  1  0  0.061546  0  3.682961  0  0  0.000542  0  3.962411  0  0  0.006543  0  3.968219  0  0  -0.074079  -0.003475  0  3.958556  0
N  N56  1  0.92735890  0.81354976  0.34088201  1  0  -0.439194  0  2.950455  0  0  -0.372529  0  3.238629  0  0  -0.39123  0  3.250163  0  0  -0.363332  -0.359161  0  3.231043  0
N  N57  1  0.18645106  0.07265542  0.15910573  1  0  -0.4391  0  2.950317  0  0  -0.372452  0  3.238536  0  0  -0.39115  0  3.250068  0  0  -0.363284  -0.359084  0  3.230952  0
N  N58  1  0.07264724  0.18644529  0.65910877  1  0  -0.439158  0  2.950582  0  0  -0.372496  0  3.238754  0  0  -0.391196  0  3.250285  0  0  -0.363291  -0.359128  0  3.231169  0
N  N59  1  0.81354418  0.92733697  0.84088307  1  0  -0.439262  0  2.950334  0  0  -0.372628  0  3.238553  0  0  -0.391325  0  3.250081  0  0  -0.363342  -0.359261  0  3.230976  0
N  N60  1  0.01286874  0.75527092  0.63484086  1  0  -0.446829  0  2.956648  0  0  -0.378143  0  3.244034  0  0  -0.397243  0  3.2555  0  0  -0.366773  -0.36452  0  3.236511  0
N  N61  1  0.24471446  0.98715287  0.86514411  1  0  -0.446941  0  2.956618  0  0  -0.378248  0  3.244041  0  0  -0.397346  0  3.255505  0  0  -0.366816  -0.364622  0  3.236516  0
N  N62  1  0.98714002  0.24471190  0.36514819  1  0  -0.44695  0  2.957052  0  0  -0.37826  0  3.244458  0  0  -0.397359  0  3.255925  0  0  -0.36686  -0.364633  0  3.23693  0
N  N63  1  0.75526188  0.01285726  0.13484694  1  0  -0.446789  0  2.957015  0  0  -0.378086  0  3.244396  0  0  -0.397185  0  3.255864  0  0  -0.366762  -0.36446  0  3.23687  0
N  N64  1  0.60896798  0.09005924  0.36945836  1  0  -0.648482  0  3.086407  0  0  -0.593792  0  3.334677  0  0  -0.613074  0  3.334111  0  0  -0.63165  -0.580071  0  3.334658  0
N  N65  1  0.90994092  0.39103964  0.13053556  1  0  -0.64839  0  3.086575  0  0  -0.593707  0  3.334816  0  0  -0.612992  0  3.334254  0  0  -0.631605  -0.579976  0  3.334797  0
N  N66  1  0.39102055  0.90995079  0.63053908  1  0  -0.648517  0  3.086555  0  0  -0.593845  0  3.334791  0  0  -0.613127  0  3.334224  0  0  -0.631638  -0.580126  0  3.33477  0
N  N67  1  0.09006265  0.60897849  0.86946205  1  0  -0.648554  0  3.086621  0  0  -0.593886  0  3.334825  0  0  -0.61317  0  3.334254  0  0  -0.631651  -0.580147  0  3.334818  0
O  O68  1  0.46046669  0.73342699  0.44503124  1  0  -0.324566  0  2.281341  0  0  -0.248723  0  2.53175  0  0  -0.265124  0  2.534828  0  0  -0.232355  -0.23711  0  2.529286  0
O  O69  1  0.26657894  0.53953680  0.05496522  1  0  -0.324376  0  2.281253  0  0  -0.24868  0  2.531776  0  0  -0.265085  0  2.53486  0  0  -0.232353  -0.237068  0  2.529311  0
O  O70  1  0.53953954  0.26658299  0.55496417  1  0  -0.324574  0  2.281332  0  0  -0.24881  0  2.531843  0  0  -0.265211  0  2.534922  0  0  -0.232374  -0.237195  0  2.529377  0
O  O71  1  0.73342707  0.46046622  0.94504868  1  0  -0.324356  0  2.280981  0  0  -0.248599  0  2.531488  0  0  -0.264994  0  2.534582  0  0  -0.232296  -0.236986  0  2.529021  0
