# generated using pymatgen
data_Zn4H20C44Br8O13
_symmetry_space_group_name_H-M   'P 1'
_cell_length_a   23.71868867
_cell_length_b   23.71887871
_cell_length_c   23.72219045
_cell_angle_alpha   66.09392293
_cell_angle_beta   72.71715252
_cell_angle_gamma   107.31113192
_symmetry_Int_Tables_number   1
_chemical_formula_structural   Zn4H20C44Br8O13
_chemical_formula_sum   'Zn8 H40 C88 Br16 O26'
_cell_volume   10227.76348924
_cell_formula_units_Z   2
loop_
 _symmetry_equiv_pos_site_id
 _symmetry_equiv_pos_as_xyz
  1  'x, y, z'
loop_
 _atom_site_type_symbol
 _atom_site_label
 _atom_site_symmetry_multiplicity
 _atom_site_fract_x
 _atom_site_fract_y
 _atom_site_fract_z
 _atom_site_occupancy
 _atom_site_pbe_bader_charge
 _atom_site_pbe_bader_spin_density
 _atom_site_pbe_cm5_charge
 _atom_site_pbe_ddec_charge
 _atom_site_pbe_ddec_spin_density
 _atom_site_pbe_ddec_sum_bond_order
 _atom_site_pbe_magmom
Zn  Zn0  1  0.05958915  0.95908344  0.48808563  1  1.314251  0  0.675557  0.960241  0  2.370963  0
Zn  Zn1  1  0.05961535  0.10049070  0.45235196  1  1.313284  0  0.675442  0.959921  0  2.370851  0
Zn  Zn2  1  0.94035872  0.98801234  0.45913826  1  1.314493  0  0.67554  0.960176  0  2.371115  0
Zn  Zn3  1  0.94039979  0.95231339  0.60047346  1  1.313633  0  0.675505  0.960015  0  2.370956  0
Zn  Zn4  1  0.94716568  0.54763662  0.01193244  1  1.31375  0  0.67543  0.959834  0  2.371644  0
Zn  Zn5  1  0.05282637  0.51193451  0.04767245  1  1.313642  0  0.675474  0.960024  0  2.370732  0
Zn  Zn6  1  0.94715863  0.39946514  0.04088029  1  1.313928  0  0.675567  0.960227  0  2.37025  0
Zn  Zn7  1  0.05281798  0.54086780  0.89953117  1  1.313976  0  0.675494  0.960069  0  2.371291  0
H  H8  1  0.92217695  0.65237397  0.11466801  1  0.137483  0  0.113268  0.13473  0  0.989412  0
H  H9  1  0.07778484  0.61469155  0.15246020  1  0.13815  0  0.11333  0.134671  0  0.989198  0
H  H10  1  0.92510159  0.89302231  0.34785905  1  0.121354  0  0.112969  0.134848  0  0.987472  0
H  H11  1  0.07494304  0.84796729  0.39295682  1  0.121808  0  0.112972  0.134678  0  0.987648  0
H  H12  1  0.07776335  0.46314790  0.76979295  1  0.121654  0  0.113269  0.134702  0  0.989201  0
H  H13  1  0.92223359  0.26970611  0.96308345  1  0.123198  0  0.113301  0.134592  0  0.989232  0
H  H14  1  0.07490506  0.22701013  0.53208094  1  0.153943  0  0.113019  0.134868  0  0.987576  0
H  H15  1  0.92510065  0.03206935  0.72695973  1  0.153426  0  0.11304  0.134722  0  0.987907  0
H  H16  1  0.74093176  0.46791147  0.10702296  1  0.120293  0  0.112977  0.134778  0  0.987763  0
H  H17  1  0.74088253  0.27296684  0.15208299  1  0.118983  0  0.113033  0.134949  0  0.987482  0
H  H18  1  0.26716068  0.23027059  0.34748081  1  0.108842  0  0.113334  0.13486  0  0.989124  0
H  H19  1  0.26704916  0.03683331  0.38536487  1  0.154852  0  0.113255  0.134692  0  0.989223  0
H  H20  1  0.25909704  0.60709797  0.96792374  1  0.120271  0  0.113  0.134767  0  0.987736  0
H  H21  1  0.25904538  0.65206884  0.77307238  1  0.119452  0  0.112987  0.13462  0  0.987838  0
H  H22  1  0.73290843  0.84748521  0.73022281  1  0.10819  0  0.113297  0.134869  0  0.989238  0
H  H23  1  0.73282696  0.88539766  0.53688037  1  0.154891  0  0.113317  0.134768  0  0.988892  0
H  H24  1  0.86690493  0.78894945  0.79423593  1  0.026919  0  0.096161  0.135012  0  0.98251  0
H  H25  1  0.94173974  0.86905816  0.74694505  1  0.019258  0  0.091609  0.132201  0  1.014018  0
H  H26  1  0.91349218  0.80795810  0.83637740  1  0.025822  0  0.091953  0.125537  0  1.006116  0
H  H27  1  0.08333462  0.66119872  0.70581084  1  0.025616  0  0.09624  0.135136  0  0.983011  0
H  H28  1  0.11604994  0.68874007  0.75316199  1  0.044111  0  0.091401  0.132033  0  1.01399  0
H  H29  1  0.14444288  0.74994495  0.66371908  1  0.050673  0  0.091801  0.125109  0  1.007217  0
H  H30  1  0.91668135  0.71091047  0.92208067  1  0.04604  0  0.096263  0.135224  0  0.983151  0
H  H31  1  0.88395564  0.63082297  0.92728584  1  0.045985  0  0.091423  0.132056  0  1.014227  0
H  H32  1  0.85556211  0.69188474  0.89446358  1  0.039196  0  0.091814  0.125282  0  1.007152  0
H  H33  1  0.13309941  0.83885369  0.57798640  1  0.052555  0  0.096136  0.134984  0  0.982492  0
H  H34  1  0.05826607  0.81128435  0.57271287  1  0.043952  0  0.091613  0.132138  0  1.014071  0
H  H35  1  0.08654411  0.75011451  0.60556205  1  0.021417  0  0.09189  0.125293  0  1.00665  0
H  H36  1  0.86700677  0.07783125  0.33874767  1  0.054939  0  0.096217  0.135089  0  0.98299  0
H  H37  1  0.94189060  0.07266468  0.31124095  1  0.043053  0  0.091453  0.132091  0  1.01395  0
H  H38  1  0.91363160  0.10545841  0.25003580  1  0.038942  0  0.09182  0.125068  0  1.007508  0
H  H39  1  0.08320116  0.42207182  0.21106950  1  0.046227  0  0.096197  0.135072  0  0.982576  0
H  H40  1  0.11599837  0.42732895  0.13099546  1  0.047524  0  0.091831  0.132587  0  1.013977  0
H  H41  1  0.14434039  0.39449662  0.19210007  1  0.019222  0  0.091981  0.125489  0  1.006574  0
H  H42  1  0.91680497  0.20571426  0.16112828  1  0.023465  0  0.096196  0.135131  0  0.982534  0
H  H43  1  0.88398029  0.25298036  0.18867834  1  0.047624  0  0.091689  0.132375  0  1.01414  0
H  H44  1  0.85566025  0.16353179  0.24983017  1  0.002563  0  0.092024  0.125466  0  1.006601  0
H  H45  1  0.13300897  0.29424985  0.28912936  1  0.029137  0  0.096209  0.135083  0  0.983038  0
H  H46  1  0.05814092  0.24687714  0.36918011  1  0.020341  0  0.091358  0.131892  0  1.014153  0
H  H47  1  0.08637960  0.33634331  0.30813715  1  0.02451  0  0.091845  0.125193  0  1.007353  0
C  C48  1  0.18461311  0.09230288  0.40770391  1  1.534283  0  0.230947  0.606188  0  4.157431  0
C  C49  1  0.99998707  0.13805156  0.36193462  1  1.521162  0  0.226754  0.613954  0  4.13042  0
C  C50  1  0.99998157  0.91173934  0.41175836  1  1.506631  0  0.231216  0.61031  0  4.151223  0
C  C51  1  0.81536207  0.90766550  0.59230695  1  1.534444  0  0.230975  0.60614  0  4.157349  0
C  C52  1  0.99999639  0.86188402  0.63810538  1  1.522512  0  0.227128  0.614193  0  4.131404  0
C  C53  1  0.00000183  0.08823488  0.58822072  1  1.511552  0  0.231079  0.610376  0  4.151942  0
C  C54  1  0.00000883  0.59231504  0.09230080  1  1.539789  0  0.231128  0.606466  0  4.157279  0
C  C55  1  0.99999710  0.36189545  0.13809470  1  1.514894  0  0.227266  0.614935  0  4.130505  0
C  C56  1  0.82351189  0.41175373  0.08821305  1  1.517076  0  0.231264  0.610011  0  4.151039  0
C  C57  1  0.99997998  0.40766712  0.90769329  1  1.537832  0  0.231173  0.606635  0  4.157028  0
C  C58  1  0.99998932  0.63805892  0.86192598  1  1.515388  0  0.226883  0.614223  0  4.130173  0
C  C59  1  0.17646873  0.58824639  0.91179865  1  1.518231  0  0.231121  0.610098  0  4.151553  0
C  C60  1  0.99999532  0.80403343  0.69596755  1  -0.037313  0  -0.018045  -0.152994  0  3.909818  0
C  C61  1  0.99999795  0.69592383  0.80406554  1  -0.021969  0  -0.017957  -0.154221  0  3.911042  0
C  C62  1  0.95798949  0.77899230  0.76668892  1  -0.011814  0  -0.001152  0.0988  0  3.906799  0
C  C63  1  0.04573359  0.72470205  0.73334577  1  0.026428  0  -0.001237  0.099347  0  3.907779  0
C  C64  1  0.95426779  0.72094078  0.82101189  1  0.042614  0  -0.001046  0.099852  0  3.906289  0
C  C65  1  0.04201364  0.77530427  0.67901733  1  -0.016056  0  -0.000974  0.098985  0  3.906123  0
C  C66  1  0.99999830  0.19592324  0.30407032  1  -0.036927  0  -0.017882  -0.154088  0  3.910495  0
C  C67  1  0.99998920  0.30402655  0.19596363  1  -0.02368  0  -0.018325  -0.154951  0  3.910497  0
C  C68  1  0.95803274  0.17894776  0.27528372  1  -0.013253  0  -0.001038  0.09958  0  3.90704  0
C  C69  1  0.04568729  0.32101090  0.22102513  1  -0.012054  0  -0.000834  0.099735  0  3.906122  0
C  C70  1  0.95430083  0.23326893  0.22468087  1  0.028732  0  -0.001144  0.099384  0  3.907195  0
C  C71  1  0.04196225  0.26667595  0.27907374  1  0.043978  0  -0.001118  0.099647  0  3.906893  0
C  C72  1  0.99999621  0.62987008  0.12987103  1  0.08817  0  -0.010222  0.000439  0  3.968423  0
C  C73  1  0.95610519  0.65806852  0.13673879  1  0.041121  0  -0.08773  -0.15208  0  3.968098  0
C  C74  1  0.95649852  0.69316824  0.17141466  1  -0.144217  0  -0.003799  0.089016  0  3.911847  0
C  C75  1  0.99994586  0.70120590  0.20122399  1  0.207903  0  -0.004296  0.048198  0  4.058216  0
C  C76  1  0.04339324  0.67140245  0.19324074  1  -0.140662  0  -0.00419  0.088243  0  3.912515  0
C  C77  1  0.04384744  0.63674684  0.15812256  1  0.037542  0  -0.087563  -0.151463  0  3.968086  0
C  C78  1  0.99996402  0.73664552  0.23661629  1  -0.17022  0  -0.039637  -0.065731  0  4.108567  0
C  C79  1  0.00001843  0.76743471  0.26733289  1  -0.066856  0  -0.041057  -0.069503  0  4.113797  0
C  C80  1  0.00004181  0.80287113  0.30272659  1  0.097338  0  -0.003964  0.047345  0  4.064173  0
C  C81  1  0.95771928  0.83408721  0.30930724  1  -0.065442  0  -0.004448  0.089354  0  3.914958  0
C  C82  1  0.95775960  0.86933654  0.34382266  1  0.024105  0  -0.08838  -0.153655  0  3.968276  0
C  C83  1  0.00001320  0.87418071  0.37411135  1  0.01101  0  -0.011602  -0.001346  0  3.966774  0
C  C84  1  0.04228941  0.84393164  0.36924675  1  0.024961  0  -0.08839  -0.153032  0  3.967925  0
C  C85  1  0.04236491  0.80945830  0.33395559  1  -0.064964  0  -0.004296  0.089178  0  3.915177  0
C  C86  1  0.99998105  0.37010435  0.87010849  1  0.135457  0  -0.010451  -0.000196  0  3.968016  0
C  C87  1  0.04384777  0.40714230  0.79802680  1  0.038864  0  -0.087599  -0.151602  0  3.967914  0
C  C88  1  0.04344782  0.37207608  0.76331885  1  -0.187631  0  -0.004102  0.088501  0  3.911731  0
C  C89  1  0.00004173  0.29880731  0.79873696  1  0.255593  0  -0.004068  0.048143  0  4.057404  0
C  C90  1  0.95662611  0.26331628  0.87198639  1  -0.158107  0  -0.004216  0.08835  0  3.912054  0
C  C91  1  0.95614903  0.29798318  0.90709639  1  0.035376  0  -0.087399  -0.151082  0  3.967008  0
C  C92  1  0.00005063  0.26338978  0.76331336  1  -0.166983  0  -0.03989  -0.065613  0  4.10905  0
C  C93  1  0.00004357  0.23263081  0.73256965  1  -0.175864  0  -0.040909  -0.06982  0  4.113599  0
C  C94  1  0.00002515  0.19719634  0.69715682  1  0.205498  0  -0.003782  0.047923  0  4.062821  0
C  C95  1  0.04233101  0.23295218  0.62362613  1  -0.117332  0  -0.004437  0.089193  0  3.914842  0
C  C96  1  0.04226839  0.19839768  0.58841313  1  0.035601  0  -0.088502  -0.153632  0  3.968453  0
C  C97  1  0.00000400  0.12585280  0.62582757  1  0.024823  0  -0.011443  -0.001574  0  3.96662  0
C  C98  1  0.95774579  0.08841890  0.69835036  1  0.035832  0  -0.088473  -0.153063  0  3.968378  0
C  C99  1  0.95770593  0.12364389  0.73289580  1  -0.115407  0  -0.004467  0.089093  0  3.915015  0
C  C100  1  0.74829674  0.37412410  0.12585696  1  0.039511  0  -0.011606  -0.001048  0  3.96604  0
C  C101  1  0.71319374  0.41155287  0.13072203  1  0.092478  0  -0.088435  -0.153613  0  3.967973  0
C  C102  1  0.64341922  0.37633212  0.16601004  1  -0.140378  0  -0.004335  0.089337  0  3.914859  0
C  C103  1  0.60560716  0.30278125  0.19722735  1  0.080386  0  -0.003974  0.047602  0  4.064029  0
C  C104  1  0.64339208  0.26703042  0.19064446  1  -0.043879  0  -0.004338  0.089379  0  3.914761  0
C  C105  1  0.71316300  0.30158980  0.15612850  1  -0.034528  0  -0.088545  -0.153884  0  3.968491  0
C  C106  1  0.53476840  0.26735533  0.23263538  1  -0.106574  0  -0.041106  -0.069686  0  4.114777  0
C  C107  1  0.47327230  0.23659682  0.26336176  1  -0.102247  0  -0.039648  -0.065707  0  4.10934  0
C  C108  1  0.40243396  0.20118185  0.29876613  1  0.185138  0  -0.004414  0.04819  0  4.057527  0
C  C109  1  0.36465529  0.23666272  0.30670298  1  -0.144068  0  -0.003925  0.088636  0  3.912065  0
C  C110  1  0.29487528  0.20199037  0.34184062  1  0.065468  0  -0.087634  -0.151978  0  3.968092  0
C  C111  1  0.25975412  0.12987726  0.37011954  1  0.10748  0  -0.010053  0.000758  0  3.96828  0
C  C112  1  0.29481211  0.09284021  0.36327957  1  -0.072124  0  -0.087846  -0.152002  0  3.967953  0
C  C113  1  0.36459130  0.12791397  0.32860964  1  -0.046299  0  -0.003819  0.088738  0  3.911699  0
C  C114  1  0.25168159  0.62588137  0.87419206  1  0.037445  0  -0.011502  -0.001326  0  3.966504  0
C  C115  1  0.28681563  0.63078573  0.91159364  1  0.093686  0  -0.088764  -0.153853  0  3.968434  0
C  C116  1  0.35658380  0.66609062  0.87637165  1  -0.145875  0  -0.004299  0.089153  0  3.915223  0
C  C117  1  0.39436275  0.69729761  0.80284753  1  0.080521  0  -0.003813  0.047911  0  4.062633  0
C  C118  1  0.35654791  0.69067518  0.76712259  1  -0.048762  0  -0.004371  0.089198  0  3.914554  0
C  C119  1  0.28678168  0.65613972  0.80167268  1  -0.025544  0  -0.08843  -0.153129  0  3.968058  0
C  C120  1  0.46520678  0.73271370  0.76741992  1  -0.104193  0  -0.041111  -0.069835  0  4.113327  0
C  C121  1  0.52670802  0.76343989  0.73663370  1  -0.104228  0  -0.039701  -0.065513  0  4.108526  0
C  C122  1  0.59754386  0.79882356  0.70121225  1  0.192164  0  -0.004034  0.048367  0  4.057518  0
C  C123  1  0.63537964  0.80674074  0.73665553  1  -0.150322  0  -0.004128  0.088492  0  3.912401  0
C  C124  1  0.70515211  0.84184518  0.70197197  1  0.065836  0  -0.087743  -0.152071  0  3.968114  0
C  C125  1  0.74021878  0.87010523  0.62987751  1  0.107019  0  -0.010332  0.00033  0  3.967993  0
C  C126  1  0.70510056  0.86330361  0.59287597  1  -0.077498  0  -0.087536  -0.151551  0  3.967686  0
C  C127  1  0.63532792  0.82869527  0.62795331  1  -0.042072  0  -0.004141  0.088329  0  3.912289  0
C  C128  1  0.91807912  0.81311171  0.78693076  1  0.012708  0  -0.240816  -0.401715  0  3.98349  0
C  C129  1  0.10012873  0.70506528  0.71313794  1  -0.037388  0  -0.240458  -0.401251  0  3.984988  0
C  C130  1  0.89987210  0.68676436  0.89504024  1  -0.05639  0  -0.240535  -0.401699  0  3.984813  0
C  C131  1  0.08193956  0.79497292  0.60499214  1  -0.031066  0  -0.24077  -0.401398  0  3.983175  0
C  C132  1  0.91818202  0.10489448  0.29490995  1  -0.051299  0  -0.24057  -0.401232  0  3.985082  0
C  C133  1  0.10005184  0.39506116  0.18692470  1  -0.038419  0  -0.241168  -0.40224  0  3.983977  0
C  C134  1  0.89994395  0.21299779  0.20499505  1  0.009481  0  -0.241011  -0.401977  0  3.984447  0
C  C135  1  0.08182498  0.28690822  0.31325348  1  0.009051  0  -0.240491  -0.401234  0  3.985424  0
Br  Br136  1  0.10301111  0.67858774  0.23132220  1  -0.036565  0  0.024093  -0.06132  0  1.414454  0
Br  Br137  1  0.89677090  0.73109286  0.17865905  1  -0.038627  0  0.024065  -0.061422  0  1.413967  0
Br  Br138  1  0.10114203  0.77034775  0.32780591  1  -0.040157  0  0.024513  -0.060766  0  1.416401  0
Br  Br139  1  0.89895352  0.82793329  0.27016261  1  -0.039924  0  0.024489  -0.060849  0  1.415655  0
Br  Br140  1  0.89713598  0.16558867  0.92441566  1  -0.038512  0  0.024135  -0.061327  0  1.414713  0
Br  Br141  1  0.10311380  0.42457018  0.66566670  1  -0.038378  0  0.024054  -0.061325  0  1.413817  0
Br  Br142  1  0.89896434  0.07101487  0.83078266  1  -0.040552  0  0.024499  -0.060815  0  1.416117  0
Br  Br143  1  0.10107478  0.33087669  0.57101586  1  -0.040139  0  0.024433  -0.060845  0  1.415327  0
Br  Br144  1  0.59808964  0.16910705  0.22979599  1  -0.037486  0  0.024531  -0.060808  0  1.415226  0
Br  Br145  1  0.59817000  0.42897046  0.17215790  1  -0.037623  0  0.024542  -0.060759  0  1.416431  0
Br  Br146  1  0.40975638  0.07541081  0.32142628  1  -0.033806  0  0.024073  -0.061352  0  1.41393  0
Br  Br147  1  0.40992957  0.33439195  0.26850516  1  -0.04137  0  0.023992  -0.061454  0  1.414207  0
Br  Br148  1  0.40180601  0.72979255  0.66923759  1  -0.038061  0  0.024487  -0.060815  0  1.416017  0
Br  Br149  1  0.40189067  0.67226468  0.92897390  1  -0.037312  0  0.024621  -0.060589  0  1.41603  0
Br  Br150  1  0.59005629  0.82170627  0.57549170  1  -0.031639  0  0.024132  -0.061306  0  1.414498  0
Br  Br151  1  0.59017962  0.76861216  0.83433773  1  -0.041835  0  0.024069  -0.061374  0  1.414123  0
O  O152  1  0.99999552  0.99997907  0.50000116  1  -1.233126  0  -0.578512  -1.033003  0  2.567139  0
O  O153  1  0.15560470  0.02838532  0.42596080  1  -1.174572  0  -0.311936  -0.538478  0  2.322001  0
O  O154  1  0.05457963  0.15012928  0.36591972  1  -1.163341  0  -0.313955  -0.546963  0  2.345019  0
O  O155  1  0.96621944  0.94497425  0.40719189  1  -1.152967  0  -0.313301  -0.544805  0  2.328633  0
O  O156  1  0.15564209  0.12723725  0.41845011  1  -1.169713  0  -0.31202  -0.538508  0  2.321544  0
O  O157  1  0.03372306  0.90714948  0.44501716  1  -1.152037  0  -0.313256  -0.544579  0  2.328614  0
O  O158  1  0.94539692  0.07948380  0.40444660  1  -1.170833  0  -0.314099  -0.547244  0  2.345138  0
O  O159  1  0.84433049  0.92591142  0.52841013  1  -1.17454  0  -0.312014  -0.538493  0  2.321825  0
O  O160  1  0.94540773  0.86585829  0.65015349  1  -1.164198  0  -0.314091  -0.547288  0  2.344993  0
O  O161  1  0.84437553  0.91840463  0.62721564  1  -1.168716  0  -0.312017  -0.53843  0  2.321781  0
O  O162  1  0.05456373  0.90441652  0.57954788  1  -1.169821  0  -0.314014  -0.547234  0  2.345613  0
O  O163  1  0.03374544  0.12658481  0.52123968  1  -1.154712  0  -0.313185  -0.544584  0  2.328802  0
O  O164  1  0.96626014  0.02123663  0.62655091  1  -1.1543  0  -0.313225  -0.544633  0  2.329075  0
O  O165  1  0.99999411  0.49997836  0.00000520  1  -1.231275  0  -0.578571  -1.03299  0  2.566962  0
O  O166  1  0.95434931  0.58154875  0.07404154  1  -1.170196  0  -0.312013  -0.538511  0  2.321646  0
O  O167  1  0.01603238  0.42046335  0.13412171  1  -1.162297  0  -0.314068  -0.547313  0  2.345242  0
O  O168  1  0.85216799  0.37341302  0.09278953  1  -1.153273  0  -0.313365  -0.544701  0  2.328583  0
O  O169  1  0.04568078  0.57408369  0.08155139  1  -1.170364  0  -0.312101  -0.538672  0  2.321449  0
O  O170  1  0.85216893  0.47875342  0.05495947  1  -1.143868  0  -0.31321  -0.544304  0  2.328628  0
O  O171  1  0.98394834  0.34981801  0.09557756  1  -1.162954  0  -0.314024  -0.547316  0  2.344826  0
O  O172  1  0.95432205  0.37274021  0.97158487  1  -1.168321  0  -0.312105  -0.538697  0  2.321646  0
O  O173  1  0.01603405  0.59553786  0.84986309  1  -1.162932  0  -0.314103  -0.54733  0  2.344917  0
O  O174  1  0.04564076  0.47157977  0.87279411  1  -1.168559  0  -0.31204  -0.538576  0  2.321614  0
O  O175  1  0.98394610  0.63408435  0.92048003  1  -1.162833  0  -0.314027  -0.547018  0  2.344983  0
O  O176  1  0.14781654  0.55499441  0.97877551  1  -1.145214  0  -0.313138  -0.544415  0  2.329077  0
O  O177  1  0.14780743  0.59282669  0.87345771  1  -1.153094  0  -0.313313  -0.544624  0  2.328584  0
