# generated using pymatgen
data_Cd2H42C36(N2O3)3
_symmetry_space_group_name_H-M   'P 1'
_cell_length_a   10.81590996
_cell_length_b   12.96450949
_cell_length_c   16.15320760
_cell_angle_alpha   75.80735534
_cell_angle_beta   72.76833515
_cell_angle_gamma   66.98544379
_symmetry_Int_Tables_number   1
_chemical_formula_structural   Cd2H42C36(N2O3)3
_chemical_formula_sum   'Cd4 H84 C72 N12 O18'
_cell_volume   1969.51220867
_cell_formula_units_Z   2
loop_
 _symmetry_equiv_pos_site_id
 _symmetry_equiv_pos_as_xyz
  1  'x, y, z'
loop_
 _atom_site_type_symbol
 _atom_site_label
 _atom_site_symmetry_multiplicity
 _atom_site_fract_x
 _atom_site_fract_y
 _atom_site_fract_z
 _atom_site_occupancy
 _atom_site_pbe_bader_charge
 _atom_site_pbe_bader_spin_density
 _atom_site_pbe_cm5_charge
 _atom_site_pbe_ddec_charge
 _atom_site_pbe_ddec_spin_density
 _atom_site_pbe_ddec_sum_bond_order
 _atom_site_pbe_magmom
Cd  Cd0  1  0.43497054  0.11774258  0.24085195  1  1.288574  0  0.775501  0.879365  0  2.2316  0
Cd  Cd1  1  0.56502862  0.88225859  0.75914969  1  1.288661  0  0.775521  0.879452  0  2.231543  0
Cd  Cd2  1  0.43646953  0.21430645  0.77896688  1  1.253154  0  0.760521  0.906135  0  2.107101  0
Cd  Cd3  1  0.56353192  0.78569385  0.22103386  1  1.253206  0  0.760514  0.906131  0  2.1071  0
H  H4  1  0.57925394  0.24850818  0.60064046  1  0.600746  0  0.323337  0.396589  0  0.881059  0
H  H5  1  0.42073807  0.75149391  0.39936117  1  0.600788  0  0.323338  0.396621  0  0.881067  0
H  H6  1  0.64881637  0.11921083  0.63741929  1  0.666796  0  0.287955  0.396146  0  0.947169  0
H  H7  1  0.35117924  0.88078954  0.36258196  1  0.666797  0  0.287995  0.396184  0  0.947106  0
H  H8  1  0.78661188  0.54371105  0.44961426  1  0.09454  0  0.105992  0.106728  0  0.98996  0
H  H9  1  0.21337057  0.45629794  0.55038050  1  0.094403  0  0.10603  0.106763  0  0.990027  0
H  H10  1  0.22144630  0.48709011  0.39148730  1  0.049539  0  0.109482  0.111924  0  0.980916  0
H  H11  1  0.77854102  0.51290447  0.60851175  1  0.049199  0  0.109443  0.111824  0  0.981044  0
H  H12  1  0.90697327  0.57615647  0.29944950  1  0.13434  0  0.122512  0.125968  0  0.9786  0
H  H13  1  0.09302193  0.42384734  0.70054313  1  0.134437  0  0.122496  0.12594  0  0.978855  0
H  H14  1  0.07531467  0.58063720  0.27430251  1  0.045357  0  0.122014  0.108865  0  0.969861  0
H  H15  1  0.92468907  0.41936225  0.72569670  1  0.045552  0  0.122027  0.1089  0  0.969873  0
H  H16  1  0.28765363  0.39507300  0.23924737  1  0.17349  0  0.149267  0.128188  0  0.982327  0
H  H17  1  0.71234233  0.60492653  0.76075336  1  0.173453  0  0.149241  0.128144  0  0.982325  0
H  H18  1  0.89112072  0.36821173  0.31026657  1  0.133579  0  0.14769  0.117589  0  0.965967  0
H  H19  1  0.10888640  0.63178173  0.68973931  1  0.133532  0  0.147665  0.117533  0  0.965951  0
H  H20  1  0.07578845  0.10789673  0.85757244  1  0.072516  0  0.105112  0.104446  0  1.023564  0
H  H21  1  0.92422306  0.89210264  0.14242649  1  0.072645  0  0.105019  0.104325  0  1.023369  0
H  H22  1  0.13059193  0.94237460  0.11674038  1  0.068264  0  0.102759  0.098598  0  1.027921  0
H  H23  1  0.86941993  0.05762390  0.88325988  1  0.068234  0  0.102673  0.098518  0  1.028067  0
H  H24  1  0.31918979  0.01773909  0.90673744  1  0.103733  0  0.119027  0.122397  0  1.024288  0
H  H25  1  0.68081949  0.98225861  0.09326100  1  0.10388  0  0.118992  0.122392  0  1.024253  0
H  H26  1  0.22174537  0.15215025  0.94218088  1  0.137611  0  0.12162  0.120225  0  0.996772  0
H  H27  1  0.77826425  0.84784662  0.05781642  1  0.137566  0  0.12161  0.120245  0  0.996829  0
H  H28  1  0.26292356  0.18892281  0.07593241  1  0.192465  0  0.152083  0.132737  0  0.99216  0
H  H29  1  0.73708572  0.81107490  0.92406542  1  0.192475  0  0.152061  0.132717  0  0.992223  0
H  H30  1  0.41325916  0.84745499  0.03465246  1  0.259107  0  0.149987  0.144073  0  1.005046  0
H  H31  1  0.58674784  0.15254359  0.96534565  1  0.259451  0  0.149971  0.14404  0  1.005012  0
H  H32  1  0.30578929  0.18043513  0.54242784  1  0.046244  0  0.089692  0.0947  0  1.004667  0
H  H33  1  0.69420861  0.81956438  0.45757189  1  0.046218  0  0.089685  0.094707  0  1.004674  0
H  H34  1  0.40911139  0.03653905  0.56747709  1  0.016046  0  0.091506  0.099351  0  1.005494  0
H  H35  1  0.59088782  0.96345961  0.43252131  1  0.016167  0  0.091514  0.099379  0  1.005491  0
H  H36  1  0.08991707  0.22948186  0.48953594  1  0.038181  0  0.086282  0.086348  0  0.999041  0
H  H37  1  0.91008112  0.77051931  0.51046588  1  0.038275  0  0.086288  0.086362  0  0.999055  0
H  H38  1  0.04109773  0.12076859  0.47432830  1  0.024921  0  0.088456  0.088128  0  1.013092  0
H  H39  1  0.95889560  0.87923262  0.52567634  1  0.024898  0  0.088469  0.088124  0  1.013053  0
H  H40  1  0.18741690  0.91414533  0.50966165  1  0.020127  0  0.088867  0.085651  0  1.017946  0
H  H41  1  0.81257511  0.08585676  0.49034060  1  0.019784  0  0.088847  0.085631  0  1.017995  0
H  H42  1  0.33987966  0.87888810  0.54757011  1  0.030259  0  0.088721  0.091461  0  0.982943  0
H  H43  1  0.66011144  0.12111147  0.45243218  1  0.030108  0  0.088703  0.091395  0  0.982938  0
H  H44  1  0.89741121  0.19858276  0.61309584  1  0.039601  0  0.086826  0.057336  0  0.978193  0
H  H45  1  0.10258955  0.80141920  0.38690904  1  0.039605  0  0.086838  0.05742  0  0.978236  0
H  H46  1  0.14847169  0.85006807  0.67207319  1  0.003401  0  0.088746  0.054266  0  0.977354  0
H  H47  1  0.85152130  0.14993400  0.32792887  1  0.003415  0  0.088727  0.054293  0  0.977275  0
H  H48  1  0.00794468  0.17557501  0.73458626  1  0.0044  0  0.083683  0.078501  0  1.003047  0
H  H49  1  0.99206134  0.82442355  0.26541576  1  0.004676  0  0.08368  0.078454  0  1.003102  0
H  H50  1  0.07216024  0.26023517  0.64058471  1  0.047281  0  0.084723  0.081858  0  1.043997  0
H  H51  1  0.92784258  0.73976172  0.35941950  1  0.047316  0  0.084748  0.081839  0  1.044064  0
H  H52  1  0.16080983  0.96489722  0.76989265  1  0.038983  0  0.084706  0.082941  0  1.027059  0
H  H53  1  0.83918939  0.03510142  0.23010946  1  0.039006  0  0.084711  0.082952  0  1.027031  0
H  H54  1  0.32305479  0.91042575  0.69927772  1  0.077348  0  0.088904  0.096748  0  1.023229  0
H  H55  1  0.67694546  0.08957037  0.30072157  1  0.077355  0  0.088893  0.096732  0  1.023264  0
H  H56  1  0.94000405  0.01557985  0.71617669  1  0.002936  0  0.083902  0.083819  0  0.989599  0
H  H57  1  0.05999088  0.98442219  0.28382748  1  0.002574  0  0.083904  0.083845  0  0.989527  0
H  H58  1  0.95096737  0.99326030  0.61081133  1  0.024087  0  0.085222  0.084939  0  1.025835  0
H  H59  1  0.04902619  0.00674515  0.38918997  1  0.024011  0  0.085182  0.084887  0  1.025861  0
H  H60  1  0.38852524  0.58190074  0.80583652  1  0.04986  0  0.089907  0.101002  0  1.005923  0
H  H61  1  0.61147615  0.41810211  0.19416188  1  0.0499  0  0.089891  0.100995  0  1.005922  0
H  H62  1  0.48295199  0.51595577  0.88802128  1  0.015164  0  0.085115  0.084609  0  1.011215  0
H  H63  1  0.51704780  0.48404625  0.11197822  1  0.015153  0  0.085121  0.084613  0  1.011245  0
H  H64  1  0.14797306  0.58046353  0.83004500  1  0.001483  0  0.08381  0.073372  0  1.035726  0
H  H65  1  0.85202513  0.41953766  0.16995497  1  0.001326  0  0.083819  0.073363  0  1.035728  0
H  H66  1  0.07024916  0.51478759  0.93069800  1  0.010305  0  0.086901  0.083405  0  1.03376  0
H  H67  1  0.92975228  0.48521273  0.06930087  1  0.010274  0  0.086929  0.083428  0  1.033719  0
H  H68  1  0.37033887  0.41810215  0.03575045  1  0.051616  0  0.086895  0.088701  0  1.008797  0
H  H69  1  0.62966092  0.58189989  0.96424719  1  0.051642  0  0.086901  0.088711  0  1.008772  0
H  H70  1  0.20099395  0.42047912  0.05063951  1  0.011391  0  0.086153  0.087943  0  1.009703  0
H  H71  1  0.79900881  0.57952035  0.94935802  1  0.011365  0  0.086164  0.087963  0  1.009733  0
H  H72  1  0.97860607  0.72464948  0.92321375  1  0.010146  0  0.086156  0.050543  0  0.987319  0
H  H73  1  0.02139183  0.27535003  0.07678660  1  0.01016  0  0.086143  0.050523  0  0.987268  0
H  H74  1  0.20374245  0.56553316  0.12794659  1  -0.012508  0  0.080659  0.036241  0  1.00299  0
H  H75  1  0.79625871  0.43446547  0.87205328  1  -0.012507  0  0.080667  0.036257  0  1.003  0
H  H76  1  0.18620429  0.76246065  0.82295908  1  0.033978  0  0.091847  0.095592  0  0.99584  0
H  H77  1  0.81379293  0.23754054  0.17704169  1  0.033974  0  0.091844  0.095636  0  0.99579  0
H  H78  1  0.13554061  0.82651806  0.91864697  1  0.037461  0  0.084276  0.082688  0  1.043017  0
H  H79  1  0.86445695  0.17348229  0.08135391  1  0.037484  0  0.084275  0.082709  0  1.043022  0
H  H80  1  0.26418973  0.73372898  0.04010887  1  0.032488  0  0.08409  0.08192  0  1.021707  0
H  H81  1  0.73581011  0.26627052  0.95989048  1  0.032441  0  0.084084  0.08192  0  1.021703  0
H  H82  1  0.40899724  0.60768309  0.02900720  1  0.019892  0  0.084538  0.080814  0  1.032803  0
H  H83  1  0.59100060  0.39231895  0.97099205  1  0.019896  0  0.084507  0.080805  0  1.032808  0
H  H84  1  0.99602513  0.60625174  0.06980157  1  0.004099  0  0.082851  0.081213  0  1.027569  0
H  H85  1  0.00397695  0.39374941  0.93019826  1  0.004064  0  0.082885  0.081289  0  1.027516  0
H  H86  1  0.02690589  0.73219777  0.06428303  1  0.035349  0  0.081024  0.075488  0  1.040744  0
H  H87  1  0.97309425  0.26780339  0.93571780  1  0.035373  0  0.081036  0.07552  0  1.040741  0
C  C88  1  0.00440444  0.51684587  0.40988192  1  0.047898  0  -0.010809  0.081018  0  3.995721  0
C  C89  1  0.99558682  0.48316047  0.59011594  1  0.054667  0  -0.010885  0.08105  0  3.995953  0
C  C90  1  0.88050330  0.52379479  0.47179144  1  -0.146203  0  -0.08361  -0.122714  0  3.987154  0
C  C91  1  0.11948545  0.47620821  0.52820633  1  -0.145917  0  -0.083602  -0.122761  0  3.987159  0
C  C92  1  0.12389194  0.49306526  0.43889891  1  -0.024307  0  -0.083247  -0.119736  0  3.97136  0
C  C93  1  0.87610047  0.50693347  0.56110144  1  -0.030734  0  -0.083128  -0.119585  0  3.971575  0
C  C94  1  0.00981643  0.53104124  0.31329624  1  0.311349  0  -0.042662  -0.124732  0  3.898617  0
C  C95  1  0.99018015  0.46895918  0.68669800  1  0.31106  0  -0.042658  -0.124773  0  3.899013  0
C  C96  1  0.20340603  0.36438856  0.24939834  1  0.988543  0  0.160167  0.084522  0  3.909203  0
C  C97  1  0.79659153  0.63561179  0.75060253  1  0.988592  0  0.160177  0.084586  0  3.909031  0
C  C98  1  0.00149545  0.34821055  0.28629681  1  0.97219  0  0.153534  0.067228  0  3.948213  0
C  C99  1  0.99850805  0.65178467  0.71370511  1  0.972183  0  0.153627  0.067408  0  3.948079  0
C  C100  1  0.11859046  0.02861562  0.98453950  1  -0.061958  0  -0.005103  0.102284  0  3.964364  0
C  C101  1  0.88142111  0.97138121  0.01545928  1  -0.061812  0  -0.005066  0.102332  0  3.964403  0
C  C102  1  0.04248114  0.06043981  0.92036489  1  -0.040995  0  -0.08687  -0.127184  0  3.990676  0
C  C103  1  0.95753042  0.93955704  0.07963203  1  -0.041181  0  -0.086854  -0.127105  0  3.990543  0
C  C104  1  0.07468991  0.96786761  0.06473639  1  -0.032293  0  -0.091093  -0.139723  0  4.003684  0
C  C105  1  0.92532263  0.03212920  0.93526282  1  -0.032346  0  -0.091114  -0.139741  0  4.00389  0
C  C106  1  0.24591210  0.06030765  0.96175944  1  0.29862  0  -0.04626  -0.127274  0  3.871525  0
C  C107  1  0.75409689  0.93968838  0.03823814  1  0.298761  0  -0.046115  -0.127269  0  3.871617  0
C  C108  1  0.31064746  0.09744627  0.08634946  1  1.018199  0  0.172909  0.099062  0  3.864786  0
C  C109  1  0.68936354  0.90254720  0.91365008  1  1.018007  0  0.173002  0.099278  0  3.864503  0
C  C110  1  0.38961083  0.92097329  0.06544806  1  0.938161  0  0.169931  0.094394  0  3.857095  0
C  C111  1  0.61040434  0.07902183  0.93454910  1  0.938388  0  0.170008  0.094511  0  3.85714  0
C  C112  1  0.23757458  0.05951250  0.51294746  1  0.018823  0  -0.016233  0.04464  0  3.782414  0
C  C113  1  0.76242178  0.94048365  0.48705260  1  0.018625  0  -0.016265  0.044608  0  3.782488  0
C  C114  1  0.30258032  0.09483386  0.56931315  1  -0.013412  0  -0.158275  -0.223811  0  3.824804  0
C  C115  1  0.69741729  0.90516397  0.43068695  1  -0.013277  0  -0.158269  -0.223849  0  3.824881  0
C  C116  1  0.08770072  0.14323267  0.51625564  1  -0.051565  0  -0.159452  -0.216093  0  3.849188  0
C  C117  1  0.91229684  0.85676767  0.48374647  1  -0.051633  0  -0.159476  -0.216053  0  3.84918  0
C  C118  1  0.23372182  0.93915848  0.55024545  1  -0.041824  0  -0.165961  -0.229921  0  3.887193  0
C  C119  1  0.76627191  0.06083937  0.44975666  1  -0.0414  0  -0.165888  -0.229777  0  3.887194  0
C  C120  1  0.21830211  0.09170031  0.66560163  1  0.040715  0  -0.016895  0.041284  0  3.786874  0
C  C121  1  0.78169608  0.90830087  0.33439958  1  0.040805  0  -0.016902  0.041262  0  3.786845  0
C  C122  1  0.00357594  0.13907486  0.61133876  1  -0.003566  0  -0.092609  0.040418  0  3.857106  0
C  C123  1  0.99642613  0.86092627  0.38866292  1  -0.003504  0  -0.092627  0.040145  0  3.857368  0
C  C124  1  0.14985587  0.93648609  0.64546435  1  0.041514  0  -0.090481  0.047294  0  3.843441  0
C  C125  1  0.85013877  0.06351430  0.35453585  1  0.041459  0  -0.090487  0.047231  0  3.843363  0
C  C126  1  0.06962105  0.17439179  0.66663890  1  -0.062183  0  -0.165521  -0.221016  0  3.882772  0
C  C127  1  0.93037886  0.82560515  0.33336402  1  -0.062576  0  -0.165518  -0.220872  0  3.882599  0
C  C128  1  0.21741378  0.97029230  0.70102164  1  -0.086287  0  -0.168143  -0.229241  0  3.860919  0
C  C129  1  0.78258446  0.02970635  0.29897942  1  -0.086308  0  -0.168135  -0.229225  0  3.860901  0
C  C130  1  0.00154775  0.01865866  0.64829521  1  -0.008509  0  -0.166816  -0.210031  0  3.88759  0
C  C131  1  0.99844684  0.98134423  0.35170824  1  -0.008055  0  -0.166745  -0.209924  0  3.887481  0
C  C132  1  0.31615229  0.06856650  0.41749018  1  1.557196  0  0.204546  0.56669  0  4.129596  0
C  C133  1  0.68384303  0.93143218  0.58251145  1  1.556958  0  0.204655  0.566945  0  4.129445  0
C  C134  1  0.28920385  0.13079576  0.71433066  1  1.48201  0  0.208107  0.574444  0  4.095019  0
C  C135  1  0.71079885  0.86920624  0.28566826  1  1.482012  0  0.2081  0.574484  0  4.09508  0
C  C136  1  0.28385979  0.49401362  0.92015916  1  0.003699  0  -0.016597  0.048197  0  3.771746  0
C  C137  1  0.71613971  0.50598673  0.07983885  1  0.003597  0  -0.016657  0.048128  0  3.771729  0
C  C138  1  0.37856195  0.56460917  0.87696800  1  -0.002617  0  -0.165139  -0.228154  0  3.86666  0
C  C139  1  0.62143720  0.43539202  0.12303054  1  -0.002633  0  -0.165115  -0.228133  0  3.866634  0
C  C140  1  0.13929564  0.56416767  0.90122273  1  -0.022011  0  -0.162702  -0.219807  0  3.863923  0
C  C141  1  0.86070386  0.43583267  0.09877652  1  -0.021835  0  -0.162689  -0.219741  0  3.863815  0
C  C142  1  0.26954212  0.47025794  0.02016021  1  -0.040618  0  -0.166155  -0.225008  0  3.877075  0
C  C143  1  0.73045899  0.52974324  0.97983795  1  -0.040383  0  -0.166166  -0.225026  0  3.877144  0
C  C144  1  0.32140097  0.67694184  0.91406012  1  0.010625  0  -0.018664  0.043189  0  3.785669  0
C  C145  1  0.67859813  0.32306189  0.08593732  1  0.010385  0  -0.018676  0.04322  0  3.785905  0
C  C146  1  0.08075125  0.67624270  0.93808350  1  0.05231  0  -0.089538  0.054025  0  3.844005  0
C  C147  1  0.91924825  0.32375764  0.06191637  1  0.052302  0  -0.089585  0.054013  0  3.843973  0
C  C148  1  0.21169523  0.58307572  0.05657147  1  0.029122  0  -0.095088  0.045864  0  3.857246  0
C  C149  1  0.78830393  0.41692546  0.94342892  1  0.028968  0  -0.095081  0.045872  0  3.857316  0
C  C150  1  0.17687010  0.74478331  0.89433143  1  -0.040881  0  -0.159871  -0.216061  0  3.836776  0
C  C151  1  0.82312711  0.25521789  0.10566872  1  -0.040882  0  -0.159869  -0.21616  0  3.836794  0
C  C152  1  0.30672093  0.65304236  0.01391893  1  -0.045097  0  -0.168414  -0.225146  0  3.890398  0
C  C153  1  0.69327858  0.34695799  0.98607971  1  -0.04483  0  -0.168361  -0.225113  0  3.890388  0
C  C154  1  0.06850438  0.65201458  0.03758746  1  -0.064817  0  -0.16934  -0.214813  0  3.883528  0
C  C155  1  0.93149610  0.34798574  0.96241284  1  -0.064804  0  -0.169387  -0.21496  0  3.883614  0
C  C156  1  0.33504207  0.38555155  0.87963961  1  1.537384  0  0.195475  0.566527  0  4.13413  0
C  C157  1  0.66495869  0.61445048  0.12035659  1  1.537309  0  0.195446  0.566483  0  4.134047  0
C  C158  1  0.41210390  0.74929692  0.86878362  1  1.543318  0  0.196778  0.562631  0  4.149305  0
C  C159  1  0.58789943  0.25070592  0.13121315  1  1.543235  0  0.196695  0.562432  0  4.14936  0
N  N160  1  0.21758305  0.26439794  0.23396536  1  -0.753145  0  -0.240026  -0.208795  0  3.436007  0
N  N161  1  0.78241646  0.73560237  0.76603761  1  -0.753173  0  -0.24  -0.208781  0  3.435825  0
N  N162  1  0.08925116  0.25340220  0.25734506  1  -0.684777  0  -0.224331  -0.191197  0  3.176659  0
N  N163  1  0.91075103  0.74659385  0.74265944  1  -0.684691  0  -0.224376  -0.191251  0  3.176592  0
N  N164  1  0.06808892  0.42101692  0.28170830  1  -1.249211  0  -0.233007  0.017444  0  3.751059  0
N  N165  1  0.93190869  0.57898090  0.71829305  1  -1.249197  0  -0.233022  0.017324  0  3.750962  0
N  N166  1  0.37948632  0.03678013  0.14721980  1  -0.733845  0  -0.229513  -0.171676  0  3.42211  0
N  N167  1  0.62051844  0.96321678  0.85277907  1  -0.733786  0  -0.229597  -0.171852  0  3.421865  0
N  N168  1  0.42891190  0.92557166  0.13425126  1  -0.75647  0  -0.243059  -0.198589  0  3.459752  0
N  N169  1  0.57109160  0.07442355  0.86575066  1  -0.756757  0  -0.243017  -0.198555  0  3.459842  0
N  N170  1  0.31474555  0.02789017  0.03390865  1  -1.264342  0  -0.228092  0.032734  0  3.754586  0
N  N171  1  0.68526150  0.97210588  0.96609056  1  -1.264532  0  -0.228207  0.032567  0  3.754858  0
O  O172  1  0.31179540  0.00916350  0.36606429  1  -1.201659  0  -0.332198  -0.582615  0  2.265256  0
O  O173  1  0.68819599  0.99083776  0.63393700  1  -1.20168  0  -0.332245  -0.582751  0  2.265353  0
O  O174  1  0.37859988  0.13965183  0.38937578  1  -1.168712  0  -0.329566  -0.54089  0  2.19044  0
O  O175  1  0.62139803  0.86034766  0.61062643  1  -1.168598  0  -0.329662  -0.541067  0  2.190398  0
O  O176  1  0.26141123  0.23673389  0.71130084  1  -1.144298  0  -0.333057  -0.56144  0  2.186397  0
O  O177  1  0.73859307  0.76326897  0.28869326  1  -1.144229  0  -0.333048  -0.561474  0  2.1865  0
O  O178  1  0.38072117  0.05864427  0.75524969  1  -1.186641  0  -0.332216  -0.574463  0  2.361773  0
O  O179  1  0.61928696  0.94136104  0.24474814  1  -1.186714  0  -0.33222  -0.574441  0  2.361695  0
O  O180  1  0.40077405  0.38908793  0.79862783  1  -1.15698  0  -0.352948  -0.563724  0  2.1757  0
O  O181  1  0.59922212  0.61091585  0.20136709  1  -1.156833  0  -0.352956  -0.563711  0  2.17555  0
O  O182  1  0.30783235  0.29833396  0.92346560  1  -1.193087  0  -0.338167  -0.585769  0  2.161275  0
O  O183  1  0.69217070  0.70166719  0.07653218  1  -1.193185  0  -0.338107  -0.58572  0  2.161381  0
O  O184  1  0.41950078  0.81833899  0.90944365  1  -1.19913  0  -0.338199  -0.583945  0  2.194613  0
O  O185  1  0.58050953  0.18165614  0.09056004  1  -1.199075  0  -0.33813  -0.583793  0  2.194773  0
O  O186  1  0.47406461  0.74069427  0.78837813  1  -1.167616  0  -0.338446  -0.556989  0  2.212408  0
O  O187  1  0.52592997  0.25930867  0.21161912  1  -1.167585  0  -0.338423  -0.556912  0  2.212191  0
O  O188  1  0.61282859  0.19994410  0.65134837  1  -1.231179  0  -0.576395  -0.742895  0  2.014846  0
O  O189  1  0.38717057  0.80005708  0.34865141  1  -1.231182  0  -0.57643  -0.742977  0  2.014844  0
