# generated using pymatgen
data_SnH10(CO)6
_symmetry_space_group_name_H-M   'P 1'
_cell_length_a   5.74758724
_cell_length_b   7.75850841
_cell_length_c   10.32608710
_cell_angle_alpha   89.99974753
_cell_angle_beta   89.99950860
_cell_angle_gamma   105.74763779
_symmetry_Int_Tables_number   1
_chemical_formula_structural   SnH10(CO)6
_chemical_formula_sum   'Sn2 H20 C12 O12'
_cell_volume   443.18512951
_cell_formula_units_Z   2
loop_
 _symmetry_equiv_pos_site_id
 _symmetry_equiv_pos_as_xyz
  1  'x, y, z'
loop_
 _atom_site_type_symbol
 _atom_site_label
 _atom_site_symmetry_multiplicity
 _atom_site_fract_x
 _atom_site_fract_y
 _atom_site_fract_z
 _atom_site_occupancy
 _atom_site_hle17_bader_spin_density
 _atom_site_hle17_ddec_charge
 _atom_site_hle17_ddec_spin_density
 _atom_site_hle17_ddec_sum_bond_order
 _atom_site_hle17_magmom
 _atom_site_hse06_10hf_bader_spin_density
 _atom_site_hse06_10hf_ddec_charge
 _atom_site_hse06_10hf_ddec_spin_density
 _atom_site_hse06_10hf_ddec_sum_bond_order
 _atom_site_hse06_10hf_magmom
 _atom_site_hse06_bader_spin_density
 _atom_site_hse06_ddec_charge
 _atom_site_hse06_ddec_spin_density
 _atom_site_hse06_ddec_sum_bond_order
 _atom_site_hse06_magmom
 _atom_site_pbe_bader_spin_density
 _atom_site_pbe_cm5_charge
 _atom_site_pbe_ddec_charge
 _atom_site_pbe_ddec_spin_density
 _atom_site_pbe_ddec_sum_bond_order
 _atom_site_pbe_magmom
Sn  Sn0  1  0.50000645  0.49999115  0.49999963  1  0  1.572016  0  2.745232  0  0  1.430143  0  3.237993  0  0  1.482303  0  3.206659  0  0  0.629036  1.394066  0  3.258896  0
Sn  Sn1  1  0.99999841  0.00000805  0.00000359  1  0  1.571971  0  2.74515  0  0  1.430102  0  3.237906  0  0  1.482265  0  3.206578  0  0  0.629027  1.394038  0  3.258779  0
H  H2  1  0.62386838  0.39411506  0.27092051  1  0  0.157797  0  1.001375  0  0  0.171286  0  1.066625  0  0  0.173837  0  1.068294  0  0  0.088529  0.169321  0  1.065804  0
H  H3  1  0.87615398  0.10587756  0.77092494  1  0  0.157788  0  1.001407  0  0  0.171276  0  1.06669  0  0  0.173828  0  1.068359  0  0  0.088496  0.16931  0  1.065871  0
H  H4  1  0.37614261  0.60588597  0.72907778  1  0  0.157796  0  1.001318  0  0  0.171297  0  1.066576  0  0  0.173849  0  1.068244  0  0  0.088522  0.169333  0  1.065753  0
H  H5  1  0.12386541  0.89410343  0.22908497  1  0  0.157756  0  1.001431  0  0  0.171241  0  1.066702  0  0  0.173794  0  1.068371  0  0  0.088498  0.169275  0  1.065881  0
H  H6  1  0.86545110  0.40626098  0.38413709  1  0  0.177145  0  0.985265  0  0  0.191692  0  1.043568  0  0  0.195629  0  1.04331  0  0  0.094097  0.188769  0  1.043947  0
H  H7  1  0.63456898  0.09373054  0.88413488  1  0  0.17717  0  0.985388  0  0  0.191732  0  1.043639  0  0  0.19567  0  1.043377  0  0  0.09413  0.188807  0  1.044021  0
H  H8  1  0.13457459  0.59373741  0.61585249  1  0  0.177204  0  0.985268  0  0  0.191758  0  1.043554  0  0  0.195695  0  1.043291  0  0  0.094125  0.18883  0  1.043941  0
H  H9  1  0.36543493  0.90625575  0.11585566  1  0  0.177173  0  0.98525  0  0  0.191703  0  1.043576  0  0  0.195641  0  1.043315  0  0  0.094102  0.188776  0  1.04396  0
H  H10  1  0.82758417  0.60687383  0.31099973  1  0  0.165213  0  0.985204  0  0  0.18057  0  1.046038  0  0  0.183772  0  1.046545  0  0  0.090741  0.178209  0  1.04587  0
H  H11  1  0.67244354  0.89311886  0.81100699  1  0  0.165248  0  0.985166  0  0  0.180589  0  1.046033  0  0  0.183802  0  1.046526  0  0  0.09074  0.178221  0  1.045873  0
H  H12  1  0.17242682  0.39312720  0.68899178  1  0  0.165282  0  0.985201  0  0  0.180639  0  1.046032  0  0  0.183839  0  1.046542  0  0  0.090772  0.17827  0  1.045871  0
H  H13  1  0.32757362  0.10686078  0.18899711  1  0  0.165241  0  0.985297  0  0  0.180598  0  1.046118  0  0  0.183799  0  1.046628  0  0  0.090753  0.178234  0  1.045952  0
H  H14  1  0.52827614  0.20201761  0.64966471  1  0  0.418247  0  0.887869  0  0  0.382123  0  0.960138  0  0  0.394028  0  0.943088  0  0  0.293659  0.373633  0  0.972324  0
H  H15  1  0.97172215  0.29798950  0.14967068  1  0  0.418242  0  0.887886  0  0  0.382166  0  0.960064  0  0  0.394067  0  0.943022  0  0  0.293698  0.373675  0  0.972255  0
H  H16  1  0.47172363  0.79798607  0.35032971  1  0  0.418219  0  0.887925  0  0  0.382115  0  0.960148  0  0  0.394022  0  0.943096  0  0  0.293662  0.37362  0  0.972346  0
H  H17  1  0.02828458  0.70201419  0.85033439  1  0  0.418259  0  0.887869  0  0  0.382156  0  0.960091  0  0  0.39406  0  0.943047  0  0  0.293694  0.373664  0  0.972284  0
H  H18  1  0.70883581  0.37935588  0.71590110  1  0  0.42152  0  0.879006  0  0  0.38739  0  0.949829  0  0  0.399115  0  0.933121  0  0  0.297443  0.379031  0  0.961766  0
H  H19  1  0.79115921  0.12064523  0.21590364  1  0  0.421512  0  0.87904  0  0  0.387403  0  0.949825  0  0  0.39913  0  0.933113  0  0  0.297422  0.379041  0  0.961766  0
H  H20  1  0.29115805  0.62064109  0.28410010  1  0  0.421472  0  0.879033  0  0  0.38739  0  0.949823  0  0  0.399117  0  0.933112  0  0  0.297444  0.379034  0  0.961756  0
H  H21  1  0.20884404  0.87935846  0.78410143  1  0  0.421448  0  0.879059  0  0  0.38735  0  0.949877  0  0  0.399069  0  0.933178  0  0  0.297431  0.378996  0  0.961808  0
C  C22  1  0.86375931  0.99270587  0.43128076  1  0  0.195397  0  3.863999  0  0  0.169266  0  4.144067  0  0  0.18168  0  4.155949  0  0  0.108179  0.160786  0  4.136014  0
C  C23  1  0.63622025  0.50730828  0.93127691  1  0  0.195286  0  3.864174  0  0  0.169081  0  4.144324  0  0  0.181493  0  4.156208  0  0  0.108109  0.160606  0  4.136265  0
C  C24  1  0.13622800  0.00732587  0.56873012  1  0  0.195431  0  3.864029  0  0  0.169245  0  4.144185  0  0  0.181651  0  4.156075  0  0  0.10822  0.16078  0  4.136123  0
C  C25  1  0.36375049  0.49268729  0.06872138  1  0  0.195315  0  3.864177  0  0  0.169161  0  4.144261  0  0  0.181573  0  4.156143  0  0  0.108185  0.160689  0  4.136202  0
C  C26  1  0.90518746  0.87669673  0.53703341  1  0  0.205528  0  3.843012  0  0  0.18084  0  4.122232  0  0  0.194582  0  4.133218  0  0  0.114569  0.171495  0  4.11476  0
C  C27  1  0.59479333  0.62331722  0.03703100  1  0  0.205607  0  3.843149  0  0  0.180997  0  4.122272  0  0  0.19474  0  4.133256  0  0  0.114691  0.171653  0  4.1148  0
C  C28  1  0.09480266  0.12332833  0.46296972  1  0  0.205395  0  3.842624  0  0  0.180733  0  4.121839  0  0  0.194463  0  4.132831  0  0  0.114538  0.171394  0  4.11436  0
C  C29  1  0.40518514  0.37667570  0.96297019  1  0  0.205504  0  3.84282  0  0  0.180821  0  4.122052  0  0  0.194559  0  4.133042  0  0  0.114509  0.171478  0  4.114582  0
C  C30  1  0.73454534  0.47350772  0.34747671  1  0  -0.708143  0  3.464836  0  0  -0.760089  0  3.703998  0  0  -0.776435  0  3.710332  0  0  -0.326688  -0.748612  0  3.699884  0
C  C31  1  0.76546871  0.02648949  0.84747900  1  0  -0.708151  0  3.464886  0  0  -0.760097  0  3.703957  0  0  -0.776459  0  3.710268  0  0  -0.326654  -0.748611  0  3.699858  0
C  C32  1  0.26546390  0.52649331  0.65251576  1  0  -0.708233  0  3.464862  0  0  -0.76018  0  3.703902  0  0  -0.77653  0  3.710235  0  0  -0.326705  -0.748693  0  3.699804  0
C  C33  1  0.23454160  0.97350485  0.15252413  1  0  -0.708115  0  3.464896  0  0  -0.760044  0  3.704045  0  0  -0.776393  0  3.71038  0  0  -0.32665  -0.748565  0  3.699935  0
O  O34  1  0.65558108  0.31731891  0.63116738  1  0  -0.823274  0  1.899499  0  0  -0.757097  0  2.094407  0  0  -0.780131  0  2.064534  0  0  -0.537262  -0.74094  0  2.115534  0
O  O35  1  0.84442706  0.18268572  0.13117141  1  0  -0.823253  0  1.899502  0  0  -0.757132  0  2.094346  0  0  -0.780163  0  2.064473  0  0  -0.537298  -0.74098  0  2.11547  0
O  O36  1  0.34443262  0.68268480  0.36883090  1  0  -0.82318  0  1.899465  0  0  -0.757053  0  2.094324  0  0  -0.780087  0  2.064446  0  0  -0.537277  -0.7409  0  2.115447  0
O  O37  1  0.15557551  0.81731127  0.86883269  1  0  -0.823216  0  1.899454  0  0  -0.757073  0  2.094342  0  0  -0.780105  0  2.064471  0  0  -0.537286  -0.740922  0  2.115458  0
O  O38  1  0.79532677  0.72694231  0.58548692  1  0  -0.506118  0  2.155191  0  0  -0.435845  0  2.387486  0  0  -0.459707  0  2.386049  0  0  -0.260978  -0.419164  0  2.38797  0
O  O39  1  0.70467132  0.77305917  0.08548642  1  0  -0.506142  0  2.155259  0  0  -0.435903  0  2.387507  0  0  -0.45977  0  2.386086  0  0  -0.26108  -0.419226  0  2.387992  0
O  O40  1  0.20468104  0.27307878  0.41451040  1  0  -0.506014  0  2.154753  0  0  -0.43579  0  2.387113  0  0  -0.459636  0  2.385667  0  0  -0.261002  -0.41911  0  2.387596  0
O  O41  1  0.29530599  0.22692572  0.91451478  1  0  -0.506113  0  2.155042  0  0  -0.435844  0  2.387343  0  0  -0.459699  0  2.385897  0  0  -0.260968  -0.419165  0  2.387828  0
O  O42  1  0.70127405  0.98541267  0.34769381  1  0  -0.489403  0  2.103379  0  0  -0.425263  0  2.310839  0  0  -0.447578  0  2.307892  0  0  -0.276808  -0.409611  0  2.312966  0
O  O43  1  0.79871037  0.51458224  0.84769405  1  0  -0.489303  0  2.103335  0  0  -0.425149  0  2.310838  0  0  -0.447462  0  2.307893  0  0  -0.276772  -0.409504  0  2.312963  0
O  O44  1  0.29871538  0.01460570  0.65230642  1  0  -0.489275  0  2.10335  0  0  -0.425148  0  2.310907  0  0  -0.447452  0  2.307962  0  0  -0.276799  -0.409519  0  2.313038  0
O  O45  1  0.20126888  0.48540801  0.15230520  1  0  -0.489251  0  2.103512  0  0  -0.425153  0  2.311018  0  0  -0.447465  0  2.308072  0  0  -0.276789  -0.40951  0  2.313143  0
