# generated using pymatgen
data_AlH12C21(NO4)3
_symmetry_space_group_name_H-M   'P 1'
_cell_length_a   3.97018186
_cell_length_b   27.89062030
_cell_length_c   27.89055209
_cell_angle_alpha   119.99962987
_cell_angle_beta   90.00107151
_cell_angle_gamma   89.99982282
_symmetry_Int_Tables_number   1
_chemical_formula_structural   AlH12C21(NO4)3
_chemical_formula_sum   'Al2 H24 C42 N6 O24'
_cell_volume   2674.59443159
_cell_formula_units_Z   2
loop_
 _symmetry_equiv_pos_site_id
 _symmetry_equiv_pos_as_xyz
  1  'x, y, z'
loop_
 _atom_site_type_symbol
 _atom_site_label
 _atom_site_symmetry_multiplicity
 _atom_site_fract_x
 _atom_site_fract_y
 _atom_site_fract_z
 _atom_site_occupancy
 _atom_site_pbe_bader_charge
 _atom_site_pbe_bader_spin_density
 _atom_site_pbe_cm5_charge
 _atom_site_pbe_ddec_charge
 _atom_site_pbe_ddec_spin_density
 _atom_site_pbe_ddec_sum_bond_order
 _atom_site_pbe_magmom
Al  Al0  1  0.00546020  0.50000063  0.50000145  1  2.502946  0  0.426273  1.595608  0  2.548725  0
Al  Al1  1  0.95044225  0.16666493  0.83333516  1  2.503284  0  0.427953  1.593613  0  2.566464  0
H  H2  1  0.16005128  0.18758016  0.69815550  1  0.09071  0  0.109498  0.120868  0  0.982456  0
H  H3  1  0.19291237  0.24066186  0.64717252  1  0.071996  0  0.109575  0.120996  0  0.999628  0
H  H4  1  0.74436347  0.29301850  0.54425587  1  0.13838  0  0.119909  0.153227  0  0.968453  0
H  H5  1  0.18909426  0.42162660  0.68251216  1  0.085845  0  0.112081  0.141459  0  0.992441  0
H  H6  1  0.16007827  0.01057033  0.81241977  1  0.104509  0  0.109452  0.120788  0  0.982369  0
H  H7  1  0.19292258  0.90650553  0.75933548  1  0.085355  0  0.109575  0.120953  0  0.99963  0
H  H8  1  0.74439432  0.75123783  0.70698236  1  0.096695  0  0.119939  0.153256  0  0.96851  0
H  H9  1  0.18909640  0.76088326  0.57837042  1  0.080561  0  0.112039  0.14139  0  0.992285  0
H  H10  1  0.16008163  0.30184273  0.98942577  1  0.088622  0  0.109466  0.12074  0  0.98234  0
H  H11  1  0.19292040  0.35282679  0.09349171  1  0.118629  0  0.109553  0.120929  0  0.999619  0
H  H12  1  0.74438023  0.45574321  0.24876483  1  0.102928  0  0.119934  0.153267  0  0.968529  0
H  H13  1  0.18908159  0.31748658  0.23911483  1  0.091672  0  0.112051  0.141403  0  0.992457  0
H  H14  1  0.80907063  0.28844662  0.84949831  1  0.64618  0  0.319575  0.360046  0  0.938163  0
H  H15  1  0.76140862  0.39261376  0.76301389  1  0.615207  0  0.324963  0.338454  0  0.926512  0
H  H16  1  0.84675954  0.37831913  0.48518747  1  0.63212  0  0.315492  0.356591  0  0.948912  0
H  H17  1  0.15659193  0.50298383  0.61815011  1  0.636857  0  0.316125  0.35862  0  0.94191  0
H  H18  1  0.80906409  0.06104812  0.71155501  1  0.64887  0  0.319575  0.360019  0  0.938306  0
H  H19  1  0.76137065  0.87039624  0.60738120  1  0.58869  0  0.325001  0.338515  0  0.926368  0
H  H20  1  0.84678109  0.60686866  0.62168430  1  0.640144  0  0.315457  0.356417  0  0.949103  0
H  H21  1  0.15657779  0.61516532  0.49701741  1  0.639072  0  0.316091  0.358547  0  0.942267  0
H  H22  1  0.80909810  0.15050579  0.93895623  1  0.642823  0  0.319577  0.360037  0  0.938105  0
H  H23  1  0.76140175  0.23698649  0.12960828  1  0.633067  0  0.324981  0.338499  0  0.926466  0
H  H24  1  0.84677726  0.51481114  0.39313474  1  0.62296  0  0.315431  0.356434  0  0.949076  0
H  H25  1  0.15657551  0.38185041  0.38483374  1  0.638603  0  0.316114  0.358653  0  0.94216  0
C  C26  1  0.50239948  0.45944077  0.41337244  1  1.438721  0  0.253938  0.647726  0  4.062293  0
C  C27  1  0.50240532  0.45393026  0.54056021  1  1.436685  0  0.253944  0.64775  0  4.062022  0
C  C28  1  0.50240928  0.58662827  0.54607190  1  1.431575  0  0.253975  0.647751  0  4.062083  0
C  C29  1  0.44845719  0.21398407  0.79486064  1  1.488848  0  0.267446  0.65408  0  4.048409  0
C  C30  1  0.44847568  0.08087083  0.78601453  1  1.481993  0  0.267507  0.654191  0  4.048569  0
C  C31  1  0.44848301  0.20513909  0.91912919  1  1.484954  0  0.267455  0.654053  0  4.048646  0
C  C32  1  0.46601590  0.24611475  0.76649597  1  0.007023  0  -0.032062  -0.189922  0  4.01361  0
C  C33  1  0.29845872  0.22638733  0.71501652  1  0.011798  0  -0.090366  -0.0835  0  4.02693  0
C  C34  1  0.31420398  0.25533949  0.68712697  1  0.006147  0  -0.096504  -0.159928  0  4.021277  0
C  C35  1  0.48270866  0.30688392  0.71204407  1  0.414049  0  0.074686  0.053879  0  4.093964  0
C  C36  1  0.63840747  0.32857215  0.76424601  1  0.554483  0  0.099836  0.173384  0  3.991884  0
C  C37  1  0.64325569  0.29681361  0.79107260  1  0.596196  0  0.097843  0.2273  0  4.014794  0
C  C38  1  0.62920338  0.33387709  0.56454630  1  0.051829  0  -0.105131  -0.303028  0  3.915164  0
C  C39  1  0.47180818  0.35462132  0.61606018  1  0.341391  0  0.099942  0.226321  0  4.105186  0
C  C40  1  0.31987932  0.40700790  0.64333976  1  0.08525  0  -0.112906  -0.316388  0  3.931887  0
C  C41  1  0.31680692  0.43881028  0.61771707  1  0.517411  0  0.100467  0.361713  0  4.049194  0
C  C42  1  0.49332970  0.42047026  0.56657628  1  -0.023909  0  -0.052861  -0.351881  0  3.980404  0
C  C43  1  0.65765863  0.36762039  0.54129887  1  0.511478  0  0.100874  0.360674  0  4.053439  0
C  C44  1  0.46600996  0.02037629  0.75388346  1  0.005943  0  -0.03207  -0.189837  0  4.013585  0
C  C45  1  0.29847698  0.98862498  0.77360937  1  -0.092652  0  -0.090299  -0.083462  0  4.02686  0
C  C46  1  0.31420798  0.93178236  0.74465660  1  0.103371  0  -0.096546  -0.159838  0  4.021201  0
C  C47  1  0.48269593  0.90515698  0.69311155  1  0.394769  0  0.074687  0.053758  0  4.094176  0
C  C48  1  0.63838983  0.93566857  0.67142390  1  0.5577  0  0.099797  0.173222  0  3.992014  0
C  C49  1  0.64325250  0.99425548  0.70318376  1  0.603852  0  0.097977  0.227493  0  4.014405  0
C  C50  1  0.62922839  0.73066949  0.66612356  1  0.104517  0  -0.105218  -0.303212  0  3.915146  0
C  C51  1  0.47181829  0.76143778  0.64537747  1  0.300818  0  0.0999  0.226401  0  4.105239  0
C  C52  1  0.31988760  0.73632998  0.59299105  1  0.018557  0  -0.112767  -0.31618  0  3.931742  0
C  C53  1  0.31680820  0.67890467  0.56118967  1  0.587294  0  0.100394  0.361609  0  4.04925  0
C  C54  1  0.49334071  0.64610532  0.57953170  1  0.016423  0  -0.052837  -0.351913  0  3.980453  0
C  C55  1  0.65767890  0.67367736  0.63238104  1  0.493145  0  0.100901  0.360702  0  4.053616  0
C  C56  1  0.46602741  0.23350287  0.97962368  1  0.014562  0  -0.032028  -0.189803  0  4.013329  0
C  C57  1  0.29847770  0.28498150  0.01137419  1  0.025102  0  -0.090314  -0.083276  0  4.02679  0
C  C58  1  0.31421590  0.31287003  0.06821423  1  -0.045257  0  -0.096571  -0.160009  0  4.02152  0
C  C59  1  0.48270892  0.28795540  0.09484463  1  0.410941  0  0.074797  0.054026  0  4.093848  0
C  C60  1  0.63841573  0.23575337  0.06433359  1  0.655973  0  0.099758  0.17322  0  3.992092  0
C  C61  1  0.64327344  0.20892727  0.00574777  1  0.521082  0  0.097929  0.227308  0  4.0144  0
C  C62  1  0.62921578  0.43545379  0.26933161  1  0.06722  0  -0.105209  -0.303267  0  3.91508  0
C  C63  1  0.47180088  0.38393893  0.23856223  1  0.311032  0  0.099781  0.226341  0  4.105246  0
C  C64  1  0.31987778  0.35666085  0.26366806  1  0.098225  0  -0.112777  -0.316171  0  3.931901  0
C  C65  1  0.31679575  0.38228412  0.32109535  1  0.492694  0  0.100484  0.361698  0  4.049171  0
C  C66  1  0.49333333  0.43342550  0.35389544  1  0.019886  0  -0.052844  -0.351995  0  3.980679  0
C  C67  1  0.65767638  0.45870069  0.32632511  1  0.55819  0  0.100914  0.360776  0  4.053552  0
N  N68  1  0.51243341  0.34139325  0.68940742  1  -0.556928  0  -0.149114  -0.137893  0  3.375315  0
N  N69  1  0.46230411  0.31858323  0.63764628  1  -0.461837  0  -0.138662  -0.107533  0  3.232743  0
N  N70  1  0.51242090  0.84801219  0.65860239  1  -0.559442  0  -0.149122  -0.137715  0  3.37493  0
N  N71  1  0.46231668  0.81906040  0.68141525  1  -0.442547  0  -0.138685  -0.107698  0  3.232725  0
N  N72  1  0.51243649  0.31059153  0.15198997  1  -0.528407  0  -0.14914  -0.137865  0  3.37507  0
N  N73  1  0.46231165  0.36235412  0.18093929  1  -0.529869  0  -0.138645  -0.107614  0  3.232704  0
O  O74  1  0.73750517  0.55934467  0.55473632  1  -1.268305  0  -0.247458  -0.619601  0  2.406369  0
O  O75  1  0.73748834  0.49539009  0.44065680  1  -1.271732  0  -0.247463  -0.619589  0  2.406407  0
O  O76  1  0.73748802  0.44526677  0.50461150  1  -1.27135  0  -0.247453  -0.619664  0  2.406338  0
O  O77  1  0.27558119  0.56094480  0.50790569  1  -1.266263  0  -0.249888  -0.621056  0  2.38297  0
O  O78  1  0.27557732  0.49209652  0.55304100  1  -1.266781  0  -0.249857  -0.621087  0  2.383034  0
O  O79  1  0.27557289  0.44696029  0.43905617  1  -1.267698  0  -0.249876  -0.621114  0  2.383201  0
O  O80  1  0.67682629  0.16804036  0.89111365  1  -1.263309  0  -0.243974  -0.621122  0  2.389701  0
O  O81  1  0.67681177  0.22306633  0.83196059  1  -1.260853  0  -0.243916  -0.621116  0  2.389403  0
O  O82  1  0.67680437  0.10888738  0.77693300  1  -1.262736  0  -0.243969  -0.621136  0  2.389983  0
O  O83  1  0.21084239  0.21702617  0.89600264  1  -1.263885  0  -0.236782  -0.589468  0  2.367379  0
O  O84  1  0.21083368  0.10399672  0.82102857  1  -1.257369  0  -0.236827  -0.589547  0  2.367133  0
O  O85  1  0.21082032  0.17897096  0.78297311  1  -1.262412  0  -0.236809  -0.589403  0  2.367403  0
O  O86  1  0.81297374  0.31776079  0.83912080  1  -1.124941  0  -0.334373  -0.394384  0  2.269907  0
O  O87  1  0.79777148  0.37778494  0.78819686  1  -1.103997  0  -0.326398  -0.3754  0  2.289976  0
O  O88  1  0.83167799  0.34780859  0.49354306  1  -1.134571  0  -0.345307  -0.423772  0  2.24811  0
O  O89  1  0.15401705  0.48790079  0.64357646  1  -1.140399  0  -0.345266  -0.423526  0  2.24344  0
O  O90  1  0.81296167  0.02135529  0.68223932  1  -1.131783  0  -0.33445  -0.394455  0  2.270072  0
O  O91  1  0.79774231  0.91040811  0.62221049  1  -1.079201  0  -0.32644  -0.375432  0  2.289885  0
O  O92  1  0.83170275  0.64573565  0.65219368  1  -1.146324  0  -0.345217  -0.423544  0  2.248418  0
O  O93  1  0.15400918  0.65567454  0.51209932  1  -1.145961  0  -0.345223  -0.423449  0  2.243759  0
O  O94  1  0.81299712  0.16088184  0.97864849  1  -1.136076  0  -0.334475  -0.394425  0  2.269924  0
O  O95  1  0.79777558  0.21180386  0.08959657  1  -1.12607  0  -0.326386  -0.375399  0  2.290274  0
O  O96  1  0.83172009  0.50645278  0.35426657  1  -1.128837  0  -0.345188  -0.423554  0  2.248353  0
O  O97  1  0.15400147  0.35642299  0.34432382  1  -1.146154  0  -0.345238  -0.423534  0  2.243657  0
