# generated using pymatgen
data_GdH8C6O7
_symmetry_space_group_name_H-M   'P 1'
_cell_length_a   7.62689827
_cell_length_b   11.93142723
_cell_length_c   12.20974510
_cell_angle_alpha   67.94737642
_cell_angle_beta   89.87698690
_cell_angle_gamma   80.14577803
_symmetry_Int_Tables_number   1
_chemical_formula_structural   GdH8C6O7
_chemical_formula_sum   'Gd4 H32 C24 O28'
_cell_volume   1012.25376009
_cell_formula_units_Z   4
loop_
 _symmetry_equiv_pos_site_id
 _symmetry_equiv_pos_as_xyz
  1  'x, y, z'
loop_
 _atom_site_type_symbol
 _atom_site_label
 _atom_site_symmetry_multiplicity
 _atom_site_fract_x
 _atom_site_fract_y
 _atom_site_fract_z
 _atom_site_occupancy
 _atom_site_pbe_bader_charge
 _atom_site_pbe_bader_spin_density
 _atom_site_pbe_cm5_charge
 _atom_site_pbe_ddec_charge
 _atom_site_pbe_ddec_spin_density
 _atom_site_pbe_ddec_sum_bond_order
 _atom_site_pbe_magmom
Gd  Gd0  1  0.00187582  0.15245722  0.14018150  1  2.183924  0  1.472816  2.063044  0  2.164176  0
Gd  Gd1  1  0.99813311  0.84753671  0.85981707  1  2.184056  0  1.472811  2.063006  0  2.1642  0
Gd  Gd2  1  0.50554124  0.13978572  0.25063633  1  2.184897  0  1.467252  2.054584  0  2.141344  0
Gd  Gd3  1  0.49445715  0.86021836  0.74936260  1  2.184859  0  1.467229  2.054562  0  2.141348  0
H  H4  1  0.25357236  0.21432948  0.68112948  1  0.072215  0  0.111155  0.134362  0  0.973903  0
H  H5  1  0.74642030  0.78567645  0.31886877  1  0.072224  0  0.111159  0.134382  0  0.973885  0
H  H6  1  0.11892937  0.25757104  0.78496916  1  0.068767  0  0.108458  0.126623  0  0.969135  0
H  H7  1  0.88107056  0.74243212  0.21503338  1  0.068817  0  0.108424  0.126556  0  0.969155  0
H  H8  1  0.36785159  0.74119006  0.46821165  1  0.035762  0  0.105116  0.119857  0  0.9707  0
H  H9  1  0.63214301  0.25880850  0.53178686  1  0.035726  0  0.105117  0.119849  0  0.970715  0
H  H10  1  0.22718004  0.78565922  0.33642065  1  0.065957  0  0.108142  0.126281  0  0.976684  0
H  H11  1  0.77281645  0.21434211  0.66358012  1  0.065981  0  0.108124  0.126271  0  0.97668  0
H  H12  1  0.10456065  0.56138151  0.83542799  1  0.08677  0  0.112278  0.127375  0  0.985116  0
H  H13  1  0.89544502  0.43861981  0.16457605  1  0.086805  0  0.112283  0.127417  0  0.985047  0
H  H14  1  0.29351633  0.47453214  0.79935204  1  0.059737  0  0.100852  0.117621  0  0.968935  0
H  H15  1  0.70648398  0.52546459  0.20065287  1  0.05971  0  0.100838  0.117606  0  0.968914  0
H  H16  1  0.99942494  0.91217689  0.41902600  1  0.081773  0  0.117138  0.135599  0  0.985408  0
H  H17  1  0.00057584  0.08782810  0.58097095  1  0.081797  0  0.117117  0.135583  0  0.985295  0
H  H18  1  0.03013180  0.75246091  0.49629438  1  0.040645  0  0.10436  0.118441  0  0.966298  0
H  H19  1  0.96986348  0.24754501  0.50370306  1  0.040882  0  0.104379  0.118432  0  0.966353  0
H  H20  1  0.43400934  0.40776171  0.00133369  1  0.055249  0  0.110354  0.123284  0  1.000915  0
H  H21  1  0.56599477  0.59224053  0.99867082  1  0.055101  0  0.11034  0.12328  0  1.000867  0
H  H22  1  0.27450657  0.51547117  0.03389814  1  0.121543  0  0.121582  0.154302  0  0.950956  0
H  H23  1  0.72549016  0.48452924  0.96610460  1  0.121657  0  0.121587  0.154262  0  0.950994  0
H  H24  1  0.18168472  0.19049006  0.36917720  1  0.661847  0  0.301108  0.397364  0  0.939952  0
H  H25  1  0.81831213  0.80951493  0.63081649  1  0.66192  0  0.301155  0.397426  0  0.939868  0
H  H26  1  0.32241516  0.27221993  0.37775932  1  0.634776  0  0.330143  0.414991  0  0.871023  0
H  H27  1  0.67758634  0.72778230  0.62223783  1  0.634668  0  0.330132  0.414998  0  0.871047  0
H  H28  1  0.87521101  0.13632491  0.91867464  1  0.651458  0  0.301855  0.407824  0  0.923866  0
H  H29  1  0.12478645  0.86367273  0.08132421  1  0.651456  0  0.301888  0.407845  0  0.923846  0
H  H30  1  0.69918200  0.16277922  0.98790372  1  0.654363  0  0.299241  0.396938  0  0.936955  0
H  H31  1  0.30082022  0.83722026  0.01209690  1  0.654334  0  0.299259  0.39698  0  0.936914  0
H  H32  1  0.49122460  0.09086765  0.84379469  1  0.076345  0  0.11489  0.125883  0  1.009605  0
H  H33  1  0.50877369  0.90913183  0.15620184  1  0.076315  0  0.114899  0.125909  0  1.009597  0
H  H34  1  0.45358901  0.24874155  0.81520014  1  0.048802  0  0.108243  0.126619  0  0.959929  0
H  H35  1  0.54641058  0.75125794  0.18480376  1  0.048772  0  0.108264  0.126659  0  0.959998  0
C  C36  1  0.36351477  0.13776321  0.97990086  1  1.581521  0  0.234277  0.681301  0  4.099143  0
C  C37  1  0.63648497  0.86223074  0.02009934  1  1.581567  0  0.234245  0.681269  0  4.099076  0
C  C38  1  0.22029592  0.18587742  0.77427404  1  -0.023107  0  -0.155083  -0.276761  0  3.902285  0
C  C39  1  0.77969771  0.81412483  0.22572393  1  -0.022873  0  -0.155065  -0.276696  0  3.90229  0
C  C40  1  0.14025850  0.07182967  0.80106220  1  1.54279  0  0.228695  0.684397  0  4.070462  0
C  C41  1  0.85973896  0.92816798  0.19893828  1  1.542514  0  0.228675  0.684282  0  4.070622  0
C  C42  1  0.34424570  0.92747113  0.35039470  1  1.549794  0  0.219693  0.678537  0  4.095726  0
C  C43  1  0.65576584  0.07252281  0.64960878  1  1.550072  0  0.219759  0.678554  0  4.095426  0
C  C44  1  0.26401130  0.81361122  0.40823405  1  -0.003863  0  -0.156006  -0.266043  0  3.911906  0
C  C45  1  0.73598864  0.18639193  0.59176359  1  -0.003897  0  -0.155998  -0.265971  0  3.911808  0
C  C46  1  0.24949874  0.52962927  0.85219232  1  -0.041168  0  -0.156934  -0.266792  0  3.908453  0
C  C47  1  0.75050634  0.47036929  0.14781192  1  -0.041065  0  -0.156924  -0.26687  0  3.908413  0
C  C48  1  0.34056689  0.63973242  0.81490602  1  1.538945  0  0.211124  0.654984  0  4.147171  0
C  C49  1  0.65943844  0.36026521  0.18509365  1  1.538753  0  0.211082  0.655019  0  4.147051  0
C  C50  1  0.13821804  0.84880986  0.58854747  1  1.553325  0  0.236488  0.683859  0  4.084954  0
C  C51  1  0.86178035  0.15119423  0.41145227  1  1.553364  0  0.236435  0.683767  0  4.08481  0
C  C52  1  0.09787652  0.83162450  0.47455273  1  -0.021091  0  -0.153765  -0.27303  0  3.880714  0
C  C53  1  0.90212187  0.16837958  0.52544457  1  -0.021243  0  -0.1538  -0.273058  0  3.880635  0
C  C54  1  0.29387850  0.45424160  0.98448104  1  -0.044077  0  -0.154149  -0.279928  0  3.884424  0
C  C55  1  0.70612503  0.54575788  0.01552286  1  -0.044043  0  -0.154166  -0.279836  0  3.884391  0
C  C56  1  0.18043396  0.35877454  0.04007299  1  1.539859  0  0.212171  0.664641  0  4.127897  0
C  C57  1  0.81956589  0.64122401  0.95992634  1  1.53977  0  0.212194  0.664647  0  4.127924  0
C  C58  1  0.39170362  0.16646631  0.84958657  1  -0.039604  0  -0.15421  -0.278253  0  3.886947  0
C  C59  1  0.60829360  0.83353226  0.15041358  1  -0.039604  0  -0.154246  -0.278318  0  3.887088  0
O  O60  1  0.23486317  0.27496770  0.14373079  1  -1.224255  0  -0.445323  -0.779561  0  2.414383  0
O  O61  1  0.76513527  0.72502625  0.85626697  1  -1.224208  0  -0.445283  -0.779548  0  2.41438  0
O  O62  1  0.03581126  0.35823735  0.99065449  1  -1.174287  0  -0.344046  -0.584413  0  2.160568  0
O  O63  1  0.96418809  0.64176304  0.00934416  1  -1.174275  0  -0.344078  -0.584442  0  2.160551  0
O  O64  1  0.22705706  0.97819526  0.78399073  1  -1.207246  0  -0.434116  -0.747763  0  2.441243  0
O  O65  1  0.77293656  0.02180700  0.21601133  1  -1.207245  0  -0.434133  -0.747813  0  2.441175  0
O  O66  1  0.98374589  0.06646676  0.83616395  1  -1.185613  0  -0.338843  -0.608024  0  2.28067  0
O  O67  1  0.01624944  0.93352904  0.16383394  1  -1.185557  0  -0.338795  -0.607905  0  2.280813  0
O  O68  1  0.46816753  0.64970636  0.74826720  1  -1.195227  0  -0.352093  -0.610764  0  2.148511  0
O  O69  1  0.53182837  0.35029221  0.25173540  1  -1.195221  0  -0.352132  -0.61086  0  2.148449  0
O  O70  1  0.28815228  0.72401620  0.85734203  1  -1.213686  0  -0.439253  -0.754298  0  2.376977  0
O  O71  1  0.71185485  0.27597958  0.14265587  1  -1.21357  0  -0.439175  -0.754216  0  2.376798  0
O  O72  1  0.49140474  0.14207483  0.04535750  1  -1.208331  0  -0.351546  -0.653916  0  2.287033  0
O  O73  1  0.50859106  0.85791914  0.95464352  1  -1.208333  0  -0.351548  -0.653899  0  2.287005  0
O  O74  1  0.21573797  0.11031911  0.01704839  1  -1.195056  0  -0.385735  -0.639292  0  2.321814  0
O  O75  1  0.78426653  0.88967668  0.98295195  1  -1.195081  0  -0.385689  -0.639265  0  2.321703  0
O  O76  1  0.02403392  0.82453366  0.66791888  1  -1.197358  0  -0.3616  -0.665088  0  2.307207  0
O  O77  1  0.97596699  0.17546582  0.33208256  1  -1.197661  0  -0.361518  -0.664995  0  2.30716  0
O  O78  1  0.28011326  0.88608621  0.59908042  1  -1.184938  0  -0.371282  -0.619448  0  2.268876  0
O  O79  1  0.71987462  0.11391791  0.40092506  1  -1.184802  0  -0.371282  -0.619419  0  2.268629  0
O  O80  1  0.24673048  0.02745200  0.27743677  1  -1.222921  0  -0.442478  -0.760724  0  2.418158  0
O  O81  1  0.75327710  0.97255206  0.72256053  1  -1.223011  0  -0.4424  -0.760549  0  2.418249  0
O  O82  1  0.50793694  0.92539914  0.36867593  1  -1.159484  0  -0.359994  -0.597472  0  2.212949  0
O  O83  1  0.49206256  0.07459574  0.63132393  1  -1.159628  0  -0.360118  -0.597653  0  2.212565  0
O  O84  1  0.31026240  0.18912704  0.38778575  1  -1.262558  0  -0.6253  -0.806036  0  2.076894  0
O  O85  1  0.68973862  0.81087703  0.61220991  1  -1.262555  0  -0.625322  -0.806093  0  2.076872  0
O  O86  1  0.82253740  0.17802318  0.97139418  1  -1.287225  0  -0.655678  -0.8511  0  2.059553  0
O  O87  1  0.17746710  0.82197262  0.02860862  1  -1.287214  0  -0.655724  -0.851159  0  2.059444  0
