# generated using pymatgen
data_MnH24C30(NO2)4
_symmetry_space_group_name_H-M   'P 1'
_cell_length_a   8.25977267
_cell_length_b   9.51968166
_cell_length_c   9.64420077
_cell_angle_alpha   108.24957601
_cell_angle_beta   104.52316637
_cell_angle_gamma   107.61551503
_symmetry_Int_Tables_number   1
_chemical_formula_structural   MnH24C30(NO2)4
_chemical_formula_sum   'Mn1 H24 C30 N4 O8'
_cell_volume   634.43124358
_cell_formula_units_Z   1
loop_
 _symmetry_equiv_pos_site_id
 _symmetry_equiv_pos_as_xyz
  1  'x, y, z'
loop_
 _atom_site_type_symbol
 _atom_site_label
 _atom_site_symmetry_multiplicity
 _atom_site_fract_x
 _atom_site_fract_y
 _atom_site_fract_z
 _atom_site_occupancy
 _atom_site_pbe_cm5_charge
 _atom_site_pbe_ddec_charge
 _atom_site_pbe_ddec_spin_density
 _atom_site_pbe_ddec_sum_bond_order
 _atom_site_pbe_magmom
Mn  Mn0  1  0.00000189  0.49999940  0.99999959  1  0.638808  0.744109  -1.265998  3.19308  -1.227
H  H1  1  0.93302997  0.76336258  0.82274899  1  0.109468  0.129011  7e-06  1.027176  0.0
H  H2  1  0.06696647  0.23663712  0.17724853  1  0.109447  0.128964  7e-06  1.027193  0.0
H  H3  1  0.82341628  0.97330418  0.93406261  1  0.103922  0.101942  0.000201  1.003744  0.0
H  H4  1  0.17658266  0.02669552  0.06593545  1  0.103919  0.101935  0.000201  1.003739  0.0
H  H5  1  0.58221025  0.01331144  0.75626108  1  0.101462  0.11023  0.000215  1.031038  0.0
H  H6  1  0.41778984  0.98669071  0.24374004  1  0.101472  0.110251  0.000215  1.031075  0.0
H  H7  1  0.45344710  0.84718504  0.46842963  1  0.101576  0.097878  0.000353  1.047011  0.0
H  H8  1  0.54655116  0.15281589  0.53157073  1  0.101562  0.097852  0.000353  1.04699  0.0
H  H9  1  0.54555107  0.40265237  0.13310742  1  0.114511  0.144215  0.000182  0.991746  0.0
H  H10  1  0.45444845  0.59734856  0.86689321  1  0.1145  0.144211  0.000182  0.991758  0.0
H  H11  1  0.18622534  0.27514334  0.96698731  1  0.117182  0.088433  0.000385  1.032418  0.0
H  H12  1  0.81377611  0.72485636  0.03301234  1  0.117188  0.088442  0.000385  1.032435  0.0
H  H13  1  0.19579129  0.05590447  0.75762738  1  0.108089  0.117923  -8e-06  1.008116  0.0
H  H14  1  0.80421015  0.94409524  0.24237227  1  0.108095  0.117916  -8e-06  1.008161  0.0
H  H15  1  0.81335075  0.13236725  0.42045512  1  0.108191  0.119733  7.5e-05  1.009125  0.0
H  H16  1  0.18664888  0.86763124  0.57954377  1  0.108203  0.119746  7.5e-05  1.009106  0.0
H  H17  1  0.83114908  0.35489243  0.64364889  1  0.114719  0.078299  0.000606  1.053899  0.0
H  H18  1  0.16884804  0.64510607  0.35635049  1  0.11474  0.078308  0.000606  1.053891  0.0
H  H19  1  0.93842390  0.57798532  0.58726259  1  0.310567  0.280458  0.000219  0.989491  0.0
H  H20  1  0.06157494  0.42201684  0.41273930  1  0.310581  0.280497  0.000219  0.989439  0.0
H  H21  1  0.27335466  0.73058421  0.04241706  1  0.29236  0.365237  -8.2e-05  0.986751  -0.001
H  H22  1  0.72664928  0.26941550  0.95758313  1  0.292376  0.365259  -8.2e-05  0.986722  -0.001
H  H23  1  0.16336232  0.65912077  0.85411021  1  0.29132  0.36857  0.000411  0.981704  0.0
H  H24  1  0.83664026  0.34088137  0.14589042  1  0.291312  0.368573  0.000411  0.981699  0.0
C  C25  1  0.82761869  0.78178490  0.74603878  1  -0.09637  -0.192825  5.4e-05  3.966477  0.0
C  C26  1  0.17237968  0.21821360  0.25396088  1  -0.09635  -0.192752  5.4e-05  3.9664  0.0
C  C27  1  0.76478592  0.89730228  0.80731704  1  -0.082595  -0.050752  0.002026  4.001654  0.001
C  C28  1  0.23521302  0.10269744  0.19268310  1  -0.082619  -0.050768  0.002025  4.001694  0.001
C  C29  1  0.62848064  0.92028507  0.70749996  1  -0.096006  -0.091086  0.000106  3.995082  0.0
C  C30  1  0.37151773  0.07971342  0.29249865  1  -0.096033  -0.091167  0.000106  3.995148  0.0
C  C31  1  0.55561595  0.82682201  0.54618169  1  -0.089023  -0.113625  0.002161  3.978972  0.001
C  C32  1  0.44438050  0.17317770  0.45381791  1  -0.088961  -0.113517  0.002161  3.978862  0.001
C  C33  1  0.61364751  0.70585687  0.47965025  1  -0.011493  -0.017023  0.000591  4.000282  0.0
C  C34  1  0.38635075  0.29414407  0.52035011  1  -0.011491  -0.017012  0.000591  4.000338  0.0
C  C35  1  0.53969712  0.60117500  0.31386331  1  0.014034  0.015269  0.00831  3.939225  0.004
C  C36  1  0.46030182  0.39882471  0.68613579  1  0.014032  0.015263  0.008308  3.939243  0.004
C  C37  1  0.60049755  0.48408684  0.25809447  1  -0.09441  -0.275127  0.007555  3.903363  0.004
C  C38  1  0.39950264  0.51591289  0.74190698  1  -0.094396  -0.27511  0.007553  3.903355  0.004
C  C39  1  0.74903316  0.47208519  0.36168935  1  0.225234  0.502339  0.003526  4.13751  0.002
C  C40  1  0.25096817  0.52791695  0.63831100  1  0.225221  0.502292  0.003525  4.137492  0.002
C  C41  1  0.75220293  0.68543915  0.58234631  1  0.112898  0.218304  0.001112  3.989905  0.001
C  C42  1  0.24779351  0.31456057  0.41765328  1  0.112888  0.21827  0.001112  3.98994  0.001
C  C43  1  0.39866308  0.62474488  0.20086670  1  0.220194  0.555423  0.011966  4.169521  0.006
C  C44  1  0.60133894  0.37525603  0.79913240  1  0.220164  0.555417  0.011964  4.169426  0.006
C  C45  1  0.10575365  0.23952928  0.84384955  1  0.036405  0.073772  0.013172  3.931366  0.006
C  C46  1  0.89424723  0.76046921  0.15614961  1  0.036389  0.073718  0.013166  3.931354  0.006
C  C47  1  0.10759788  0.11421979  0.72418148  1  -0.083324  -0.165854  0.007226  3.973412  0.003
C  C48  1  0.89240231  0.88577991  0.27581790  1  -0.083308  -0.165786  0.00723  3.973334  0.003
C  C49  1  0.00144149  0.06663001  0.56487824  1  0.00087  0.086347  0.02446  3.981526  0.013
C  C50  1  0.99855870  0.93336969  0.43512010  1  0.00088  0.08633  0.024451  3.981535  0.013
C  C51  1  0.89922000  0.15715721  0.53879860  1  -0.086845  -0.168732  0.00652  3.955561  0.003
C  C52  1  0.10077962  0.84284128  0.46120029  1  -0.086893  -0.168803  0.006524  3.955546  0.003
C  C53  1  0.90735610  0.28342641  0.66411861  1  0.027938  0.05696  0.011291  3.975257  0.005
C  C54  1  0.09264420  0.71657088  0.33588110  1  0.027991  0.057069  0.011285  3.975178  0.005
N  N55  1  0.81504424  0.57189803  0.51855847  1  -0.377964  -0.342963  0.002824  3.599761  0.002
N  N56  1  0.18495528  0.42810290  0.48144216  1  -0.377976  -0.343  0.002824  3.599791  0.002
N  N57  1  0.00724183  0.32664429  0.81777231  1  -0.349278  -0.212678  0.031652  3.575725  0.025
N  N58  1  0.99275779  0.67335421  0.18222761  1  -0.349315  -0.212711  0.031652  3.575739  0.025
O  O59  1  0.82517399  0.37785165  0.31504734  1  -0.311154  -0.536321  0.001734  2.21298  0.001
O  O60  1  0.17482734  0.62215050  0.68495406  1  -0.311154  -0.536286  0.001733  2.212916  0.001
O  O61  1  0.45236279  0.74724612  0.17110979  1  -0.301804  -0.527838  0.004069  2.169375  0.003
O  O62  1  0.54764230  0.25275601  0.82889034  1  -0.30177  -0.527817  0.004069  2.169373  0.003
O  O63  1  0.23302449  0.51659456  0.14429938  1  -0.294044  -0.491134  -0.007297  2.439938  -0.002
O  O64  1  0.76697877  0.48340633  0.85569791  1  -0.294036  -0.491115  -0.007296  2.439756  -0.002
O  O65  1  0.14651585  0.68900759  0.95816888  1  -0.556048  -0.696475  -0.00261  2.223249  0.002
O  O66  1  0.85348810  0.31099212  0.04183131  1  -0.556051  -0.696487  -0.00261  2.223244  0.002
