# generated using pymatgen
data_NiH34C26(N3O2)2
_symmetry_space_group_name_H-M   'P 1'
_cell_length_a   10.05242869
_cell_length_b   12.16175979
_cell_length_c   26.72029023
_cell_angle_alpha   82.27743908
_cell_angle_beta   79.74240019
_cell_angle_gamma   66.97195438
_symmetry_Int_Tables_number   1
_chemical_formula_structural   NiH34C26(N3O2)2
_chemical_formula_sum   'Ni4 H136 C104 N24 O16'
_cell_volume   2950.76904284
_cell_formula_units_Z   4
loop_
 _symmetry_equiv_pos_site_id
 _symmetry_equiv_pos_as_xyz
  1  'x, y, z'
loop_
 _atom_site_type_symbol
 _atom_site_label
 _atom_site_symmetry_multiplicity
 _atom_site_fract_x
 _atom_site_fract_y
 _atom_site_fract_z
 _atom_site_occupancy
 _atom_site_pbe_bader_charge
 _atom_site_pbe_bader_spin_density
 _atom_site_pbe_cm5_charge
 _atom_site_pbe_ddec_charge
 _atom_site_pbe_ddec_spin_density
 _atom_site_pbe_ddec_sum_bond_order
 _atom_site_pbe_magmom
Ni  Ni0  1  0.03591789  0.62839672  0.12816194  1  0.9015  0.000378  0.610201  0.444231  -0.005117  2.548213  0.0
Ni  Ni1  1  0.28725740  0.87460756  0.37462570  1  1.036694  1.491315  0.644122  0.585802  1.776752  2.454536  1.477
Ni  Ni2  1  0.97011271  0.36514742  0.87325834  1  1.040424  1.491745  0.643783  0.583982  1.77684  2.450744  1.478
Ni  Ni3  1  0.70966690  0.13013449  0.62591883  1  1.036978  -1.4915  0.644284  0.584999  -1.841201  2.448303  -1.477
H  H4  1  0.55434971  0.13573596  0.93499579  1  0.081689  0.000126  0.098485  0.095027  7.7e-05  1.050638  0.0
H  H5  1  0.13471163  0.36242129  0.56099213  1  0.095815  1.6e-05  0.099763  0.096765  -1.7e-05  1.04613  0.0
H  H6  1  0.44725913  0.84962378  0.05562495  1  0.067023  8.2e-05  0.099133  0.095018  2.3e-05  1.055982  0.0
H  H7  1  0.86392763  0.64152091  0.43942916  1  0.064167  -2e-05  0.099305  0.096018  9e-06  1.046652  0.0
H  H8  1  0.45267781  0.33824698  0.96645187  1  0.098447  0.00015  0.100677  0.094466  9.7e-05  1.06079  0.0
H  H9  1  0.26574754  0.16063037  0.53036400  1  0.104236  -0.000131  0.102314  0.0964  -0.0001  1.064248  0.0
H  H10  1  0.55133028  0.64549953  0.02611853  1  0.10008  7.4e-05  0.101532  0.097357  2.7e-05  1.056285  0.0
H  H11  1  0.73405319  0.84370145  0.46972812  1  0.081621  0.000129  0.101669  0.095832  9.5e-05  1.063885  0.0
H  H12  1  0.27139271  0.20963817  0.10754503  1  0.033341  8e-05  0.095064  0.093922  4.2e-05  1.021269  0.0
H  H13  1  0.08782317  0.27627196  0.39004844  1  0.043176  0.000214  0.095935  0.093688  0.000122  1.02071  0.0
H  H14  1  0.76138997  0.76470933  0.88865405  1  0.056336  0.000184  0.096082  0.093792  0.0001  1.020692  0.0
H  H15  1  0.90676745  0.72723007  0.61098756  1  0.067934  -0.000194  0.096432  0.094855  -0.000117  1.019344  0.0
H  H16  1  0.38328204  0.00294913  0.08019535  1  0.059734  4e-05  0.098848  0.099101  2.5e-05  1.027555  0.0
H  H17  1  0.96157829  0.48144808  0.41767602  1  0.083112  -1.8e-05  0.099372  0.098761  -2.3e-05  1.02414  0.0
H  H18  1  0.65368648  0.97153666  0.91540375  1  0.064456  2e-06  0.100195  0.099554  -1.5e-05  1.021681  0.0
H  H19  1  0.03034063  0.52143239  0.58390790  1  0.049754  3e-05  0.099967  0.09962  3e-05  1.022237  0.0
H  H20  1  0.47569942  0.05749738  0.15212840  1  0.092674  5.2e-05  0.101848  0.103344  2.7e-05  1.032135  0.0
H  H21  1  0.17955392  0.45240663  0.34989677  1  0.105198  -2.3e-05  0.1011  0.102594  -3.9e-05  1.03631  0.0
H  H22  1  0.51043979  0.94941703  0.84973905  1  0.101537  -2.9e-05  0.101451  0.10357  -3.4e-05  1.033634  0.0
H  H23  1  0.80980947  0.55570456  0.65304976  1  0.100701  3.5e-05  0.101524  0.102435  3.8e-05  1.03421  0.0
H  H24  1  0.35809211  0.23795644  0.20317574  1  0.064885  7e-05  0.09531  0.08997  3.4e-05  1.029525  0.0
H  H25  1  0.29417782  0.27173112  0.29890494  1  0.031434  0.000214  0.095878  0.090443  9.2e-05  1.029297  0.0
H  H26  1  0.62535522  0.76816894  0.79932819  1  0.037331  0.000118  0.096128  0.091307  4.8e-05  1.026163  0.0
H  H27  1  0.69238978  0.73654349  0.70360501  1  0.041589  -0.00017  0.0959  0.09073  -7.9e-05  1.031461  0.0
H  H28  1  0.76476565  0.15641288  0.25924537  1  0.036784  0.000313  0.096009  0.093621  0.00018  1.026574  0.0
H  H29  1  0.66285641  0.37246818  0.24452278  1  0.041919  -0.000157  0.096854  0.094681  -0.000115  1.027531  0.0
H  H30  1  0.22087877  0.85754947  0.74063663  1  0.053067  -0.000308  0.096495  0.094738  -0.000191  1.027781  0.0
H  H31  1  0.32261014  0.63570546  0.75559171  1  0.063394  0.000328  0.096861  0.094329  0.000197  1.029842  0.0
H  H32  1  0.87924181  0.97699630  0.20757567  1  0.081756  0.000315  0.09453  0.091893  0.000189  1.046487  0.0
H  H33  1  0.54495185  0.55354736  0.29464175  1  0.054553  5.7e-05  0.095721  0.092393  3.3e-05  1.047487  0.0
H  H34  1  0.10938336  0.03876130  0.79067378  1  0.080031  -0.000126  0.095328  0.091353  -7.7e-05  1.04991  0.0
H  H35  1  0.44378358  0.45414818  0.70616046  1  0.072451  0.000142  0.095747  0.092216  7.2e-05  1.04873  0.0
H  H36  1  0.62536489  0.55829951  0.20041859  1  0.029763  9.4e-05  0.094764  0.071716  5.4e-05  1.024628  0.0
H  H37  1  0.87430723  0.94403868  0.30292941  1  0.026441  0.000243  0.093341  0.069895  0.00015  1.020354  0.0
H  H38  1  0.38022239  0.44265182  0.80403550  1  0.029918  0.000244  0.092304  0.068008  0.000161  1.026116  0.0
H  H39  1  0.12211117  0.06258520  0.69728640  1  0.024961  -0.000235  0.092544  0.06826  -0.000161  1.026917  0.0
H  H40  1  0.64955894  0.67280032  0.15519071  1  0.079533  4.4e-05  0.112991  0.105434  2.1e-05  0.997835  0.0
H  H41  1  0.97446820  0.82961227  0.34615010  1  0.092571  -2.3e-05  0.110752  0.102272  -4.1e-05  1.00208  0.0
H  H42  1  0.34758897  0.32690439  0.84627582  1  0.083434  -2.8e-05  0.111238  0.10229  -3.9e-05  1.00382  0.0
H  H43  1  0.02056874  0.17672606  0.65438204  1  0.088152  1.9e-05  0.111545  0.103653  3.3e-05  0.998549  0.0
H  H44  1  0.79196625  0.70056126  0.21121320  1  0.10102  -0.000723  0.108531  0.096738  -0.000293  1.030053  -0.001
H  H45  1  0.18561282  0.81074260  0.28502242  1  0.080309  0.001211  0.103349  0.087386  0.000401  1.029591  0.001
H  H46  1  0.21692465  0.30802500  0.78373860  1  0.060985  0.000911  0.104397  0.088944  0.000224  1.028573  0.001
H  H47  1  0.81050953  0.19310525  0.71559896  1  0.059696  -0.000932  0.104494  0.08879  -0.000252  1.030325  -0.001
H  H48  1  0.78963844  0.56820508  0.24972308  1  0.027798  -0.002121  0.095494  0.066679  -0.001027  0.996518  -0.001
H  H49  1  0.08536470  0.94621550  0.25036375  1  0.022339  0.004361  0.092075  0.060868  0.002046  1.000825  0.002
H  H50  1  0.21875133  0.44555652  0.75031100  1  0.017348  0.004266  0.091262  0.059322  0.001998  1.002731  0.002
H  H51  1  0.91196140  0.05747779  0.74986150  1  0.001345  -0.004204  0.091836  0.059514  -0.002034  1.005405  -0.002
H  H52  1  0.73702513  0.57129082  0.07148280  1  0.075889  0.002614  0.113516  0.074357  0.001235  1.005965  0.002
H  H53  1  0.87210132  0.94087034  0.43102697  1  0.069913  0.006456  0.106747  0.064623  0.003091  1.015397  0.004
H  H54  1  0.26060874  0.43791212  0.93182199  1  0.071134  0.006457  0.107272  0.066782  0.003086  1.017566  0.004
H  H55  1  0.12399877  0.06675777  0.56926110  1  0.058641  -0.006427  0.107198  0.065107  -0.003162  1.016187  -0.004
H  H56  1  0.92181761  0.47023171  0.06930926  1  0.06203  0.000401  0.122876  0.086026  0.00016  0.975155  0.0
H  H57  1  0.96571846  0.03735802  0.43228983  1  0.07812  0.000623  0.118053  0.079769  0.000155  0.982595  0.0
H  H58  1  0.07357901  0.53060634  0.93257026  1  0.030097  0.000664  0.117392  0.079231  0.000162  0.981678  0.0
H  H59  1  0.03077990  0.97008974  0.56776802  1  0.0874  -0.00063  0.118131  0.079177  -0.000166  0.984674  0.0
H  H60  1  0.03101009  0.38853453  0.13995236  1  0.149067  -0.000391  0.124854  0.107652  -0.000158  1.022287  -0.001
H  H61  1  0.06467190  0.11679222  0.36054815  1  0.119583  0.000603  0.119349  0.093348  0.000157  1.038717  0.001
H  H62  1  0.96886155  0.61032730  0.86090374  1  0.114971  0.000594  0.11936  0.093384  0.000155  1.039405  0.001
H  H63  1  0.93479372  0.88782774  0.63918134  1  0.133287  -0.000599  0.119723  0.094104  -0.00017  1.038078  -0.001
H  H64  1  0.91455362  0.37587792  0.19905279  1  -0.000951  -0.002618  0.102931  0.059733  -0.001246  0.970188  -0.001
H  H65  1  0.98571579  0.13139008  0.30279708  1  0.003117  0.004953  0.095659  0.048405  0.002315  0.979091  0.002
H  H66  1  0.08803669  0.62839768  0.80363567  1  -0.012503  0.004895  0.09584  0.049123  0.002282  0.980228  0.002
H  H67  1  0.01335354  0.87324553  0.69697462  1  0.011247  -0.00491  0.09611  0.049414  -0.002376  0.979583  -0.002
H  H68  1  0.84033016  0.71777057  0.01094951  1  0.068624  0.002064  0.102051  0.084743  0.000953  1.020429  0.001
H  H69  1  0.06761101  0.78626527  0.49472873  1  0.062256  0.003657  0.096084  0.075231  0.001747  1.028161  0.002
H  H70  1  0.15723433  0.27822600  0.99393840  1  0.065186  0.00367  0.097184  0.077547  0.001747  1.028046  0.002
H  H71  1  0.92796626  0.22156736  0.50620322  1  0.063862  -0.003601  0.095843  0.075062  -0.001782  1.030238  -0.002
H  H72  1  0.01184156  0.59625749  0.01522946  1  0.067036  0.000329  0.109413  0.08578  0.000134  0.997486  0.0
H  H73  1  0.13149686  0.90599487  0.48789794  1  0.041189  0.000223  0.105004  0.080501  -3.1e-05  1.005723  0.0
H  H74  1  0.98474460  0.39559067  0.98715851  1  0.055863  0.000274  0.104394  0.079313  -6e-06  1.005332  0.0
H  H75  1  0.86596612  0.10081947  0.51269523  1  0.047773  -0.000223  0.105799  0.081913  2.8e-05  1.004382  0.0
H  H76  1  0.05522214  0.78636365  0.99581805  1  0.054762  -0.002743  0.107621  0.087962  -0.001336  0.951605  -0.001
H  H77  1  0.32882859  0.70993836  0.50745839  1  0.036991  0.004714  0.100757  0.077624  0.002238  0.958871  0.003
H  H78  1  0.96032970  0.19732433  0.00555108  1  0.031255  0.0048  0.100579  0.077251  0.002274  0.959278  0.003
H  H79  1  0.66696897  0.29589839  0.49332065  1  0.029646  -0.004751  0.100568  0.076949  -0.002326  0.958922  -0.003
H  H80  1  0.92825883  0.84725313  0.05058132  1  0.079441  -0.000501  0.112053  0.093669  -0.000206  0.973755  0.0
H  H81  1  0.31023867  0.65353972  0.45189007  1  0.023632  0.000471  0.107034  0.086535  7.3e-05  0.980307  0.0
H  H82  1  0.08690866  0.14330241  0.95003707  1  0.037067  0.000482  0.106729  0.085925  8.3e-05  0.980581  0.0
H  H83  1  0.68417024  0.35241794  0.54911356  1  0.056328  -0.000468  0.106839  0.08604  -7.9e-05  0.979799  0.0
H  H84  1  0.26289994  0.79566631  0.04045952  1  0.057848  -0.00284  0.113691  0.072188  -0.001393  0.988529  -0.002
H  H85  1  0.60296247  0.69431870  0.45902987  1  0.05134  0.006847  0.106932  0.063406  0.003229  0.994223  0.004
H  H86  1  0.74837443  0.18105030  0.95651692  1  0.062964  0.006843  0.106986  0.063203  0.00324  0.995166  0.004
H  H87  1  0.39405384  0.30818855  0.54136556  1  0.050069  -0.0068  0.106762  0.063311  -0.003318  0.995685  -0.004
H  H88  1  0.10866639  0.87263029  0.08481771  1  0.059506  -0.00019  0.120578  0.081087  -5.2e-05  0.966163  0.0
H  H89  1  0.55545385  0.62567600  0.41370717  1  0.069427  0.000407  0.116242  0.074733  5.6e-05  0.968149  0.0
H  H90  1  0.90449203  0.11346388  0.91121643  1  0.074737  0.000405  0.115782  0.074217  6.3e-05  0.967573  0.0
H  H91  1  0.43935353  0.37761648  0.58697123  1  0.053097  -0.000405  0.117012  0.076005  -6.2e-05  0.966818  0.0
H  H92  1  0.49784192  0.61244730  0.11999311  1  0.04754  7.3e-05  0.1008  0.082659  4.8e-05  1.004056  0.0
H  H93  1  0.72784121  0.88867516  0.38347218  1  0.05216  0.000104  0.099904  0.081237  7.8e-05  1.005525  0.0
H  H94  1  0.51040175  0.37470591  0.88164098  1  0.020246  7.2e-05  0.099883  0.081164  5.7e-05  1.004639  0.0
H  H95  1  0.27200065  0.11140914  0.61638325  1  0.037761  -0.000114  0.099879  0.08107  -8.8e-05  1.005716  0.0
H  H96  1  0.39941039  0.58486274  0.07728694  1  0.08068  -1.5e-05  0.116089  0.106669  -7e-06  0.995537  0.0
H  H97  1  0.55909519  0.91713365  0.42392368  1  0.088543  -5e-05  0.114779  0.105313  -5.5e-05  0.999419  0.0
H  H98  1  0.61335858  0.40384761  0.92207554  1  0.07972  -6e-05  0.114573  0.104352  -7e-05  1.000782  0.0
H  H99  1  0.44060667  0.08476407  0.57603308  1  0.089539  5.4e-05  0.114297  0.104594  6e-05  0.999692  0.0
H  H100  1  0.08948980  0.81815190  0.16914396  1  0.122121  0.000454  0.122281  0.100059  0.000197  1.028256  0.0
H  H101  1  0.56252240  0.68768354  0.32980176  1  0.096628  0.000602  0.116574  0.085217  0.000139  1.045203  0.001
H  H102  1  0.91897947  0.17821884  0.82736352  1  0.114256  0.000505  0.116954  0.08728  8.6e-05  1.041267  0.001
H  H103  1  0.43276198  0.31473119  0.67083132  1  0.114256  -0.000544  0.116963  0.086531  -0.000122  1.044847  -0.001
H  H104  1  0.25842734  0.74580712  0.19677907  1  0.030663  0.002563  0.107018  0.066198  0.00119  0.973722  0.001
H  H105  1  0.69287151  0.75704173  0.30391192  1  0.017442  0.005127  0.100737  0.057509  0.002392  0.977227  0.002
H  H106  1  0.74742447  0.24604049  0.80149091  1  0.02573  0.004967  0.100915  0.057463  0.002321  0.982093  0.002
H  H107  1  0.30398567  0.24369868  0.69636107  1  0.021006  -0.005117  0.101341  0.058497  -0.002473  0.977971  -0.002
H  H108  1  0.33390208  0.46117742  0.14572747  1  0.105589  0.000729  0.110972  0.110778  0.000301  1.018966  0.001
H  H109  1  0.45281242  0.04348424  0.35364908  1  0.081329  0.001068  0.107304  0.101241  0.000345  1.0075  0.001
H  H110  1  0.66232167  0.53270698  0.85197745  1  0.075582  0.001017  0.107188  0.100016  0.000327  1.008571  0.001
H  H111  1  0.54745317  0.95851276  0.64627471  1  0.075168  -0.001059  0.107113  0.100686  -0.000358  1.008637  -0.001
H  H112  1  0.39091538  0.52512637  0.19098271  1  0.060618  0.002076  0.094186  0.069877  0.000956  1.018886  0.001
H  H113  1  0.61584179  0.97634665  0.31041524  1  0.03652  0.004011  0.09195  0.065525  0.001861  1.018939  0.002
H  H114  1  0.60678270  0.46384822  0.80854726  1  0.037411  0.004113  0.090944  0.063243  0.001911  1.018452  0.002
H  H115  1  0.38384782  0.02447666  0.68944477  1  0.029553  -0.004078  0.09149  0.064893  -0.001955  1.019806  -0.002
H  H116  1  0.02059636  0.67882104  0.23714088  1  0.068466  0.000192  0.116383  0.10681  8.2e-05  0.958658  0.0
H  H117  1  0.42538203  0.82815952  0.26316194  1  0.047501  2.7e-05  0.111603  0.099423  -7e-05  0.966615  0.0
H  H118  1  0.98365464  0.32195017  0.76143633  1  0.036692  -0.000168  0.112667  0.102084  -0.000186  0.964082  0.0
H  H119  1  0.57182538  0.17407305  0.73724256  1  0.060759  0.000194  0.112408  0.101537  0.000202  0.965447  0.0
H  H120  1  0.19457955  0.57499909  0.25193334  1  0.05893  0.001723  0.101493  0.083136  0.000777  1.034205  0.001
H  H121  1  0.51031920  0.93480017  0.24752282  1  0.095457  0.00257  0.098775  0.080673  0.001217  1.031921  0.001
H  H122  1  0.81137257  0.42678676  0.74593836  1  0.05648  0.002588  0.09812  0.079541  0.001218  1.033676  0.001
H  H123  1  0.48829631  0.06644996  0.75256378  1  0.086058  -0.0026  0.097757  0.079435  -0.001279  1.034003  -0.001
H  H124  1  0.15911143  0.41905077  0.20706451  1  0.07746  -3.5e-05  0.114639  0.097104  2e-06  0.990261  0.0
H  H125  1  0.28436477  0.08741451  0.29377383  1  0.062904  -4.6e-05  0.109845  0.089815  -0.000105  0.997339  0.0
H  H126  1  0.84368431  0.58026635  0.79328788  1  0.050742  -7.4e-05  0.109959  0.089908  -0.000119  0.991084  0.0
H  H127  1  0.71515148  0.91527277  0.70596457  1  0.054661  4.7e-05  0.109709  0.089361  0.000104  0.996654  0.0
H  H128  1  0.02076469  0.46819772  0.26035119  1  0.060146  -0.002223  0.103056  0.08165  -0.001085  0.975591  -0.001
H  H129  1  0.24863247  0.03842976  0.23942838  1  0.028352  0.003219  0.098674  0.07488  0.001528  0.97875  0.001
H  H130  1  0.97843355  0.53403394  0.73898231  1  0.04566  0.003185  0.097994  0.074091  0.001521  0.979092  0.001
H  H131  1  0.75020016  0.96418075  0.76049512  1  0.0223  -0.003178  0.098274  0.074277  -0.001558  0.977972  -0.001
H  H132  1  0.19738085  0.62739065  0.05059179  1  0.500582  -0.000177  0.283814  0.244626  -0.000344  1.023031  0.0
H  H133  1  0.38512756  0.86471859  0.45384068  1  0.502061  -0.000368  0.285118  0.244556  0.000154  1.034344  -0.001
H  H134  1  0.80789351  0.35170344  0.95219666  1  0.478616  -0.000397  0.285133  0.243693  0.000128  1.036524  -0.001
H  H135  1  0.61335993  0.13948220  0.54652269  1  0.493805  0.000372  0.285022  0.244248  -0.000191  1.033862  0.001
H  H136  1  0.79928050  0.72071099  0.10071425  1  0.488282  0.000224  0.286339  0.245783  0.000334  1.002709  0.0
H  H137  1  0.10183751  0.78489771  0.40450199  1  0.480918  -0.0002  0.285004  0.242082  0.000291  1.021902  0.0
H  H138  1  0.21150707  0.27880088  0.90372542  1  0.484316  -0.000176  0.28499  0.242057  0.000307  1.022364  0.0
H  H139  1  0.89336572  0.22189077  0.59655914  1  0.471991  0.000196  0.28504  0.242647  -0.000335  1.018303  0.0
C  C140  1  0.47768616  0.05150668  0.00506452  1  0.002714  0.000589  -0.004757  0.069671  0.000325  3.974675  0.0
C  C141  1  0.03633116  0.44042862  0.49181217  1  -0.060953  -0.00111  -0.001833  0.076505  -0.000661  3.962637  -0.001
C  C142  1  0.54121374  0.92866115  0.98783742  1  -0.020137  -0.00092  -0.000362  0.082949  -0.00056  3.965846  -0.001
C  C143  1  0.95919318  0.56307874  0.50915589  1  0.025469  0.001138  -0.001841  0.075936  0.000656  3.96153  0.001
C  C144  1  0.49572128  0.14857180  0.97350949  1  -0.070374  1.1e-05  -0.088931  -0.119436  3.2e-05  3.958731  0.0
C  C145  1  0.12382758  0.34698231  0.52297767  1  -0.091353  0.0006  -0.088581  -0.120981  0.000312  3.95561  0.001
C  C146  1  0.51404858  0.83401700  0.01848227  1  0.005965  0.000659  -0.091156  -0.126153  0.000375  3.963344  0.001
C  C147  1  0.87366406  0.65683335  0.47761028  1  -0.125489  -0.000624  -0.088475  -0.119696  -0.000355  3.956011  -0.001
C  C148  1  0.43729594  0.26335685  0.99039539  1  -0.039091  0.000394  -0.090363  -0.10084  0.000254  3.998674  0.0
C  C149  1  0.19734993  0.23241818  0.50643911  1  -0.004843  6e-05  -0.089379  -0.099849  2.1e-05  4.001311  0.0
C  C150  1  0.57294682  0.71854853  0.00264248  1  -0.141557  0.000332  -0.091712  -0.104947  0.000199  4.014408  0.0
C  C151  1  0.80095113  0.77162508  0.49393419  1  -0.003095  -7e-05  -0.089608  -0.100506  -4.6e-05  4.000643  0.0
C  C152  1  0.35441272  0.28681242  0.03838171  1  -0.009785  -2.4e-05  -0.025345  -0.041066  -5.2e-05  4.000266  0.0
C  C153  1  0.18467106  0.20420726  0.45886800  1  -0.046806  0.006667  -0.026654  -0.047232  0.004133  3.996139  0.005
C  C154  1  0.66445811  0.69111567  0.95624819  1  -0.018749  0.00677  -0.027561  -0.049183  0.004212  4.006533  0.005
C  C155  1  0.81290568  0.79975520  0.54162094  1  -0.0493  -0.00671  -0.025932  -0.04507  -0.004359  3.995837  -0.005
C  C156  1  0.33560762  0.19106859  0.07004139  1  -0.014036  0.000688  -0.094087  -0.105535  0.000402  4.030954  0.0
C  C157  1  0.09839666  0.29629474  0.42739135  1  -0.117245  -0.001081  -0.092542  -0.104361  -0.000645  4.023664  -0.001
C  C158  1  0.69132760  0.78447613  0.92512035  1  -0.118408  -0.0005  -0.092156  -0.101811  -0.000286  4.021266  0.0
C  C159  1  0.89701036  0.70730450  0.57351875  1  -0.065358  0.001114  -0.092294  -0.105338  0.000635  4.022182  0.001
C  C160  1  0.39711494  0.07556455  0.05396422  1  -0.103453  -0.000209  -0.091756  -0.129384  -0.000126  3.980067  0.0
C  C161  1  0.02641415  0.41193607  0.44344550  1  -0.001105  0.000346  -0.089719  -0.129421  0.000163  3.972127  0.0
C  C162  1  0.63063356  0.90095999  0.94056309  1  -0.000267  0.000272  -0.09155  -0.133727  0.000122  3.974524  0.0
C  C163  1  0.96775899  0.59131504  0.55774113  1  -0.003018  -0.000333  -0.089978  -0.128232  -0.000164  3.968626  0.0
C  C164  1  0.28100669  0.41295143  0.05442060  1  1.565754  0.000203  0.193628  0.556174  0.000141  4.251305  0.0
C  C165  1  0.25738201  0.07565693  0.44556560  1  1.583322  -9.3e-05  0.203154  0.555046  0.000798  4.21399  -0.001
C  C166  1  0.73597131  0.56202613  0.94408363  1  1.571558  -0.000329  0.202018  0.551421  0.000657  4.220039  -0.001
C  C167  1  0.74173446  0.92863460  0.55458480  1  1.560265  0.000114  0.202152  0.553246  -0.000882  4.216419  0.001
C  C168  1  0.68366225  0.00601483  0.17737973  1  -0.018051  0.000128  -0.023119  -0.03653  7.9e-05  3.972571  0.0
C  C169  1  0.35368095  0.51483603  0.32478564  1  -0.04013  0.007045  -0.025363  -0.043955  0.004354  3.982102  0.005
C  C170  1  0.30394926  0.00638827  0.82269370  1  -0.06707  0.006549  -0.02405  -0.04182  0.00404  3.974893  0.005
C  C171  1  0.63573370  0.49263687  0.67699779  1  -0.058007  -0.006641  -0.024828  -0.043999  -0.004272  3.974394  -0.005
C  C172  1  0.53719689  0.08052028  0.17587523  1  -0.103938  0.000341  -0.084783  -0.08828  0.000192  3.987149  0.0
C  C173  1  0.28499141  0.43373550  0.32627043  1  -0.026055  0.000241  -0.084954  -0.087606  0.000148  3.989365  0.0
C  C174  1  0.44881560  0.92823945  0.82540419  1  0.063099  6.8e-05  -0.085059  -0.087649  7.3e-05  3.985833  0.0
C  C175  1  0.70347158  0.57423191  0.67606188  1  0.030573  -6.9e-05  -0.084878  -0.086984  -9.7e-05  3.987418  0.0
C  C176  1  0.47225536  0.18007366  0.20476782  1  0.001369  3.1e-05  -0.09215  -0.133576  5e-06  3.976752  0.0
C  C177  1  0.34904363  0.33399668  0.29757625  1  -0.010575  0.000749  -0.091699  -0.133756  0.00043  3.977952  0.001
C  C178  1  0.51220559  0.82790465  0.79701877  1  -0.078232  0.000597  -0.091982  -0.134264  0.000349  3.975582  0.0
C  C179  1  0.63758693  0.67440767  0.70448477  1  -0.091751  -0.000623  -0.092309  -0.135332  -0.000379  3.975682  0.0
C  C180  1  0.70152833  0.13584183  0.23520241  1  -0.015257  0.000117  -0.096614  -0.140758  6.5e-05  4.009344  0.0
C  C181  1  0.55701917  0.38961987  0.26794609  1  -0.078314  0.000229  -0.095455  -0.142516  8.7e-05  4.004713  0.0
C  C182  1  0.28439758  0.87675043  0.76502288  1  -0.114447  -0.0  -0.093932  -0.139336  -3.8e-05  3.9958  0.0
C  C183  1  0.42927383  0.61884227  0.73280000  1  -0.058877  -3e-06  -0.094471  -0.139261  2.7e-05  3.994822  0.0
C  C184  1  0.76539301  0.03597864  0.20674463  1  -0.059471  0.000785  -0.095098  -0.107205  0.000493  4.027323  0.0
C  C185  1  0.49150511  0.49050394  0.29588192  1  -0.021275  -0.000302  -0.093609  -0.106753  -0.000184  4.026886  0.0
C  C186  1  0.22202155  0.97815663  0.79279506  1  -0.117619  -0.001272  -0.093895  -0.106881  -0.000791  4.020511  -0.001
C  C187  1  0.49687825  0.51734582  0.70517343  1  -0.059133  0.001266  -0.092646  -0.105712  0.000764  4.01894  0.001
C  C188  1  0.55292879  0.20823341  0.23544158  1  -0.088399  0.000145  -0.008367  0.066937  6.5e-05  4.010487  0.0
C  C189  1  0.48527868  0.31123694  0.26731506  1  -0.079166  -0.000746  -0.005013  0.076144  -0.000458  4.004949  0.0
C  C190  1  0.43173077  0.80137592  0.76567377  1  0.019172  -0.000776  -0.00563  0.072407  -0.000468  3.996495  0.0
C  C191  1  0.50002240  0.69767955  0.73396457  1  -0.028002  0.000783  -0.005765  0.074145  0.000456  3.996193  0.0
C  C192  1  0.75226473  0.89041131  0.15094108  1  1.583875  0.000174  0.187805  0.547612  0.000101  4.275541  0.0
C  C193  1  0.27448471  0.62948707  0.35147786  1  1.582061  -0.000343  0.197799  0.546201  0.000757  4.239106  0.0
C  C194  1  0.24305413  0.12180963  0.84928654  1  1.576784  -0.000356  0.197539  0.54688  0.000655  4.23835  -0.001
C  C195  1  0.71688852  0.37766638  0.65040069  1  1.56769  0.000347  0.197826  0.547183  -0.000853  4.23523  0.001
C  C196  1  0.70698494  0.58910237  0.17673838  1  0.260872  -3.4e-05  -0.070265  -0.088966  1e-06  3.851261  0.0
C  C197  1  0.96628876  0.91516906  0.32494645  1  0.240154  0.000168  -0.07005  -0.085716  1.6e-05  3.847432  0.0
C  C198  1  0.29478173  0.41281914  0.82532197  1  0.244577  0.000147  -0.070497  -0.084862  1.2e-05  3.847593  0.0
C  C199  1  0.03003400  0.09069856  0.67538849  1  0.251851  -0.000134  -0.07027  -0.086291  -1.5e-05  3.849701  0.0
C  C200  1  0.80662039  0.60686644  0.21039404  1  0.19397  0.000538  -0.071446  -0.096374  0.000231  3.821033  0.001
C  C201  1  0.10946889  0.90352331  0.28870767  1  0.230222  -0.000252  -0.071663  -0.089337  0.000198  3.84736  -0.001
C  C202  1  0.19924902  0.40097174  0.78826551  1  0.248958  -0.000555  -0.071923  -0.089825  4e-06  3.849697  -0.002
C  C203  1  0.88744456  0.10069246  0.71163459  1  0.277496  0.00058  -0.071844  -0.090098  -7.5e-05  3.848956  0.002
C  C204  1  0.83541482  0.54280966  0.09021507  1  0.604001  0.000695  0.026711  0.046012  0.000615  3.898317  0.0
C  C205  1  0.96603640  0.96360085  0.41259210  1  0.572975  0.000532  0.023817  0.057289  0.000922  3.901031  -0.002
C  C206  1  0.16419640  0.45843852  0.91282586  1  0.620052  0.000499  0.02221  0.05442  0.00091  3.905184  -0.002
C  C207  1  0.03055968  0.04341360  0.58772231  1  0.569226  -0.000424  0.022461  0.055153  -0.000987  3.90655  0.002
C  C208  1  0.93474829  0.43657969  0.16638219  1  0.565276  0.000109  0.020355  -0.002986  -6.2e-05  3.88361  0.001
C  C209  1  0.03783354  0.06911638  0.33437832  1  0.583888  -0.001148  0.017535  0.003361  -0.000433  3.916491  -0.002
C  C210  1  0.06657179  0.56450950  0.83473294  1  0.603748  -0.001165  0.016853  0.000649  -0.000444  3.919631  -0.002
C  C211  1  0.96081306  0.93562694  0.66552428  1  0.563604  0.001127  0.01714  0.003004  0.000342  3.91243  0.002
C  C212  1  0.93306736  0.67784044  0.03274359  1  0.241779  -0.00034  -0.069489  -0.052311  -3.7e-05  3.87425  -0.001
C  C213  1  0.14138642  0.82535147  0.47079386  1  0.275068  0.000295  -0.072009  -0.048262  0.000491  3.876153  -0.001
C  C214  1  0.06946898  0.31606739  0.96987138  1  0.247744  0.000306  -0.072399  -0.046807  0.00051  3.877211  -0.001
C  C215  1  0.85481607  0.18164711  0.52996337  1  0.262075  -0.000286  -0.073257  -0.051013  -0.000583  3.879207  0.001
C  C216  1  0.00715345  0.76399226  0.03432933  1  0.236438  0.000634  -0.065624  -0.049441  0.000141  3.894654  0.001
C  C217  1  0.29927812  0.73526949  0.46845474  1  0.313498  0.000432  -0.067051  -0.040015  0.000667  3.897218  -0.001
C  C218  1  0.00281737  0.22393911  0.96677867  1  0.298802  0.00047  -0.066599  -0.039406  0.000706  3.897801  -0.001
C  C219  1  0.69650663  0.27056605  0.53231727  1  0.264274  -0.000438  -0.066491  -0.037627  -0.000773  3.896552  0.001
C  C220  1  0.19364008  0.78474197  0.07616381  1  0.609295  -0.000853  0.027283  0.047045  -0.000804  3.917303  0.0
C  C221  1  0.54970362  0.71166938  0.42451952  1  0.598382  0.000673  0.025064  0.061224  0.001117  3.920974  -0.002
C  C222  1  0.81802472  0.19911123  0.92219714  1  0.574915  0.000788  0.025012  0.061058  0.001169  3.927279  -0.002
C  C223  1  0.44673204  0.29127561  0.57597839  1  0.591609  -0.000637  0.024431  0.059441  -0.00121  3.921799  0.002
C  C224  1  0.38981149  0.61787093  0.11449561  1  0.24171  0.000173  -0.063283  -0.074099  9.2e-05  3.810712  0.0
C  C225  1  0.61967272  0.88396010  0.38711935  1  0.247253  0.000124  -0.065932  -0.077455  -5e-06  3.816383  0.0
C  C226  1  0.61919851  0.37106202  0.88516593  1  0.262195  7.7e-05  -0.065369  -0.076312  -3.6e-05  3.816797  0.0
C  C227  1  0.37950133  0.11732986  0.61286569  1  0.230187  -0.000122  -0.065069  -0.075697  -4e-06  3.8148  0.0
C  C228  1  0.19638003  0.74450976  0.16669870  1  0.557366  2.6e-05  0.020244  -0.003685  0.000161  3.886973  -0.001
C  C229  1  0.59814317  0.76026664  0.33309877  1  0.591407  -0.001101  0.016963  0.00163  -0.000381  3.915939  -0.002
C  C230  1  0.81066956  0.24974460  0.83082509  1  0.556204  -0.0012  0.016761  -0.000305  -0.000465  3.917203  -0.002
C  C231  1  0.39851848  0.24152591  0.66728233  1  0.557851  0.00112  0.016952  0.000897  0.000316  3.915237  0.002
C  C232  1  0.33115857  0.54430842  0.15798349  1  0.185173  -4.4e-05  -0.073097  -0.098568  9.2e-05  3.798066  -0.001
C  C233  1  0.53873242  0.95868269  0.34233030  1  0.222687  -0.000337  -0.072106  -0.088405  0.000162  3.825892  -0.001
C  C234  1  0.66990966  0.44720338  0.84055410  1  0.221622  -0.000323  -0.0714  -0.085399  0.00018  3.826777  -0.001
C  C235  1  0.46072292  0.04290306  0.65762946  1  0.253601  0.000357  -0.072643  -0.089229  -0.000249  3.827462  0.001
C  C236  1  0.11501368  0.59854715  0.22501427  1  0.255868  -0.000542  -0.068222  -0.092121  -0.000187  3.880196  -0.001
C  C237  1  0.43108170  0.90880831  0.27544187  1  0.238605  0.000359  -0.068978  -0.086403  0.000487  3.882145  -0.001
C  C238  1  0.88842206  0.40132754  0.77394756  1  0.292782  0.000259  -0.06905  -0.08753  0.000434  3.882057  -0.001
C  C239  1  0.56695298  0.09332411  0.72473089  1  0.225707  -0.000274  -0.069514  -0.089019  -0.000506  3.88411  0.001
C  C240  1  0.06605851  0.49650306  0.22240758  1  0.240169  0.000594  -0.064917  -0.089644  0.000187  3.905776  0.001
C  C241  1  0.28043993  0.00986236  0.27807100  1  0.264823  0.000177  -0.065357  -0.083652  0.000406  3.910689  -0.001
C  C242  1  0.93742209  0.50392679  0.77738435  1  0.262991  0.000214  -0.064805  -0.081787  0.000412  3.908539  -0.001
C  C243  1  0.71817245  0.99292252  0.72188965  1  0.295259  -0.000175  -0.064563  -0.080771  -0.000465  3.906119  0.001
N  N244  1  0.88534183  0.64431117  0.08633650  1  -1.056891  0.030944  -0.489293  -0.297853  0.018321  3.497346  0.023
N  N245  1  0.10465149  0.86006091  0.41832026  1  -1.088453  0.084552  -0.500957  -0.345021  0.051641  3.518724  0.073
N  N246  1  0.12255897  0.35267874  0.91764266  1  -1.080999  0.085184  -0.500834  -0.345224  0.051974  3.518306  0.073
N  N247  1  0.89144847  0.14676009  0.58243226  1  -1.063572  -0.084051  -0.500331  -0.343938  -0.05324  3.519672  -0.072
N  N248  1  0.12031153  0.70483027  0.06827689  1  -1.054084  -0.034753  -0.490164  -0.300681  -0.02133  3.511068  -0.026
N  N249  1  0.39428313  0.79025918  0.43569722  1  -1.114324  0.088201  -0.50339  -0.351837  0.053686  3.538487  0.076
N  N250  1  0.88727298  0.27803860  0.93379493  1  -1.085837  0.088174  -0.504747  -0.353049  0.053638  3.544287  0.076
N  N251  1  0.60272159  0.21410469  0.56486421  1  -1.08332  -0.087712  -0.503333  -0.352451  -0.055427  3.54166  -0.075
N  N252  1  0.95729858  0.53642109  0.18654234  1  -0.964555  -0.022614  -0.341793  -0.085599  -0.014121  3.490516  -0.018
N  N253  1  0.17254127  0.97160604  0.31251633  1  -0.987395  0.062557  -0.34287  -0.118622  0.039297  3.500638  0.056
N  N254  1  0.04829145  0.46642568  0.81203912  1  -0.985003  0.062452  -0.342796  -0.117267  0.03915  3.502015  0.056
N  N255  1  0.82537931  0.03229733  0.68757188  1  -0.989861  -0.062581  -0.342954  -0.118371  -0.040727  3.501061  -0.056
N  N256  1  0.17770736  0.62707990  0.17300591  1  -0.953735  0.0248  -0.34348  -0.077587  0.014896  3.490176  0.02
N  N257  1  0.47691708  0.87847151  0.32648104  1  -0.975315  0.065658  -0.346143  -0.114637  0.041036  3.504343  0.059
N  N258  1  0.82358360  0.36890169  0.82473222  1  -0.977129  0.065106  -0.346103  -0.114192  0.040702  3.507908  0.059
N  N259  1  0.52091242  0.12390771  0.67374232  1  -0.990688  -0.065995  -0.345906  -0.112608  -0.042755  3.505946  -0.059
N  N260  1  0.80536518  0.49617739  0.14197132  1  -1.019844  0.000406  -0.344732  -0.178005  0.000211  3.458683  0.0
N  N261  1  0.94473045  0.00750586  0.35990475  1  -1.030453  0.00127  -0.345551  -0.186428  0.000507  3.455977  0.001
N  N262  1  0.19365493  0.50398850  0.86040701  1  -1.025162  0.001244  -0.345445  -0.185487  0.000498  3.454367  0.001
N  N263  1  0.05281619  0.99848117  0.64022737  1  -1.045407  -0.001226  -0.344992  -0.185804  -0.000519  3.455354  -0.001
N  N264  1  0.28243117  0.74344887  0.11721296  1  -1.018024  -0.000431  -0.343085  -0.182005  -0.000247  3.450492  0.0
N  N265  1  0.63377449  0.75873840  0.38334156  1  -1.046582  0.001648  -0.342693  -0.189932  0.000705  3.447829  0.002
N  N266  1  0.72879140  0.24655775  0.88093841  1  -1.007061  0.001672  -0.342058  -0.188887  0.000729  3.448218  0.002
N  N267  1  0.36352634  0.24291695  0.61693837  1  -0.990282  -0.001632  -0.342725  -0.188997  -0.000743  3.446829  -0.002
O  O268  1  0.88478130  0.82804006  0.15691349  1  -1.204216  0.005225  -0.336562  -0.597279  0.003007  2.288457  0.005
O  O269  1  0.34134472  0.70262095  0.34509724  1  -1.168355  0.067715  -0.320307  -0.56149  0.040996  2.361708  0.063
O  O270  1  0.11242473  0.19259023  0.84233561  1  -1.172948  0.066293  -0.321203  -0.563504  0.040109  2.335989  0.061
O  O271  1  0.65171081  0.30331617  0.65655574  1  -1.166732  -0.067355  -0.320722  -0.561839  -0.04237  2.346202  -0.062
O  O272  1  0.20359446  0.42710368  0.09820606  1  -1.206444  -0.003507  -0.335028  -0.597664  -0.00217  2.267071  -0.003
O  O273  1  0.23889044  0.05107489  0.40246161  1  -1.172036  0.067327  -0.321355  -0.565969  0.04059  2.32258  0.062
O  O274  1  0.82078365  0.53871586  0.90138143  1  -1.171929  0.069328  -0.319471  -0.56188  0.041859  2.335928  0.064
O  O275  1  0.76011484  0.95334360  0.59767436  1  -1.170259  -0.068149  -0.319984  -0.564417  -0.042666  2.323674  -0.063
O  O276  1  0.29888173  0.49654783  0.02321427  1  -1.182116  0.001045  -0.339797  -0.558015  0.000634  2.122278  0.001
O  O277  1  0.32873640  0.00079773  0.47812878  1  -1.18233  -0.000295  -0.324162  -0.533795  -0.000479  2.143992  0.0
O  O278  1  0.70992668  0.48563968  0.97716389  1  -1.177518  -0.000455  -0.325452  -0.53399  -0.000595  2.144261  0.0
O  O279  1  0.67163710  0.00359334  0.52176991  1  -1.184551  0.000422  -0.324358  -0.534331  0.000514  2.145474  0.0
O  O280  1  0.67453658  0.86144369  0.12665669  1  -1.183549  -0.00025  -0.340533  -0.563806  -0.000217  2.114137  0.0
O  O281  1  0.14958613  0.64658847  0.37615970  1  -1.18744  -0.001135  -0.325539  -0.54145  -0.001014  2.145492  -0.001
O  O282  1  0.32485721  0.14164027  0.87467138  1  -1.178594  -0.000996  -0.324644  -0.541565  -0.000912  2.150577  -0.001
O  O283  1  0.84175982  0.36151642  0.62589740  1  -1.182269  0.001006  -0.326463  -0.544303  0.00087  2.140458  0.001
