# generated using pymatgen
data_CoH24C22(NO)6
_symmetry_space_group_name_H-M   'P 1'
_cell_length_a   8.41196498
_cell_length_b   11.47285893
_cell_length_c   12.21900000
_cell_angle_alpha   112.01351146
_cell_angle_beta   90.00000000
_cell_angle_gamma   90.00000000
_symmetry_Int_Tables_number   1
_chemical_formula_structural   CoH24C22(NO)6
_chemical_formula_sum   'Co2 H48 C44 N12 O12'
_cell_volume   1093.27455947
_cell_formula_units_Z   2
loop_
 _symmetry_equiv_pos_site_id
 _symmetry_equiv_pos_as_xyz
  1  'x, y, z'
loop_
 _atom_site_type_symbol
 _atom_site_label
 _atom_site_symmetry_multiplicity
 _atom_site_fract_x
 _atom_site_fract_y
 _atom_site_fract_z
 _atom_site_occupancy
 _atom_site_hle17_bader_charge
 _atom_site_hle17_bader_spin_density
 _atom_site_hle17_ddec_charge
 _atom_site_hle17_ddec_spin_density
 _atom_site_hle17_ddec_sum_bond_order
 _atom_site_hle17_magmom
 _atom_site_hse06_10hf_ddec_charge
 _atom_site_hse06_10hf_ddec_spin_density
 _atom_site_hse06_10hf_ddec_sum_bond_order
 _atom_site_hse06_10hf_magmom
 _atom_site_hse06_ddec_charge
 _atom_site_hse06_ddec_spin_density
 _atom_site_hse06_ddec_sum_bond_order
 _atom_site_hse06_magmom
 _atom_site_pbe_bader_charge
 _atom_site_pbe_bader_spin_density
 _atom_site_pbe_cm5_charge
 _atom_site_pbe_ddec_charge
 _atom_site_pbe_ddec_spin_density
 _atom_site_pbe_ddec_sum_bond_order
 _atom_site_pbe_magmom
Co  Co0  1  0.99999584  0.99998912  0.99998201  1  1.302915  2.634895  0.978059  3.037871  2.265492  2.587  0.732187  1.094356  2.794085  0.972  0.803772  1.088097  2.717657  0.97  1.127654  0.974497  0.624002  0.694425  1.103898  2.838858  0.968
Co  Co1  1  0.49997831  0.50001994  0.00001835  1  1.303481  -2.635001  0.978153  -3.037923  2.26607  -2.587  0.732484  -1.094335  2.794471  -0.972  0.803904  -1.088078  2.717988  -0.97  1.127621  -0.974476  0.624115  0.694693  -1.103887  2.839168  -0.968
H  H2  1  0.92028438  0.01876192  0.23411508  1  0.054246  0.001982  0.081541  0.000665  0.978842  0.002  0.092739  -0.000154  1.042824  0.0  0.095137  -7e-05  1.039955  0.0  0.116097  -0.00018  0.11609  0.090649  -0.000185  1.045373  0.0
H  H3  1  0.42018601  0.48117716  0.76592228  1  0.053894  -0.001991  0.081562  -0.000668  0.978808  -0.002  0.092742  0.000154  1.04278  0.0  0.095123  7e-05  1.039931  0.0  0.117432  0.000178  0.116069  0.090596  0.000184  1.045385  0.0
H  H4  1  0.07972810  0.98120087  0.76584211  1  0.054929  0.001981  0.081401  0.000664  0.979207  0.002  0.092655  -0.000154  1.043155  0.0  0.095029  -7e-05  1.040301  0.0  0.116171  -0.00018  0.116142  0.090577  -0.000185  1.045678  0.0
H  H5  1  0.57976466  0.51884204  0.23409896  1  0.054062  -0.001988  0.081819  -0.000668  0.978672  -0.002  0.093034  0.000154  1.042619  0.0  0.09541  6.9e-05  1.039769  0.0  0.117646  0.000177  0.116177  0.090941  0.000184  1.045177  0.0
H  H6  1  0.96319826  0.16856022  0.43898456  1  0.017145  0.000189  0.10667  0.000106  0.972557  0.0  0.11353  -7e-06  1.040171  0.0  0.116825  -9e-06  1.039338  0.0  0.118169  -8.7e-05  0.104269  0.111233  -5e-06  1.040877  0.0
H  H7  1  0.46299170  0.33130647  0.56098968  1  0.016185  -0.000187  0.106616  -0.000105  0.972962  0.0  0.113535  7e-06  1.040495  0.0  0.116839  8e-06  1.039647  0.0  0.118383  8.7e-05  0.10432  0.11118  5e-06  1.041251  0.0
H  H8  1  0.03684157  0.83139599  0.56097768  1  0.016909  0.000189  0.106714  0.000106  0.972454  0.0  0.11357  -7e-06  1.040051  0.0  0.116864  -8e-06  1.039208  0.0  0.117766  -8.7e-05  0.104263  0.111271  -5e-06  1.040762  0.0
H  H9  1  0.53700176  0.66872119  0.43903455  1  0.016115  -0.000187  0.106538  -0.000105  0.973001  0.0  0.113495  7e-06  1.04048  0.0  0.116822  8e-06  1.039597  0.0  0.117914  8.7e-05  0.104287  0.111146  5e-06  1.041227  0.0
H  H10  1  0.27546239  0.37624352  0.29631364  1  0.005  0.000275  0.107491  0.000166  0.943498  0.0  0.122119  -2.1e-05  0.999154  0.0  0.125425  -2.8e-05  0.997868  0.0  0.085946  -0.000137  0.10916  0.119666  -2.3e-05  1.000351  0.0
H  H11  1  0.77551559  0.12377831  0.70365627  1  0.005102  -0.000274  0.10722  -0.000165  0.943546  0.0  0.121974  2.1e-05  0.999064  0.0  0.125261  2.8e-05  0.997797  0.0  0.085919  0.000136  0.109141  0.119468  2.2e-05  1.00031  0.0
H  H12  1  0.72454534  0.62371739  0.70364535  1  0.004912  0.000276  0.107421  0.000165  0.943219  0.0  0.1221  -2.1e-05  0.998803  0.0  0.125456  -2.8e-05  0.997455  0.0  0.08601  -0.000137  0.109249  0.119643  -2.3e-05  1.000009  0.0
H  H13  1  0.22448025  0.87628884  0.29640640  1  0.004777  -0.000275  0.107185  -0.000165  0.943395  0.0  0.121907  2.1e-05  0.998959  0.0  0.125259  2.8e-05  0.997616  0.0  0.085257  0.000136  0.109188  0.119436  2.2e-05  1.000161  0.0
H  H14  1  0.21032541  0.22337370  0.09813550  1  0.04851  0.001807  0.080245  0.000438  0.97224  0.002  0.091745  -0.000334  1.037475  0.0  0.09499  -0.000191  1.03286  0.0  0.115494  -0.000611  0.119056  0.088834  -0.000436  1.041625  0.0
H  H15  1  0.71045826  0.27661710  0.90180303  1  0.047885  -0.001813  0.080168  -0.000439  0.972151  -0.002  0.091742  0.000334  1.037357  0.0  0.094996  0.000192  1.03273  0.0  0.115407  0.00061  0.118996  0.088818  0.000436  1.041516  0.0
H  H16  1  0.78966449  0.77660414  0.90182044  1  0.048594  0.001809  0.08035  0.000439  0.971578  0.002  0.091573  -0.000334  1.037168  0.0  0.094815  -0.000192  1.032554  0.0  0.1104  -0.000615  0.118913  0.088657  -0.000436  1.041333  0.0
H  H17  1  0.28949716  0.72343783  0.09825779  1  0.048137  -0.001812  0.080152  -0.000439  0.971798  -0.002  0.091735  0.000335  1.037017  0.0  0.094983  0.000192  1.032395  0.0  0.110395  0.000613  0.119047  0.088809  0.000436  1.041189  0.0
H  H18  1  0.29947462  0.53718183  0.49531567  1  -0.009546  9.8e-05  0.12729  2e-05  0.96036  0.0  0.138712  -1.5e-05  1.017575  0.0  0.141974  -1.2e-05  1.016784  0.0  0.113215  -3.4e-05  0.107278  0.136364  -1.8e-05  1.018349  0.0
H  H19  1  0.79960152  0.96281031  0.50462391  1  -0.009259  -9.9e-05  0.127122  -2.1e-05  0.960248  0.0  0.138637  1.5e-05  1.01739  0.0  0.141899  1.2e-05  1.016598  0.0  0.11269  3.4e-05  0.107211  0.136269  1.7e-05  1.018169  0.0
H  H20  1  0.70053192  0.46278472  0.50463549  1  -0.009544  9.8e-05  0.127087  2e-05  0.960608  0.0  0.138603  -1.5e-05  1.017753  0.0  0.141852  -1.2e-05  1.016961  0.0  0.112712  -3.4e-05  0.107236  0.136256  -1.8e-05  1.018523  0.0
H  H21  1  0.20042998  0.03722488  0.49542915  1  -0.009231  -9.8e-05  0.127134  -2.1e-05  0.960608  0.0  0.138663  1.5e-05  1.017718  0.0  0.141917  1.2e-05  1.016918  0.0  0.112891  3.4e-05  0.107207  0.136297  1.8e-05  1.018495  0.0
H  H22  1  0.22886805  0.64250940  0.73333121  1  0.081455  -0.000116  0.119475  -2.2e-05  0.964179  0.0  0.128349  6e-06  1.027126  0.0  0.131752  6e-06  1.024936  0.0  0.154034  -1.3e-05  0.122081  0.125702  5e-06  1.028891  0.0
H  H23  1  0.72904250  0.85753820  0.26658451  1  0.077391  0.000116  0.119461  2.2e-05  0.964423  0.0  0.128189  -6e-06  1.027536  0.0  0.131595  -6e-06  1.025339  0.0  0.153287  1.3e-05  0.122003  0.125471  -5e-06  1.029385  0.0
H  H24  1  0.77113136  0.35745621  0.26661470  1  0.081102  -0.000116  0.119522  -2.2e-05  0.964281  0.0  0.128196  6e-06  1.02748  0.0  0.131596  6e-06  1.025293  0.0  0.152957  -1.3e-05  0.122079  0.125561  5e-06  1.029249  0.0
H  H25  1  0.27100683  0.14249510  0.73346461  1  0.077979  0.000116  0.119357  2.2e-05  0.964357  0.0  0.128009  -6e-06  1.027591  0.0  0.131412  -6e-06  1.025396  0.0  0.152793  1.3e-05  0.121909  0.125327  -5e-06  1.029399  0.0
H  H26  1  0.88664183  0.50904458  0.79279753  1  0.006462  -0.000123  0.08049  -2e-06  0.915624  0.0  0.097209  -1.6e-05  0.976263  0.0  0.097136  -5e-06  0.977361  0.0  0.056963  -9.6e-05  0.112495  0.097171  -3.3e-05  0.975673  0.0
H  H27  1  0.38665044  0.99080559  0.20714118  1  0.006649  0.000123  0.08064  2e-06  0.915449  0.0  0.097268  1.6e-05  0.976217  0.0  0.097189  5e-06  0.977306  0.0  0.056302  9.6e-05  0.112475  0.097214  3.3e-05  0.975637  0.0
H  H28  1  0.11335758  0.49092009  0.20713986  1  0.006608  -0.000122  0.080366  -2e-06  0.915616  0.0  0.097181  -1.6e-05  0.976262  0.0  0.097101  -5e-06  0.977336  0.0  0.056673  -9.6e-05  0.11241  0.097091  -3.3e-05  0.975737  0.0
H  H29  1  0.61338225  0.00921173  0.79290477  1  0.006393  0.000123  0.080508  2e-06  0.915437  0.0  0.09703  1.6e-05  0.976322  0.0  0.096964  5e-06  0.977413  0.0  0.0562  9.6e-05  0.112343  0.09699  3.3e-05  0.975724  0.0
H  H30  1  0.06120568  0.58683286  0.86691033  1  -0.004356  -0.000233  0.086916  -0.000117  0.928893  0.0  0.102213  -0.0  0.994495  0.0  0.103784  1.9e-05  0.993414  0.0  0.067786  -6e-06  0.116294  0.100801  -2e-06  0.995522  0.0
H  H31  1  0.56132426  0.91321475  0.13302340  1  -0.005921  0.000234  0.086929  0.000117  0.929109  0.0  0.102562  -0.0  0.994297  0.0  0.104071  -2e-05  0.993277  0.0  0.066304  6e-06  0.11633  0.101156  2e-06  0.995293  0.0
H  H32  1  0.93877352  0.41315438  0.13303828  1  -0.005168  -0.000233  0.086848  -0.000117  0.929071  0.0  0.102342  -0.0  0.994561  0.0  0.103906  1.9e-05  0.993455  0.0  0.066802  -6e-06  0.11625  0.10093  -2e-06  0.995574  0.0
H  H33  1  0.43870011  0.08679693  0.86702221  1  -0.005983  0.000233  0.086816  0.000117  0.929139  0.0  0.102495  0.0  0.994251  0.0  0.104015  -2e-05  0.993239  0.0  0.066596  6e-06  0.116316  0.101086  2e-06  0.995259  0.0
H  H34  1  0.02008924  0.30069283  0.77852562  1  0.003046  -0.000896  0.11644  -0.000365  0.934313  0.0  0.129397  6.5e-05  0.997357  0.0  0.131262  -1.8e-05  0.996662  0.0  0.079066  0.000153  0.107634  0.128239  9.7e-05  0.997746  0.0
H  H35  1  0.51984049  0.19931113  0.22157714  1  0.00122  0.000898  0.116383  0.000366  0.934031  0.0  0.129391  -6.5e-05  0.997139  0.0  0.13125  1.8e-05  0.996441  0.0  0.077297  -0.000152  0.107607  0.128251  -9.7e-05  0.997545  0.0
H  H36  1  0.97993870  0.69929252  0.22145916  1  0.002762  -0.000896  0.116413  -0.000365  0.934078  0.0  0.12938  6.5e-05  0.997159  0.0  0.131246  -1.8e-05  0.996459  0.0  0.079342  0.000153  0.107576  0.128228  9.7e-05  0.997554  0.0
H  H37  1  0.48021955  0.80069679  0.77845569  1  -0.00128  0.000899  0.11634  0.000366  0.933998  0.0  0.129373  -6.5e-05  0.997096  0.0  0.131237  1.8e-05  0.996399  0.0  0.0772  -0.000152  0.107595  0.128226  -9.7e-05  0.997506  0.0
H  H38  1  0.94313755  0.39900396  0.91445892  1  -0.001519  0.000565  0.115138  0.000329  0.949662  0.0  0.130431  0.000285  1.011088  0.0  0.132576  0.00021  1.011026  0.0  0.065981  0.000736  0.107027  0.128707  0.000377  1.011412  0.0
H  H39  1  0.44319371  0.10098402  0.08552609  1  -0.001063  -0.000564  0.114771  -0.000329  0.949647  0.0  0.130234  -0.000285  1.011068  0.0  0.132359  -0.000211  1.011019  0.0  0.06612  -0.000735  0.106984  0.128563  -0.000377  1.011376  0.0
H  H40  1  0.05682263  0.60098233  0.08550082  1  -0.000993  0.000564  0.115089  0.000328  0.949583  0.0  0.130457  0.000286  1.010941  0.0  0.132588  0.00021  1.010885  0.0  0.065284  0.000736  0.107031  0.128748  0.000377  1.011264  0.0
H  H41  1  0.55679737  0.89903801  0.91452397  1  -0.001034  -0.000564  0.114696  -0.000329  0.949786  0.0  0.130254  -0.000285  1.011002  0.0  0.132379  -0.000211  1.010957  0.0  0.06503  -0.000735  0.107037  0.12858  -0.000377  1.011309  0.0
H  H42  1  0.93677518  0.79630622  0.06853664  1  0.644219  -0.000266  0.409986  -3.3e-05  0.900977  0.0  0.376282  0.000282  0.970201  0.0  0.386878  0.000143  0.955047  0.0  0.630658  0.000361  0.283523  0.369259  0.000408  0.980143  0.0
H  H43  1  0.43688128  0.70385138  0.93157575  1  0.643678  0.000268  0.410007  3.3e-05  0.900971  0.0  0.376444  -0.000283  0.970035  0.0  0.387011  -0.000144  0.954894  0.0  0.630585  -0.000361  0.283532  0.36942  -0.00041  0.979976  0.0
H  H44  1  0.06320877  0.20368759  0.93144457  1  0.644229  -0.000266  0.409944  -3.4e-05  0.901068  0.0  0.376174  0.000281  0.970412  0.0  0.386769  0.000142  0.955258  0.0  0.630951  0.000361  0.283498  0.369149  0.000408  0.980357  0.0
H  H45  1  0.56308009  0.29615466  0.06844005  1  0.643572  0.000267  0.410147  3.3e-05  0.900755  0.0  0.376405  -0.000283  0.970082  0.0  0.386995  -0.000144  0.954934  0.0  0.630864  -0.000362  0.283525  0.369384  -0.00041  0.980022  0.0
H  H46  1  0.11204279  0.80518608  0.01294585  1  0.652146  -0.000842  0.401579  -0.000558  0.916758  -0.001  0.364296  -0.000106  0.993041  0.0  0.375821  -0.00021  0.976109  0.0  0.635804  -0.000304  0.281123  0.356397  -1.5e-05  1.004557  0.0
H  H47  1  0.61219466  0.69476751  0.98697525  1  0.651419  0.00084  0.401711  0.000556  0.916661  0.001  0.364363  0.000105  0.993072  0.0  0.375878  0.000209  0.976162  0.0  0.636213  0.000302  0.28105  0.356467  1.4e-05  1.004581  0.0
H  H48  1  0.88793998  0.19478988  0.98701598  1  0.652128  -0.000841  0.40145  -0.000558  0.916986  -0.001  0.364177  -0.000106  0.993228  0.0  0.3757  -0.00021  0.976302  0.0  0.636435  -0.000303  0.281021  0.356281  -1.5e-05  1.004737  0.0
H  H49  1  0.38776909  0.30526109  0.01305913  1  0.651355  0.00084  0.401402  0.000556  0.917106  0.001  0.364154  0.000105  0.993412  0.0  0.375673  0.000209  0.976491  0.0  0.636443  0.000301  0.280989  0.356257  1.4e-05  1.00492  0.0
C  C50  1  0.99585056  0.10041522  0.25206541  1  0.499874  -0.025746  0.120184  -0.013995  3.704862  -0.018  0.086202  -0.003449  3.945759  -0.004  0.097797  -0.00259  3.960743  -0.003  0.437473  -0.007571  0.033644  0.077622  -0.004097  3.938205  -0.005
C  C51  1  0.49571414  0.39950413  0.74794700  1  0.499964  0.02584  0.119859  0.014044  3.704694  0.019  0.085977  0.003445  3.945466  0.004  0.097575  0.002587  3.960468  0.003  0.436946  0.007564  0.033327  0.077368  0.004092  3.938  0.005
C  C52  1  0.00417382  0.89955698  0.74789264  1  0.499544  -0.025763  0.120665  -0.014002  3.704546  -0.018  0.086584  -0.003451  3.945507  -0.004  0.098208  -0.002591  3.960486  -0.003  0.438343  -0.007576  0.03357  0.077991  -0.0041  3.937934  -0.005
C  C53  1  0.50425317  0.60052259  0.25208671  1  0.50096  0.025834  0.119768  0.014043  3.704774  0.019  0.085801  0.003445  3.945655  0.004  0.097405  0.002589  3.96066  0.003  0.437529  0.007567  0.033164  0.077081  0.004094  3.938226  0.005
C  C54  1  0.02267841  0.18362730  0.36623747  1  0.068364  0.023012  -0.162099  0.012664  3.717017  0.017  -0.181045  0.001065  3.965804  0.002  -0.189951  0.001274  3.984068  0.002  -0.037907  0.001816  -0.087523  -0.175103  0.000885  3.953823  0.001
C  C55  1  0.52246532  0.31627794  0.63375852  1  0.070168  -0.023097  -0.161927  -0.01271  3.716787  -0.017  -0.180826  -0.001065  3.965486  -0.002  -0.189735  -0.001274  3.98376  -0.002  -0.036702  -0.001819  -0.087491  -0.174848  -0.000887  3.953516  -0.001
C  C56  1  0.97734953  0.81632233  0.63371673  1  0.068675  0.023014  -0.162232  0.012665  3.716416  0.017  -0.181153  0.001065  3.965298  0.002  -0.190053  0.001274  3.983554  0.002  -0.038666  0.001815  -0.087532  -0.175223  0.000885  3.953356  0.001
C  C57  1  0.47751388  0.68375160  0.36627536  1  0.069292  -0.023092  -0.161721  -0.012706  3.71691  -0.017  -0.18066  -0.001065  3.965601  -0.002  -0.189578  -0.001276  3.983856  -0.002  -0.037405  -0.001819  -0.087411  -0.174677  -0.000888  3.953652  -0.001
C  C58  1  0.12161130  0.28887872  0.38776987  1  -0.015568  -0.028092  0.095749  -0.015494  3.776088  -0.02  0.105454  -0.003956  4.010596  -0.005  0.115101  -0.002598  4.027513  -0.003  -0.00196  -0.010001  0.01309  0.098644  -0.005342  3.999051  -0.006
C  C59  1  0.62151352  0.21107353  0.61219438  1  -0.016951  0.028204  0.095913  0.015556  3.775579  0.02  0.105287  0.003953  4.010473  0.005  0.114935  0.002597  4.027399  0.003  -0.002711  0.009998  0.013361  0.098494  0.00534  3.998882  0.006
C  C60  1  0.87841069  0.71107373  0.61218941  1  -0.015684  -0.028096  0.095565  -0.015496  3.775838  -0.02  0.105268  -0.003957  4.010391  -0.005  0.11491  -0.002598  4.02733  -0.003  -0.001435  -0.010004  0.013214  0.09845  -0.005343  3.998862  -0.006
C  C61  1  0.37847518  0.78895978  0.38784656  1  -0.017015  0.028203  0.095894  0.015555  3.775472  0.02  0.105389  0.003954  4.010238  0.005  0.115025  0.002597  4.027182  0.003  -0.0032  0.010001  0.013572  0.098591  0.005341  3.998655  0.006
C  C62  1  0.19382986  0.29966241  0.28822435  1  0.065281  0.022693  -0.157204  0.012532  3.698496  0.017  -0.177709  0.000967  3.949823  0.002  -0.185974  0.001215  3.966782  0.002  -0.041729  0.001523  -0.084637  -0.172355  0.00072  3.939  0.001
C  C63  1  0.69379152  0.20030206  0.71172701  1  0.064546  -0.022781  -0.156764  -0.01258  3.698376  -0.017  -0.1772  -0.000968  3.949767  -0.002  -0.185446  -0.001216  3.966749  -0.002  -0.043535  -0.001529  -0.084666  -0.171815  -0.000725  3.938946  -0.001
C  C64  1  0.80619213  0.70030884  0.71174401  1  0.06429  0.022685  -0.156791  0.012528  3.699141  0.017  -0.177297  0.000967  3.950323  0.002  -0.185595  0.001215  3.967274  0.002  -0.042857  0.001521  -0.084645  -0.171952  0.00072  3.939515  0.001
C  C65  1  0.30619124  0.79974253  0.28831380  1  0.064272  -0.022774  -0.156747  -0.012575  3.698818  -0.017  -0.177211  -0.000968  3.9502  -0.002  -0.185505  -0.001217  3.96716  -0.002  -0.031508  -0.001538  -0.084628  -0.17185  -0.000724  3.93937  -0.001
C  C66  1  0.15881783  0.21360539  0.17584507  1  0.517177  -0.027371  0.117169  -0.015309  3.702873  -0.02  0.08171  -0.004032  3.950162  -0.005  0.09409  -0.003108  3.963907  -0.004  0.462566  -0.008799  0.039151  0.072281  -0.004837  3.944255  -0.006
C  C67  1  0.65882823  0.28635814  0.82412315  1  0.518781  0.027481  0.117028  0.015367  3.702456  0.02  0.081377  0.004029  3.95002  0.005  0.09375  0.003104  3.963758  0.004  0.463177  0.008798  0.03904  0.071886  0.004836  3.944165  0.006
C  C68  1  0.84118039  0.78636868  0.82410546  1  0.518605  -0.027358  0.116981  -0.015299  3.70322  -0.02  0.081695  -0.00403  3.950606  -0.005  0.094068  -0.003106  3.964375  -0.004  0.468373  -0.00879  0.039097  0.072269  -0.004835  3.94464  -0.006
C  C69  1  0.34114384  0.71368832  0.17592733  1  0.519471  0.027467  0.117032  0.015357  3.702639  0.02  0.081384  0.004028  3.950236  0.005  0.093746  0.003104  3.964004  0.004  0.458753  0.008801  0.038718  0.071879  0.004835  3.944345  0.006
C  C70  1  0.13988170  0.38310954  0.50678226  1  0.451737  0.005686  0.130666  0.003132  3.820871  0.005  0.123831  0.000361  4.089457  0.001  0.126615  0.000396  4.109094  0.001  0.461944  0.000619  0.087455  0.122266  0.000303  4.076017  0.001
C  C71  1  0.63990637  0.11683801  0.49319670  1  0.454088  -0.005707  0.130808  -0.003144  3.820498  -0.005  0.124123  -0.000361  4.089018  -0.001  0.126905  -0.000397  4.10866  -0.001  0.462137  -0.000622  0.087756  0.122552  -0.000305  4.07557  -0.001
C  C72  1  0.86014623  0.61684291  0.49317539  1  0.45192  0.005685  0.131052  0.003132  3.820054  0.005  0.124157  0.000361  4.088707  0.001  0.126938  0.000396  4.108344  0.001  0.461524  0.000619  0.087656  0.122596  0.000304  4.075266  0.001
C  C73  1  0.36012870  0.88319811  0.50684687  1  0.453769  -0.005706  0.130628  -0.003144  3.820464  -0.005  0.123815  -0.000361  4.08908  -0.001  0.126596  -0.000397  4.108723  -0.001  0.461416  -0.000622  0.087423  0.122249  -0.000305  4.075631  -0.001
C  C74  1  0.22620755  0.49809072  0.54616155  1  0.092823  -0.005564  -0.228444  -0.002991  3.742011  -0.004  -0.250294  -0.000674  4.004503  -0.001  -0.257817  -0.000465  4.02494  -0.001  -0.044486  -0.001771  -0.112267  -0.245383  -0.000917  3.990685  -0.001
C  C75  1  0.72629998  0.00189913  0.45377910  1  0.093082  0.005589  -0.228491  0.003005  3.741571  0.004  -0.250453  0.000673  4.004077  0.001  -0.257974  0.000464  4.024517  0.001  -0.043423  0.001768  -0.112407  -0.245545  0.000916  3.990247  0.001
C  C76  1  0.77380731  0.50187489  0.45379091  1  0.093717  -0.005565  -0.228242  -0.002992  3.741953  -0.004  -0.250198  -0.000675  4.004463  -0.001  -0.257703  -0.000465  4.024891  -0.001  -0.043402  -0.001771  -0.112134  -0.24528  -0.000918  3.99063  -0.001
C  C77  1  0.27371964  0.99814075  0.54627643  1  0.094091  0.005588  -0.228455  0.003005  3.741734  0.004  -0.250413  0.000673  4.004212  0.001  -0.257922  0.000464  4.024644  0.001  -0.042279  0.001769  -0.112226  -0.2455  0.000917  3.990382  0.001
C  C78  1  0.19262443  0.55408035  0.66545389  1  0.374347  0.003742  -0.013011  0.002065  3.679686  0.003  -0.068213  0.000247  3.93778  0.0  -0.063201  0.000246  3.954107  0.0  0.295643  0.000516  0.015129  -0.071216  0.000251  3.926875  0.0
C  C79  1  0.69272281  0.94592307  0.33447656  1  0.376914  -0.00376  -0.01294  -0.002075  3.679537  -0.003  -0.068045  -0.000247  3.937703  0.0  -0.063042  -0.000246  3.954026  0.0  0.295722  -0.000516  0.015259  -0.071022  -0.000251  3.926864  0.0
C  C80  1  0.80738211  0.44587869  0.33449461  1  0.374114  0.003743  -0.013055  0.002065  3.679773  0.003  -0.068108  0.000247  3.937916  0.0  -0.063099  0.000246  3.954251  0.0  0.29682  0.000516  0.015136  -0.071125  0.000251  3.927023  0.0
C  C81  1  0.30732296  0.05411211  0.66556995  1  0.376155  -0.003759  -0.012758  -0.002074  3.67924  -0.003  -0.067805  -0.000247  3.937437  0.0  -0.062799  -0.000246  3.953763  0.0  0.295279  -0.000516  0.015287  -0.070809  -0.000252  3.926579  0.0
C  C82  1  0.01441161  0.49745423  0.80464284  1  0.490963  0.000287  0.016745  0.000116  3.626509  0.0  -0.06335  3.2e-05  3.889802  0.0  -0.058773  7.4e-05  3.900158  0.0  0.34827  0.000107  -0.050066  -0.066223  2.3e-05  3.882951  0.0
C  C83  1  0.51439705  0.00250648  0.19533993  1  0.492471  -0.000288  0.016272  -0.000116  3.62646  0.0  -0.063938  -3.2e-05  3.889916  0.0  -0.059294  -7.4e-05  3.900231  0.0  0.35028  -0.000106  -0.050166  -0.066766  -2.3e-05  3.88305  0.0
C  C84  1  0.98559136  0.50251702  0.19530342  1  0.490837  0.000287  0.017096  0.000116  3.626298  0.0  -0.063396  3.2e-05  3.889972  0.0  -0.058745  7.4e-05  3.900228  0.0  0.349954  0.000107  -0.049884  -0.066212  2.3e-05  3.883085  0.0
C  C85  1  0.48563089  0.99750426  0.80469715  1  0.492481  -0.000287  0.016844  -0.000116  3.62675  0.0  -0.063242  -3.2e-05  3.890044  0.0  -0.05866  -7.4e-05  3.900469  0.0  0.350884  -0.000107  -0.049949  -0.066087  -2.3e-05  3.883191  0.0
C  C86  1  0.03793763  0.39228366  0.85023194  1  0.1341  -0.005659  -0.302763  -0.003271  3.683725  -0.005  -0.342209  0.000616  3.939409  0.001  -0.349567  0.000348  3.947665  0.0  -0.040264  0.001018  -0.16627  -0.33689  0.000732  3.933563  0.001
C  C87  1  0.53789454  0.10775132  0.14984408  1  0.136242  0.005656  -0.301875  0.003269  3.682368  0.005  -0.341728  -0.000613  3.938579  -0.001  -0.349056  -0.000346  3.946809  0.0  -0.039719  -0.001015  -0.166171  -0.336551  -0.00073  3.932837  -0.001
C  C88  1  0.96204989  0.60770827  0.14974697  1  0.134936  -0.00566  -0.302555  -0.003272  3.683222  -0.005  -0.342084  0.000616  3.939266  0.001  -0.34945  0.000348  3.947518  0.0  -0.040506  0.001017  -0.166217  -0.336807  0.000732  3.933429  0.001
C  C89  1  0.46214054  0.89225096  0.85017857  1  0.138563  0.005656  -0.301941  0.003271  3.682185  0.005  -0.341897  -0.000613  3.938562  -0.001  -0.349225  -0.000346  3.946833  0.0  -0.037582  -0.001014  -0.166199  -0.336693  -0.00073  3.932802  -0.001
C  C90  1  0.19491046  0.38951112  0.91047805  1  1.529734  0.001549  0.703899  0.000709  3.7957  0.003  0.643174  0.00123  4.102142  0.001  0.679775  7.8e-05  4.095618  0.0  1.549851  0.002876  0.217794  0.618023  0.001844  4.105959  0.002
C  C91  1  0.69492087  0.11055019  0.08965634  1  1.528895  -0.001548  0.702964  -0.000711  3.796258  -0.003  0.642537  -0.001222  4.1026  -0.001  0.679144  -7e-05  4.096064  0.0  1.551704  -0.002862  0.217361  0.617414  -0.001835  4.106431  -0.002
C  C92  1  0.80505209  0.61050996  0.08953895  1  1.529344  0.001553  0.703579  0.00071  3.796211  0.003  0.642853  0.001231  4.102639  0.001  0.679458  7.8e-05  4.096114  0.0  1.550757  0.002877  0.217869  0.61771  0.001846  4.106455  0.002
C  C93  1  0.30507379  0.88943422  0.91033383  1  1.528511  -0.001552  0.702903  -0.000713  3.796202  -0.003  0.642464  -0.001223  4.102608  -0.001  0.67908  -6.9e-05  4.096071  0.0  1.550716  -0.002864  0.217264  0.617328  -0.001836  4.106443  -0.002
N  N94  1  0.05926083  0.11523221  0.15592561  1  -1.199904  0.078511  -0.333899  0.048061  3.393529  0.074  -0.219599  -0.004989  3.644434  -0.007  -0.246947  -0.003822  3.660924  -0.005  -1.175006  -0.012273  -0.34862  -0.204474  -0.005595  3.634856  -0.008
N  N95  1  0.55918920  0.38468713  0.84406716  1  -1.19986  -0.078608  -0.333849  -0.048108  3.393121  -0.074  -0.219612  0.004974  3.644096  0.007  -0.24692  0.003809  3.660549  0.005  -1.175395  0.012242  -0.348529  -0.204412  0.005578  3.634412  0.008
N  N96  1  0.94073026  0.88474374  0.84403458  1  -1.200439  0.078524  -0.334452  0.048065  3.393874  0.074  -0.220136  -0.004987  3.644765  -0.007  -0.247478  -0.00382  3.66123  -0.005  -1.174661  -0.012269  -0.348673  -0.204955  -0.005593  3.635142  -0.008
N  N97  1  0.44075671  0.61534147  0.15597376  1  -1.200139  -0.078612  -0.334118  -0.048112  3.393258  -0.074  -0.219875  0.004973  3.644266  0.007  -0.247179  0.003807  3.660705  0.005  -1.176101  0.01224  -0.348377  -0.204585  0.005577  3.634511  0.008
N  N98  1  0.05914908  0.37038065  0.59760571  1  -0.635285  -0.007833  -0.292902  -0.00428  2.847445  -0.006  -0.295044  -0.001003  3.105302  -0.001  -0.300913  -0.000711  3.120154  -0.001  -0.63545  -0.002605  -0.228022  -0.291054  -0.001371  3.095392  -0.002
N  N99  1  0.55912144  0.12956784  0.40239731  1  -0.636801  0.007866  -0.29289  0.004299  2.847606  0.006  -0.295016  0.001003  3.105389  0.001  -0.300886  0.000712  3.120247  0.001  -0.636417  0.002605  -0.228049  -0.29106  0.001371  3.095503  0.002
N  N100  1  0.94088480  0.62957368  0.40235505  1  -0.635119  -0.007832  -0.293185  -0.00428  2.847676  -0.006  -0.295282  -0.001003  3.105489  -0.001  -0.301154  -0.00071  3.120349  -0.001  -0.636571  -0.002606  -0.228159  -0.291288  -0.001371  3.095573  -0.002
N  N101  1  0.44090412  0.87045418  0.59763883  1  -0.636666  0.007865  -0.292763  0.004299  2.848129  0.006  -0.294849  0.001003  3.105882  0.001  -0.300717  0.000712  3.120743  0.001  -0.636157  0.002606  -0.228047  -0.290892  0.001372  3.095991  0.002
N  N102  1  0.09338008  0.47431396  0.69201493  1  -0.828652  -0.003108  0.069661  -0.001744  3.58504  -0.003  0.190121  -0.000438  3.77165  -0.001  0.182309  -0.000291  3.794699  0.0  -0.789558  -0.001178  -0.139089  0.194906  -0.000625  3.756312  -0.001
N  N103  1  0.59334294  0.02565333  0.30797098  1  -0.828496  0.003124  0.069816  0.001753  3.58486  0.003  0.190257  0.000437  3.77149  0.001  0.182445  0.000288  3.794518  0.0  -0.788586  0.001176  -0.13922  0.195038  0.000624  3.75614  0.001
N  N104  1  0.90663240  0.52564977  0.30794424  1  -0.829475  -0.003109  0.069509  -0.001745  3.585071  -0.003  0.190061  -0.000438  3.771686  -0.001  0.182226  -0.000291  3.794723  0.0  -0.789059  -0.001179  -0.139357  0.194849  -0.000625  3.756331  -0.001
N  N105  1  0.40668500  0.97436681  0.69206941  1  -0.829206  0.003124  0.069445  0.001753  3.5854  0.003  0.189914  0.000437  3.771928  0.001  0.182112  0.000289  3.794977  0.0  -0.79025  0.001177  -0.139306  0.194699  0.000624  3.756589  0.001
O  O106  1  0.27919042  0.48954087  0.94581070  1  -1.186063  -0.078289  -0.616798  -0.046106  2.146694  -0.07  -0.526738  0.000446  2.422094  0.002  -0.56636  0.001935  2.414031  0.005  -1.133988  0.000862  -0.295283  -0.499957  -0.000653  2.426096  0.0
O  O107  1  0.77916872  0.01049130  0.05428398  1  -1.185482  0.078277  -0.616496  0.046089  2.145995  0.07  -0.526539  -0.000426  2.421351  -0.002  -0.566196  -0.001917  2.413309  -0.005  -1.134458  -0.000809  -0.295084  -0.499757  0.000678  2.425362  0.0
O  O108  1  0.72075550  0.51049150  0.05421927  1  -1.186067  -0.0783  -0.616493  -0.046105  2.147058  -0.07  -0.526457  0.000443  2.422537  0.002  -0.566081  0.001934  2.414475  0.005  -1.134082  0.000857  -0.295216  -0.499668  -0.000656  2.426531  0.0
O  O109  1  0.22082355  0.98949688  0.94569934  1  -1.185232  0.078302  -0.616473  0.046102  2.14613  0.07  -0.526465  -0.000424  2.421506  -0.002  -0.566121  -0.001915  2.41345  -0.005  -1.134202  -0.000805  -0.295052  -0.49968  0.000681  2.425519  0.0
O  O110  1  0.22997243  0.28770164  0.92404110  1  -1.214943  -0.004959  -0.642643  -0.002615  2.011257  -0.005  -0.574111  0.000839  2.230828  0.001  -0.600822  0.000521  2.22048  0.001  -1.197566  0.002171  -0.308006  -0.556041  0.001108  2.237816  0.002
O  O111  1  0.72999591  0.21232677  0.07604897  1  -1.215546  0.004948  -0.642182  0.00261  2.011237  0.005  -0.57389  -0.000838  2.230798  -0.001  -0.600638  -0.000523  2.220512  -0.001  -1.197672  -0.002167  -0.307786  -0.555829  -0.001106  2.237784  -0.002
O  O112  1  0.77000202  0.71232884  0.07598493  1  -1.215003  -0.004961  -0.642706  -0.002616  2.011531  -0.005  -0.574089  0.000839  2.230985  0.001  -0.600807  0.000522  2.220643  0.001  -1.198057  0.002172  -0.308069  -0.556013  0.001108  2.237963  0.002
O  O113  1  0.26998329  0.78764731  0.92391629  1  -1.215222  0.004948  -0.642048  0.00261  2.01122  0.005  -0.573961  -0.000838  2.230993  -0.001  -0.600713  -0.000523  2.220691  -0.001  -1.197571  -0.002168  -0.30776  -0.555877  -0.001107  2.23796  -0.002
O  O114  1  0.03193309  0.84970757  0.07445797  1  -1.292121  0.053581  -0.826576  0.031496  1.927891  0.05  -0.785114  0.02596  2.148285  0.039  -0.810574  0.021556  2.114501  0.032  -1.2608  0.05561  -0.584363  -0.765014  0.030938  2.1695  0.046
O  O115  1  0.53193041  0.65033815  0.92555857  1  -1.290956  -0.053582  -0.826802  -0.031492  1.927458  -0.05  -0.785537  -0.025972  2.147571  -0.039  -0.810947  -0.021566  2.113862  -0.032  -1.261046  -0.055641  -0.584389  -0.765422  -0.030951  2.168785  -0.046
O  O116  1  0.96805681  0.15027778  0.92550635  1  -1.292118  0.053575  -0.826479  0.031494  1.928051  0.05  -0.784995  0.025959  2.148515  0.039  -0.810461  0.021555  2.11474  0.032  -1.261718  0.05561  -0.584254  -0.764892  0.030937  2.169724  0.046
O  O117  1  0.46804165  0.34968105  0.07447413  1  -1.290804  -0.053563  -0.826681  -0.031481  1.927604  -0.05  -0.785381  -0.025966  2.147709  -0.039  -0.81083  -0.021561  2.113932  -0.032  -1.261577  -0.055627  -0.584295  -0.765263  -0.030944  2.168917  -0.046
