# generated using pymatgen
data_LiH10C6N2ClO2
_symmetry_space_group_name_H-M   'P 1'
_cell_length_a   8.05227564
_cell_length_b   9.05558203
_cell_length_c   12.04432682
_cell_angle_alpha   90.00003063
_cell_angle_beta   89.99994925
_cell_angle_gamma   102.08313413
_symmetry_Int_Tables_number   1
_chemical_formula_structural   LiH10C6N2ClO2
_chemical_formula_sum   'Li4 H40 C24 N8 Cl4 O8'
_cell_volume   858.79104635
_cell_formula_units_Z   4
loop_
 _symmetry_equiv_pos_site_id
 _symmetry_equiv_pos_as_xyz
  1  'x, y, z'
loop_
 _atom_site_type_symbol
 _atom_site_label
 _atom_site_symmetry_multiplicity
 _atom_site_fract_x
 _atom_site_fract_y
 _atom_site_fract_z
 _atom_site_occupancy
 _atom_site_hle17_bader_spin_density
 _atom_site_hle17_ddec_charge
 _atom_site_hle17_ddec_spin_density
 _atom_site_hle17_ddec_sum_bond_order
 _atom_site_hle17_magmom
 _atom_site_hse06_10hf_bader_spin_density
 _atom_site_hse06_10hf_ddec_charge
 _atom_site_hse06_10hf_ddec_spin_density
 _atom_site_hse06_10hf_ddec_sum_bond_order
 _atom_site_hse06_10hf_magmom
 _atom_site_hse06_bader_spin_density
 _atom_site_hse06_ddec_charge
 _atom_site_hse06_ddec_spin_density
 _atom_site_hse06_ddec_sum_bond_order
 _atom_site_hse06_magmom
 _atom_site_pbe_bader_spin_density
 _atom_site_pbe_cm5_charge
 _atom_site_pbe_ddec_charge
 _atom_site_pbe_ddec_spin_density
 _atom_site_pbe_ddec_sum_bond_order
 _atom_site_pbe_magmom
Li  Li0  1  0.55178532  0.10907511  0.59282502  1  0  0.821062  0  0.445581  0  0  0.772115  0  0.565921  0  0  0.781957  0  0.549607  0  0  0.396329  0.765218  0  0.577286  0
Li  Li1  1  0.94821670  0.39092533  0.09282524  1  0  0.821054  0  0.445588  0  0  0.772128  0  0.565892  0  0  0.781969  0  0.549578  0  0  0.396326  0.76523  0  0.577256  0
Li  Li2  1  0.44821532  0.89092567  0.40717515  1  0  0.821059  0  0.445568  0  0  0.772116  0  0.565904  0  0  0.781957  0  0.549591  0  0  0.39632  0.765219  0  0.577268  0
Li  Li3  1  0.05178243  0.60907431  0.90717576  1  0  0.82105  0  0.445587  0  0  0.772123  0  0.565893  0  0  0.781964  0  0.549581  0  0  0.396322  0.765229  0  0.577266  0
H  H4  1  0.36556383  0.89871522  0.94824070  1  0  0.107645  0  0.941903  0  0  0.123634  0  1.001106  0  0  0.125331  0  1.00131  0  0  0.10565  0.122418  0  1.001086  0
H  H5  1  0.13443485  0.60128365  0.44824016  1  0  0.107649  0  0.94189  0  0  0.123624  0  1.001119  0  0  0.125322  0  1.00132  0  0  0.105652  0.122409  0  1.0011  0
H  H6  1  0.63443734  0.10128781  0.05175947  1  0  0.107658  0  0.941915  0  0  0.123641  0  1.001119  0  0  0.125337  0  1.001322  0  0  0.105653  0.122423  0  1.001097  0
H  H7  1  0.86556429  0.39871599  0.55175918  1  0  0.10769  0  0.941922  0  0  0.123668  0  1.001128  0  0  0.125366  0  1.001333  0  0  0.105663  0.122449  0  1.001109  0
H  H8  1  0.36689096  0.92712599  0.80226243  1  0  0.123425  0  0.930896  0  0  0.136976  0  0.9907  0  0  0.139931  0  0.989398  0  0  0.106949  0.134616  0  0.992195  0
H  H9  1  0.13310816  0.57287394  0.30226271  1  0  0.12341  0  0.930883  0  0  0.136984  0  0.990674  0  0  0.139922  0  0.989393  0  0  0.106948  0.134626  0  0.99217  0
H  H10  1  0.63310968  0.07287478  0.19773691  1  0  0.123429  0  0.930884  0  0  0.136986  0  0.990685  0  0  0.139933  0  0.989391  0  0  0.106958  0.134623  0  0.992181  0
H  H11  1  0.86689000  0.42712683  0.69773662  1  0  0.123457  0  0.930878  0  0  0.137002  0  0.990682  0  0  0.139961  0  0.989376  0  0  0.106962  0.13464  0  0.992178  0
H  H12  1  0.38684601  0.16645912  0.98401589  1  0  0.066522  0  0.940939  0  0  0.085495  0  1.000323  0  0  0.086528  0  1.000193  0  0  0.089937  0.084571  0  1.000589  0
H  H13  1  0.11315395  0.33353981  0.48401546  1  0  0.06651  0  0.940965  0  0  0.085482  0  1.000342  0  0  0.086515  0  1.000213  0  0  0.089927  0.084561  0  1.000609  0
H  H14  1  0.61315463  0.83354165  0.01598344  1  0  0.066531  0  0.940925  0  0  0.085474  0  1.000312  0  0  0.086507  0  1.00018  0  0  0.089926  0.084549  0  1.000579  0
H  H15  1  0.88684519  0.66645983  0.51598305  1  0  0.066519  0  0.940937  0  0  0.085486  0  1.00032  0  0  0.086518  0  1.000189  0  0  0.089929  0.084563  0  1.000589  0
H  H16  1  0.49331634  0.18544171  0.85393803  1  0  0.097839  0  0.944887  0  0  0.110639  0  1.009203  0  0  0.112749  0  1.008654  0  0  0.097433  0.109124  0  1.009562  0
H  H17  1  0.00668378  0.31455716  0.35393765  1  0  0.097845  0  0.944883  0  0  0.110642  0  1.009197  0  0  0.112752  0  1.008648  0  0  0.097432  0.109131  0  1.009558  0
H  H18  1  0.50668332  0.81456019  0.14606048  1  0  0.097878  0  0.944882  0  0  0.110666  0  1.009183  0  0  0.112778  0  1.008629  0  0  0.097427  0.109147  0  1.009547  0
H  H19  1  0.99331660  0.68544248  0.64606169  1  0  0.097854  0  0.944884  0  0  0.110652  0  1.009186  0  0  0.112762  0  1.008637  0  0  0.097438  0.109138  0  1.009553  0
H  H20  1  0.19255999  0.29056097  0.89423180  1  0  0.072187  0  0.941585  0  0  0.082563  0  1.013656  0  0  0.083808  0  1.012891  0  0  0.112336  0.081673  0  1.014158  0
H  H21  1  0.30744159  0.20943905  0.39423203  1  0  0.07216  0  0.941605  0  0  0.082556  0  1.013665  0  0  0.083801  0  1.012901  0  0  0.112315  0.081668  0  1.014164  0
H  H22  1  0.80744065  0.70943980  0.10576837  1  0  0.072179  0  0.941604  0  0  0.082556  0  1.013671  0  0  0.083802  0  1.012907  0  0  0.112334  0.081668  0  1.014177  0
H  H23  1  0.69255755  0.79056060  0.60576814  1  0  0.072155  0  0.941609  0  0  0.082552  0  1.013668  0  0  0.083797  0  1.012904  0  0  0.112313  0.081662  0  1.014172  0
H  H24  1  0.24413865  0.23056397  0.75978009  1  0  0.066541  0  0.928561  0  0  0.081185  0  0.992844  0  0  0.08191  0  0.992377  0  0  0.10317  0.080346  0  0.993559  0
H  H25  1  0.25586132  0.26943372  0.25978038  1  0  0.06653  0  0.928539  0  0  0.081179  0  0.992831  0  0  0.081905  0  0.992364  0  0  0.103173  0.080343  0  0.993544  0
H  H26  1  0.75585925  0.76943567  0.24021925  1  0  0.066532  0  0.928583  0  0  0.081165  0  0.992873  0  0  0.081891  0  0.992408  0  0  0.10317  0.080326  0  0.993593  0
H  H27  1  0.74413879  0.73056479  0.74021979  1  0  0.066546  0  0.928518  0  0  0.081199  0  0.992805  0  0  0.081925  0  0.992337  0  0  0.103186  0.080361  0  0.993523  0
H  H28  1  0.82866233  0.97631453  0.88903511  1  0  0.11699  0  0.919519  0  0  0.130258  0  0.979016  0  0  0.132847  0  0.976965  0  0  0.126671  0.128342  0  0.980642  0
H  H29  1  0.67133801  0.52368601  0.38903535  1  0  0.117032  0  0.919473  0  0  0.130309  0  0.978966  0  0  0.132898  0  0.976914  0  0  0.126685  0.128393  0  0.980596  0
H  H30  1  0.17133805  0.02368512  0.11096506  1  0  0.116994  0  0.919518  0  0  0.130263  0  0.97902  0  0  0.132851  0  0.976968  0  0  0.126676  0.12835  0  0.980644  0
H  H31  1  0.32866112  0.47631363  0.61096482  1  0  0.117016  0  0.919451  0  0  0.130293  0  0.978943  0  0  0.132882  0  0.976891  0  0  0.126669  0.128377  0  0.980572  0
H  H32  1  0.88294840  0.17751401  0.88295572  1  0  0.116587  0  0.9441  0  0  0.124706  0  1.012348  0  0  0.126959  0  1.011321  0  0  0.119843  0.123158  0  1.013031  0
H  H33  1  0.61705204  0.32248657  0.38295528  1  0  0.116547  0  0.944222  0  0  0.124704  0  1.012426  0  0  0.126956  0  1.0114  0  0  0.119834  0.123155  0  1.01311  0
H  H34  1  0.11705224  0.82248676  0.11704362  1  0  0.11653  0  0.944226  0  0  0.124697  0  1.012416  0  0  0.126949  0  1.01139  0  0  0.119822  0.12315  0  1.0131  0
H  H35  1  0.38294586  0.67751307  0.61704406  1  0  0.116548  0  0.94416  0  0  0.124687  0  1.012391  0  0  0.126938  0  1.011365  0  0  0.11984  0.123137  0  1.013076  0
H  H36  1  0.06050472  0.04022297  0.65046225  1  0  0.337224  0  0.906713  0  0  0.315571  0  0.976364  0  0  0.323021  0  0.97098  0  0  0.293153  0.310296  0  0.980153  0
H  H37  1  0.43949441  0.45977579  0.15046250  1  0  0.337211  0  0.906689  0  0  0.315563  0  0.976335  0  0  0.323013  0  0.97095  0  0  0.293141  0.310287  0  0.980125  0
H  H38  1  0.93949292  0.95977554  0.34953875  1  0  0.337275  0  0.906751  0  0  0.315626  0  0.976383  0  0  0.323077  0  0.970999  0  0  0.293202  0.310348  0  0.98018  0
H  H39  1  0.56050722  0.54022385  0.84953850  1  0  0.337257  0  0.906748  0  0  0.315602  0  0.976395  0  0  0.323054  0  0.97101  0  0  0.293176  0.310324  0  0.98019  0
H  H40  1  0.88805630  0.05523093  0.56381208  1  0  0.330614  0  0.924881  0  0  0.313813  0  0.986759  0  0  0.321482  0  0.980755  0  0  0.286427  0.308467  0  0.990763  0
H  H41  1  0.61194328  0.44476949  0.06381252  1  0  0.330625  0  0.924843  0  0  0.31383  0  0.986715  0  0  0.321498  0  0.980711  0  0  0.286459  0.308483  0  0.990714  0
H  H42  1  0.11194435  0.94476984  0.43618809  1  0  0.330608  0  0.924865  0  0  0.31381  0  0.986742  0  0  0.321479  0  0.980739  0  0  0.286444  0.308463  0  0.990745  0
H  H43  1  0.38805586  0.55523015  0.93618764  1  0  0.330616  0  0.924863  0  0  0.313819  0  0.986737  0  0  0.321487  0  0.980734  0  0  0.28645  0.308471  0  0.99074  0
C  C44  1  0.13024207  0.93343039  0.87760254  1  0  0.562201  0  3.771966  0  0  0.516609  0  4.066975  0  0  0.545371  0  4.065993  0  0  0.251395  0.497449  0  4.067251  0
C  C45  1  0.36975696  0.56656958  0.37760185  1  0  0.562169  0  3.772037  0  0  0.516582  0  4.067036  0  0  0.545343  0  4.066052  0  0  0.251389  0.497417  0  4.067315  0
C  C46  1  0.86975831  0.06656926  0.12239763  1  0  0.562169  0  3.771986  0  0  0.516579  0  4.06699  0  0  0.545338  0  4.066006  0  0  0.251376  0.497412  0  4.067268  0
C  C47  1  0.63024094  0.43343006  0.62239749  1  0  0.562136  0  3.77212  0  0  0.516552  0  4.067102  0  0  0.545314  0  4.066124  0  0  0.251379  0.497382  0  4.067379  0
C  C48  1  0.32202142  0.96431756  0.88186674  1  0  -0.262669  0  3.659986  0  0  -0.30265  0  3.911673  0  0  -0.307722  0  3.919599  0  0  -0.15344  -0.299238  0  3.906614  0
C  C49  1  0.17797735  0.53568128  0.38186698  1  0  -0.262563  0  3.659868  0  0  -0.302572  0  3.911562  0  0  -0.307633  0  3.919507  0  0  -0.153401  -0.29916  0  3.906507  0
C  C50  1  0.67797923  0.03568321  0.11813260  1  0  -0.262579  0  3.659928  0  0  -0.302573  0  3.911563  0  0  -0.307634  0  3.919489  0  0  -0.153403  -0.299157  0  3.906499  0
C  C51  1  0.82202055  0.46431836  0.61813236  1  0  -0.262704  0  3.660047  0  0  -0.302675  0  3.911707  0  0  -0.307754  0  3.919637  0  0  -0.153432  -0.299251  0  3.906641  0
C  C52  1  0.37349576  0.13663514  0.89551863  1  0  -0.114148  0  3.643151  0  0  -0.157544  0  3.906737  0  0  -0.158368  0  3.918056  0  0  -0.157858  -0.156677  0  3.898692  0
C  C53  1  0.12650457  0.36336487  0.39551820  1  0  -0.114185  0  3.643172  0  0  -0.157553  0  3.906739  0  0  -0.158373  0  3.918057  0  0  -0.157843  -0.15669  0  3.898704  0
C  C54  1  0.62650488  0.86336563  0.10448154  1  0  -0.114315  0  3.643226  0  0  -0.157618  0  3.906689  0  0  -0.158442  0  3.918008  0  0  -0.157872  -0.156746  0  3.898647  0
C  C55  1  0.87349483  0.63663590  0.60448114  1  0  -0.114199  0  3.643204  0  0  -0.157559  0  3.90675  0  0  -0.158379  0  3.918072  0  0  -0.157861  -0.156695  0  3.898716  0
C  C56  1  0.22270890  0.19565722  0.84717642  1  0  0.004004  0  3.605809  0  0  -0.056707  0  3.869082  0  0  -0.052406  0  3.88086  0  0  -0.054413  -0.059309  0  3.860803  0
C  C57  1  0.27729149  0.30434277  0.34717671  1  0  0.004064  0  3.605721  0  0  -0.056709  0  3.869073  0  0  -0.052412  0  3.880856  0  0  -0.054409  -0.059308  0  3.860775  0
C  C58  1  0.77729174  0.80434355  0.15282375  1  0  0.004075  0  3.605835  0  0  -0.056665  0  3.869117  0  0  -0.052367  0  3.880899  0  0  -0.05441  -0.059259  0  3.860823  0
C  C59  1  0.72270765  0.69565687  0.65282263  1  0  0.004063  0  3.605715  0  0  -0.056705  0  3.869043  0  0  -0.052408  0  3.880825  0  0  -0.054409  -0.059298  0  3.860746  0
C  C60  1  0.90588188  0.07298991  0.84485311  1  0  -0.154307  0  3.671373  0  0  -0.208759  0  3.909785  0  0  -0.208796  0  3.917814  0  0  -0.046863  -0.208476  0  3.904206  0
C  C61  1  0.59411860  0.42701065  0.34485272  1  0  -0.154312  0  3.671454  0  0  -0.20881  0  3.909823  0  0  -0.208845  0  3.917852  0  0  -0.04687  -0.208533  0  3.904265  0
C  C62  1  0.09411850  0.92700974  0.15514706  1  0  -0.154263  0  3.671499  0  0  -0.208758  0  3.909865  0  0  -0.208794  0  3.917895  0  0  -0.046848  -0.208479  0  3.904294  0
C  C63  1  0.40588080  0.57299012  0.65514661  1  0  -0.154297  0  3.671417  0  0  -0.208781  0  3.909814  0  0  -0.208818  0  3.917842  0  0  -0.046873  -0.208501  0  3.904239  0
C  C64  1  0.83696806  0.06769663  0.72734386  1  0  0.663595  0  3.807416  0  0  0.622456  0  4.095362  0  0  0.650952  0  4.093751  0  0  0.254803  0.603091  0  4.096104  0
C  C65  1  0.66303132  0.43230387  0.22734427  1  0  0.663565  0  3.807441  0  0  0.622468  0  4.095327  0  0  0.65096  0  4.093724  0  0  0.254835  0.603097  0  4.096073  0
C  C66  1  0.16303179  0.93230075  0.27265631  1  0  0.663515  0  3.807581  0  0  0.622404  0  4.095481  0  0  0.650898  0  4.093875  0  0  0.254778  0.60304  0  4.096219  0
C  C67  1  0.33696959  0.56769804  0.77265590  1  0  0.663447  0  3.807482  0  0  0.622337  0  4.095388  0  0  0.650832  0  4.093782  0  0  0.254773  0.602982  0  4.096114  0
N  N68  1  0.08152754  0.06477758  0.85615079  1  0  -0.193277  0  3.431087  0  0  -0.105225  0  3.66092  0  0  -0.125954  0  3.683529  0  0  -0.278306  -0.091592  0  3.645424  0
N  N69  1  0.41847159  0.43522242  0.35615104  1  0  -0.193277  0  3.431063  0  0  -0.105222  0  3.660914  0  0  -0.125948  0  3.683525  0  0  -0.278294  -0.09158  0  3.645415  0
N  N70  1  0.91847310  0.93522320  0.14384938  1  0  -0.193269  0  3.431099  0  0  -0.105229  0  3.660954  0  0  -0.125955  0  3.683564  0  0  -0.278301  -0.091594  0  3.645461  0
N  N71  1  0.58152630  0.56477722  0.64384913  1  0  -0.193285  0  3.431073  0  0  -0.105236  0  3.660932  0  0  -0.125963  0  3.683541  0  0  -0.278313  -0.091596  0  3.64543  0
N  N72  1  0.94077823  0.05976742  0.64186375  1  0  -0.683708  0  3.108042  0  0  -0.642317  0  3.332083  0  0  -0.665142  0  3.328497  0  0  -0.561551  -0.626278  0  3.333939  0
N  N73  1  0.55922151  0.44023416  0.14186339  1  0  -0.683662  0  3.107932  0  0  -0.642296  0  3.33196  0  0  -0.66512  0  3.328374  0  0  -0.561563  -0.626251  0  3.333808  0
N  N74  1  0.05921842  0.94023221  0.35813725  1  0  -0.683724  0  3.108036  0  0  -0.642344  0  3.332053  0  0  -0.66517  0  3.32847  0  0  -0.561621  -0.626299  0  3.333908  0
N  N75  1  0.44077913  0.55976661  0.85813761  1  0  -0.683657  0  3.108063  0  0  -0.642276  0  3.33208  0  0  -0.665103  0  3.328497  0  0  -0.561567  -0.626231  0  3.333927  0
Cl  Cl76  1  0.29267475  0.93730538  0.57485913  1  0  -0.75268  0  0.671319  0  0  -0.700615  0  0.878735  0  0  -0.71051  0  0.858719  0  0  -0.324029  -0.692969  0  0.892547  0
Cl  Cl77  1  0.20732314  0.56269331  0.07485853  1  0  -0.752689  0  0.671335  0  0  -0.700628  0  0.878742  0  0  -0.710522  0  0.858723  0  0  -0.324028  -0.692982  0  0.892554  0
Cl  Cl78  1  0.70732563  0.06269427  0.42514187  1  0  -0.75269  0  0.671328  0  0  -0.700629  0  0.878754  0  0  -0.710526  0  0.858739  0  0  -0.324027  -0.692983  0  0.892565  0
Cl  Cl79  1  0.79267476  0.43730633  0.92514247  1  0  -0.752688  0  0.671334  0  0  -0.700627  0  0.878729  0  0  -0.710523  0  0.858716  0  0  -0.324031  -0.692981  0  0.892543  0
O  O80  1  0.68388744  0.07260246  0.71566787  1  0  -0.670862  0  1.949295  0  0  -0.626257  0  2.182598  0  0  -0.648242  0  2.175053  0  0  -0.382665  -0.611328  0  2.187996  0
O  O81  1  0.81611249  0.42740029  0.21566819  1  0  -0.670866  0  1.949363  0  0  -0.626281  0  2.182642  0  0  -0.648264  0  2.175099  0  0  -0.382694  -0.611351  0  2.188041  0
O  O82  1  0.31611001  0.92740057  0.28433230  1  0  -0.670811  0  1.949462  0  0  -0.626214  0  2.182742  0  0  -0.648197  0  2.175197  0  0  -0.382625  -0.611286  0  2.188139  0
O  O83  1  0.18388789  0.57259935  0.78433281  1  0  -0.670796  0  1.949285  0  0  -0.626214  0  2.182573  0  0  -0.648196  0  2.17503  0  0  -0.382649  -0.611292  0  2.187973  0
O  O84  1  0.02761352  0.81044978  0.89054391  1  0  -0.654777  0  1.972141  0  0  -0.615949  0  2.215584  0  0  -0.635709  0  2.206454  0  0  -0.384974  -0.602916  0  2.221867  0
O  O85  1  0.47238425  0.68955019  0.39054320  1  0  -0.654814  0  1.972247  0  0  -0.615974  0  2.215676  0  0  -0.635731  0  2.206545  0  0  -0.385002  -0.602938  0  2.221958  0
O  O86  1  0.97238686  0.18954986  0.10945626  1  0  -0.654778  0  1.97217  0  0  -0.61595  0  2.215598  0  0  -0.635709  0  2.206467  0  0  -0.384977  -0.602912  0  2.221876  0
O  O87  1  0.52761390  0.31045058  0.60945447  1  0  -0.65474  0  1.972281  0  0  -0.615904  0  2.215714  0  0  -0.635662  0  2.206585  0  0  -0.384974  -0.602868  0  2.221994  0
