# generated using pymatgen
data_DyH9C12(NO)6
_symmetry_space_group_name_H-M   'P 1'
_cell_length_a   10.59235729
_cell_length_b   11.53687972
_cell_length_c   16.35246432
_cell_angle_alpha   98.90432755
_cell_angle_beta   103.22770819
_cell_angle_gamma   109.32586588
_symmetry_Int_Tables_number   1
_chemical_formula_structural   DyH9C12(NO)6
_chemical_formula_sum   'Dy4 H36 C48 N24 O24'
_cell_volume   1776.94926990
_cell_formula_units_Z   4
loop_
 _symmetry_equiv_pos_site_id
 _symmetry_equiv_pos_as_xyz
  1  'x, y, z'
loop_
 _atom_site_type_symbol
 _atom_site_label
 _atom_site_symmetry_multiplicity
 _atom_site_fract_x
 _atom_site_fract_y
 _atom_site_fract_z
 _atom_site_occupancy
 _atom_site_pbe_bader_charge
 _atom_site_pbe_bader_spin_density
 _atom_site_pbe_cm5_charge
 _atom_site_pbe_ddec_charge
 _atom_site_pbe_ddec_spin_density
 _atom_site_pbe_ddec_sum_bond_order
 _atom_site_pbe_magmom
Dy  Dy0  1  0.77508318  0.55288973  0.25752250  1  2.20014  0  1.568075  2.176404  0  2.231517  0
Dy  Dy1  1  0.22491765  0.44711346  0.74247940  1  2.2001  0  1.568083  2.176433  0  2.231404  0
Dy  Dy2  1  0.49057829  0.20737292  0.24337647  1  2.20175  0  1.568865  2.18328  0  2.216075  0
Dy  Dy3  1  0.50941915  0.79262654  0.75662081  1  2.201879  0  1.568855  2.183166  0  2.216197  0
H  H4  1  0.49233125  0.25325332  0.02854327  1  0.520014  0  0.312704  0.23537  0  1.028636  0
H  H5  1  0.50766746  0.74674703  0.97145736  1  0.520006  0  0.312694  0.235413  0  1.028621  0
H  H6  1  0.74722431  0.48571601  0.47090409  1  0.526179  0  0.317931  0.243873  0  0.997735  0
H  H7  1  0.25277570  0.51428526  0.52909869  1  0.526555  0  0.317949  0.243866  0  0.997846  0
H  H8  1  0.68042858  0.63219416  0.59957318  1  0.530658  0  0.310331  0.238801  0  1.023344  0
H  H9  1  0.31957042  0.36780438  0.40042423  1  0.530617  0  0.310312  0.23878  0  1.023341  0
H  H10  1  0.65745081  0.78299483  0.15090483  1  0.533187  0  0.309734  0.233053  0  1.035315  0
H  H11  1  0.34254269  0.21700725  0.84909947  1  0.533484  0  0.309721  0.233017  0  1.035375  0
H  H12  1  0.11025379  0.47949164  0.34856369  1  0.524252  0  0.309308  0.234464  0  1.032714  0
H  H13  1  0.88974575  0.52050592  0.65143553  1  0.524256  0  0.309269  0.23441  0  1.032739  0
H  H14  1  0.45980520  0.89966393  0.11360741  1  0.531489  0  0.31072  0.237057  0  1.022175  0
H  H15  1  0.54019528  0.10033361  0.88639317  1  0.531506  0  0.310727  0.237021  0  1.022203  0
H  H16  1  0.40812824  0.53736713  0.17567921  1  0.130025  0  0.12453  0.145198  0  0.971102  0
H  H17  1  0.59187128  0.46263041  0.82432061  1  0.130032  0  0.124528  0.145202  0  0.971065  0
H  H18  1  0.26714347  0.55547020  0.03308879  1  0.106705  0  0.118546  0.137214  0  0.95899  0
H  H19  1  0.73285054  0.44452346  0.96691156  1  0.106848  0  0.118532  0.1372  0  0.95893  0
H  H20  1  0.86202803  0.22760769  0.32465200  1  0.117113  0  0.125052  0.14523  0  0.968455  0
H  H21  1  0.13797674  0.77238613  0.67534883  1  0.117168  0  0.125062  0.145187  0  0.968515  0
H  H22  1  0.02147597  0.22514649  0.46616441  1  0.07744  0  0.116553  0.13233  0  0.97543  0
H  H23  1  0.97853691  0.77486250  0.53384066  1  0.077736  0  0.116562  0.132351  0  0.975463  0
H  H24  1  0.45641448  0.70848006  0.33278230  1  0.107215  0  0.11587  0.133507  0  0.966794  0
H  H25  1  0.54357829  0.29150800  0.66721354  1  0.107195  0  0.115861  0.133525  0  0.966704  0
H  H26  1  0.40141290  0.78062488  0.46940035  1  0.105438  0  0.120584  0.14439  0  0.961542  0
H  H27  1  0.59858615  0.21936897  0.53059530  1  0.105135  0  0.120566  0.144337  0  0.961519  0
H  H28  1  0.86926817  0.90766700  0.41862334  1  0.084424  0  0.118893  0.13757  0  0.968795  0
H  H29  1  0.13074445  0.09235802  0.58138415  1  0.083617  0  0.118869  0.13752  0  0.96895  0
H  H30  1  0.71971780  0.03753905  0.43080739  1  0.101547  0  0.113841  0.131491  0  0.973387  0
H  H31  1  0.28027486  0.96246785  0.56919244  1  0.101655  0  0.113908  0.131507  0  0.973373  0
H  H32  1  0.93510633  0.33809326  0.07738771  1  0.103119  0  0.119475  0.14012  0  0.968371  0
H  H33  1  0.06489319  0.66190902  0.92261205  1  0.103139  0  0.119478  0.140103  0  0.968371  0
H  H34  1  0.11455072  0.23699633  0.08167811  1  0.067352  0  0.115263  0.131101  0  0.974325  0
H  H35  1  0.88545142  0.76300982  0.91831945  1  0.067451  0  0.1153  0.131165  0  0.974326  0
H  H36  1  0.16275698  0.03186778  0.98516202  1  0.085808  0  0.118044  0.138891  0  0.967546  0
H  H37  1  0.83723369  0.96811746  0.01483194  1  0.086089  0  0.11807  0.139004  0  0.967454  0
H  H38  1  0.18424604  0.92913673  0.84390078  1  0.115509  0  0.11523  0.132426  0  0.971769  0
H  H39  1  0.81575005  0.07085231  0.15609569  1  0.115736  0  0.115239  0.132448  0  0.971615  0
C  C40  1  0.46423253  0.39229038  0.11106696  1  1.238913  0  0.227865  0.466392  0  4.150723  0
C  C41  1  0.53576877  0.60770910  0.88893214  1  1.238931  0  0.227926  0.466561  0  4.150626  0
C  C42  1  0.39474162  0.47945795  0.11260987  1  0.018167  0  -0.068914  -0.182417  0  3.946427  0
C  C43  1  0.60526073  0.52054429  0.88739338  1  0.018479  0  -0.068947  -0.182528  0  3.946746  0
C  C44  1  0.31974129  0.48867111  0.03604387  1  -0.093967  0  -0.066787  -0.149901  0  3.888467  0
C  C45  1  0.68026118  0.51133121  0.96395574  1  -0.094472  0  -0.066759  -0.149841  0  3.888593  0
C  C46  1  0.31441225  0.41443912  0.95453808  1  1.294228  0  0.210002  0.469886  0  4.200719  0
C  C47  1  0.68558751  0.58556130  0.04546028  1  1.294242  0  0.21007  0.470005  0  4.200485  0
C  C48  1  0.79157876  0.36015810  0.38991888  1  1.2279  0  0.230985  0.465292  0  4.151857  0
C  C49  1  0.20842935  0.63984144  0.61008191  1  1.228244  0  0.230994  0.465268  0  4.15186  0
C  C50  1  0.87099012  0.28163868  0.38796204  1  0.021161  0  -0.066781  -0.177011  0  3.947767  0
C  C51  1  0.12902102  0.71836368  0.61204200  1  0.021808  0  -0.066746  -0.176862  0  3.94766  0
C  C52  1  0.95513708  0.28017307  0.46397475  1  -0.033953  0  -0.066575  -0.155238  0  3.898834  0
C  C53  1  0.04486610  0.71982638  0.53602709  1  -0.034882  0  -0.06656  -0.155306  0  3.898735  0
C  C54  1  0.96402844  0.35724343  0.54539299  1  1.287968  0  0.211629  0.472624  0  4.194609  0
C  C55  1  0.03597463  0.64275593  0.45461249  1  1.288027  0  0.211636  0.472635  0  4.194751  0
C  C56  1  0.60171628  0.63035729  0.39636946  1  1.295583  0  0.210866  0.468349  0  4.195862  0
C  C57  1  0.39828285  0.36963930  0.60363019  1  1.296317  0  0.210807  0.468294  0  4.195964  0
C  C58  1  0.50328170  0.69269068  0.39463322  1  -0.130405  0  -0.071137  -0.155068  0  3.932645  0
C  C59  1  0.49671496  0.30730215  0.60536378  1  -0.130221  0  -0.071101  -0.15508  0  3.932451  0
C  C60  1  0.47330129  0.73179333  0.46783798  1  0.030603  0  -0.078416  -0.186658  0  3.935713  0
C  C61  1  0.52669755  0.26820239  0.53215846  1  0.030725  0  -0.078413  -0.186527  0  3.935442  0
C  C62  1  0.53863472  0.70868891  0.54764614  1  1.285544  0  0.228562  0.494747  0  4.149292  0
C  C63  1  0.46135959  0.29130766  0.45235092  1  1.284803  0  0.228506  0.494652  0  4.149256  0
C  C64  1  0.77599235  0.83595459  0.27937025  1  1.297  0  0.219618  0.471597  0  4.182349  0
C  C65  1  0.22400608  0.16405231  0.72063354  1  1.296767  0  0.219762  0.471896  0  4.181829  0
C  C66  1  0.79318721  0.91165448  0.36271573  1  -0.058608  0  -0.076872  -0.182551  0  3.944587  0
C  C67  1  0.20681221  0.08835718  0.63728754  1  -0.057759  0  -0.076863  -0.182613  0  3.944763  0
C  C68  1  0.71231784  0.98078890  0.36875889  1  -0.029797  0  -0.071678  -0.162041  0  3.940452  0
C  C69  1  0.28767948  0.01921993  0.63124251  1  -0.030045  0  -0.071827  -0.162111  0  3.94079  0
C  C70  1  0.61326177  0.98336496  0.29218778  1  1.288067  0  0.204982  0.460454  0  4.207534  0
C  C71  1  0.38672675  0.01663428  0.70781297  1  1.2887  0  0.204817  0.460305  0  4.207611  0
C  C72  1  0.00947666  0.41798129  0.21634769  1  1.275941  0  0.230203  0.497711  0  4.139607  0
C  C73  1  0.99052742  0.58202016  0.78365023  1  1.275924  0  0.230256  0.497779  0  4.139719  0
C  C74  1  0.01262598  0.34693776  0.13714135  1  -0.029862  0  -0.077329  -0.185235  0  3.948494  0
C  C75  1  0.98736966  0.65305975  0.86285725  1  -0.0299  0  -0.077286  -0.185127  0  3.948612  0
C  C76  1  0.10914305  0.29305695  0.13996065  1  -0.013213  0  -0.071881  -0.164837  0  3.939578  0
C  C77  1  0.89086579  0.70694920  0.86004162  1  -0.013461  0  -0.072025  -0.16511  0  3.939789  0
C  C78  1  0.20988791  0.30820162  0.22142526  1  1.29186  0  0.210289  0.477846  0  4.194936  0
C  C79  1  0.79011842  0.69180546  0.77857612  1  1.29224  0  0.210415  0.478125  0  4.194573  0
C  C80  1  0.31694206  0.97559848  0.06304850  1  1.289149  0  0.221642  0.477234  0  4.173053  0
C  C81  1  0.68305753  0.02439911  0.93694889  1  1.289606  0  0.221752  0.477444  0  4.17291  0
C  C82  1  0.23166749  0.98002794  0.98226348  1  0.001468  0  -0.079685  -0.191347  0  3.945108  0
C  C83  1  0.76833293  0.01996686  0.01773250  1  0.001298  0  -0.079708  -0.191511  0  3.944939  0
C  C84  1  0.24402610  0.92510002  0.90644433  1  -0.100233  0  -0.071451  -0.154928  0  3.932102  0
C  C85  1  0.75597474  0.07489576  0.09355060  1  -0.100638  0  -0.071466  -0.154955  0  3.931942  0
C  C86  1  0.34319548  0.86365405  0.90659602  1  1.303014  0  0.210008  0.467072  0  4.20514  0
C  C87  1  0.65680864  0.13634269  0.09340076  1  1.30298  0  0.209928  0.466986  0  4.205353  0
N  N88  1  0.44056148  0.31719865  0.03288920  1  -0.810631  0  -0.250245  -0.136489  0  3.680574  0
N  N89  1  0.55944385  0.68280366  0.96711270  1  -0.810578  0  -0.250285  -0.136679  0  3.680527  0
N  N90  1  0.36864616  0.32362434  0.95506541  1  -0.704509  0  -0.21843  -0.277353  0  3.194485  0
N  N91  1  0.63135804  0.67637988  0.04493530  1  -0.704546  0  -0.218478  -0.277385  0  3.194566  0
N  N92  1  0.80050720  0.42354519  0.46863949  1  -0.821994  0  -0.248646  -0.127401  0  3.690901  0
N  N93  1  0.19949220  0.57645226  0.53136397  1  -0.823124  0  -0.248605  -0.127263  0  3.69088  0
N  N94  1  0.88190914  0.42532363  0.54606487  1  -0.694214  0  -0.216771  -0.276603  0  3.192302  0
N  N95  1  0.11808830  0.57467852  0.45393883  1  -0.693801  0  -0.216836  -0.276722  0  3.192484  0
N  N96  1  0.66179962  0.60756054  0.47084087  1  -0.704918  0  -0.220504  -0.284757  0  3.187604  0
N  N97  1  0.33819949  0.39243603  0.52915939  1  -0.704982  0  -0.220494  -0.284782  0  3.187633  0
N  N98  1  0.62759645  0.64770649  0.54246418  1  -0.838659  0  -0.265033  -0.158921  0  3.653611  0
N  N99  1  0.37240038  0.35228916  0.45753378  1  -0.838765  0  -0.264985  -0.158846  0  3.653637  0
N  N100  1  0.67544370  0.83956515  0.21227558  1  -0.848408  0  -0.264699  -0.159076  0  3.671101  0
N  N101  1  0.32455490  0.16043985  0.78772863  1  -0.848267  0  -0.264684  -0.15917  0  3.671162  0
N  N102  1  0.59408626  0.90892599  0.21475211  1  -0.718054  0  -0.219169  -0.272715  0  3.199828  0
N  N103  1  0.40590794  0.09107524  0.78524853  1  -0.718036  0  -0.219055  -0.27248  0  3.199713  0
N  N104  1  0.10764001  0.42690903  0.28943265  1  -0.822188  0  -0.264061  -0.158279  0  3.671973  0
N  N105  1  0.89235725  0.57309029  0.71057069  1  -0.822239  0  -0.263992  -0.158226  0  3.672105  0
N  N106  1  0.20690071  0.37579898  0.29544510  1  -0.708925  0  -0.222642  -0.278475  0  3.180709  0
N  N107  1  0.79310070  0.62420327  0.70455678  1  -0.709182  0  -0.222696  -0.278603  0  3.180737  0
N  N108  1  0.39258738  0.90185449  0.05618942  1  -0.835805  0  -0.265446  -0.156532  0  3.654889  0
N  N109  1  0.60741655  0.09814414  0.94380694  1  -0.836264  0  -0.265642  -0.156804  0  3.655268  0
N  N110  1  0.41046654  0.84738174  0.98186536  1  -0.725544  0  -0.22618  -0.287524  0  3.21105  0
N  N111  1  0.58953474  0.15261773  0.01813435  1  -0.725602  0  -0.226097  -0.287393  0  3.210979  0
O  O112  1  0.54808247  0.38360274  0.17918683  1  -1.216426  0  -0.453171  -0.764938  0  2.486104  0
O  O113  1  0.45192441  0.61639864  0.82081581  1  -1.216427  0  -0.453178  -0.764953  0  2.486187  0
O  O114  1  0.26308491  0.43718407  0.88283523  1  -1.211128  0  -0.43764  -0.697275  0  2.364381  0
O  O115  1  0.73691772  0.56281635  0.11716541  1  -1.211089  0  -0.437678  -0.697376  0  2.364243  0
O  O116  1  0.71426611  0.37337851  0.32104207  1  -1.212231  0  -0.451109  -0.761581  0  2.487827  0
O  O117  1  0.28573393  0.62661805  0.67895956  1  -1.212356  0  -0.451187  -0.761635  0  2.487799  0
O  O118  1  0.05100973  0.36325720  0.61620450  1  -1.213093  0  -0.446871  -0.70856  0  2.362949  0
O  O119  1  0.94898562  0.63674213  0.38379732  1  -1.213072  0  -0.446887  -0.708573  0  2.362781  0
O  O120  1  0.63139220  0.59858388  0.32625384  1  -1.212594  0  -0.451389  -0.720803  0  2.379401  0
O  O121  1  0.36860852  0.40141182  0.67374474  1  -1.213191  0  -0.451336  -0.720762  0  2.379331  0
O  O122  1  0.51536073  0.74110463  0.61865541  1  -1.204178  0  -0.426298  -0.682335  0  2.390805  0
O  O123  1  0.48463067  0.25888719  0.38134065  1  -1.203404  0  -0.426272  -0.682341  0  2.390688  0
O  O124  1  0.84536056  0.76699363  0.26654771  1  -1.198653  0  -0.424657  -0.663557  0  2.273997  0
O  O125  1  0.15463656  0.23301235  0.73345394  1  -1.198879  0  -0.424747  -0.663701  0  2.27378  0
O  O126  1  0.54561285  0.05707417  0.29931691  1  -1.188489  0  -0.451811  -0.711836  0  2.308679  0
O  O127  1  0.45437798  0.94292603  0.70068492  1  -1.188993  0  -0.451709  -0.711754  0  2.308651  0
O  O128  1  0.92122761  0.46955182  0.21947852  1  -1.214305  0  -0.439219  -0.685231  0  2.357157  0
O  O129  1  0.07877002  0.53045047  0.78051911  1  -1.214187  0  -0.439259  -0.685293  0  2.357346  0
O  O130  1  0.30153427  0.25813538  0.22272299  1  -1.214039  0  -0.455808  -0.715723  0  2.378421  0
O  O131  1  0.69847768  0.74187566  0.77727422  1  -1.214  0  -0.455857  -0.715789  0  2.378283  0
O  O132  1  0.32417607  0.03734070  0.13688418  1  -1.197188  0  -0.425669  -0.678611  0  2.288562  0
O  O133  1  0.67582009  0.96265786  0.86311034  1  -1.197253  0  -0.425629  -0.678551  0  2.288297  0
O  O134  1  0.36845911  0.82743180  0.83602228  1  -1.209842  0  -0.433216  -0.709068  0  2.385657  0
O  O135  1  0.63154824  0.17256113  0.16397762  1  -1.209558  0  -0.433174  -0.709048  0  2.385525  0
