# generated using pymatgen
data_Ag4Mo4H6C10N12O13
_symmetry_space_group_name_H-M   'P 1'
_cell_length_a   9.72017026
_cell_length_b   10.14940713
_cell_length_c   13.14664671
_cell_angle_alpha   102.07223595
_cell_angle_beta   93.79382983
_cell_angle_gamma   111.18327104
_symmetry_Int_Tables_number   1
_chemical_formula_structural   Ag4Mo4H6C10N12O13
_chemical_formula_sum   'Ag8 Mo8 H12 C20 N24 O26'
_cell_volume   1168.21109203
_cell_formula_units_Z   2
loop_
 _symmetry_equiv_pos_site_id
 _symmetry_equiv_pos_as_xyz
  1  'x, y, z'
loop_
 _atom_site_type_symbol
 _atom_site_label
 _atom_site_symmetry_multiplicity
 _atom_site_fract_x
 _atom_site_fract_y
 _atom_site_fract_z
 _atom_site_occupancy
 _atom_site_pbe_bader_spin_density
 _atom_site_pbe_cm5_charge
 _atom_site_pbe_ddec_charge
 _atom_site_pbe_ddec_spin_density
 _atom_site_pbe_ddec_sum_bond_order
 _atom_site_pbe_magmom
Ag  Ag0  1  0.29099681  0.26623012  0.28444359  1  0  0.50045  0.540741  0  1.813437  0
Ag  Ag1  1  0.70900643  0.73376902  0.71555795  1  0  0.500439  0.540731  0  1.813455  0
Ag  Ag2  1  0.36934378  0.85190634  0.76215374  1  0  0.502215  0.539299  0  1.812363  0
Ag  Ag3  1  0.63065867  0.14809607  0.23784524  1  0  0.502216  0.539324  0  1.812369  0
Ag  Ag4  1  0.92748473  0.51430866  0.67306563  1  0  0.498246  0.393702  0  1.851519  0
Ag  Ag5  1  0.07251730  0.48569266  0.32693544  1  0  0.498236  0.39371  0  1.851525  0
Ag  Ag6  1  0.74104843  0.60102872  0.37044962  1  0  0.494311  0.399178  0  1.800795  0
Ag  Ag7  1  0.25894879  0.39896823  0.62955052  1  0  0.49435  0.399238  0  1.800782  0
Mo  Mo8  1  0.43538790  0.52745208  0.12005107  1  0  1.505664  2.169359  0  4.607991  0
Mo  Mo9  1  0.56461017  0.47254705  0.87994642  1  0  1.505694  2.169391  0  4.607986  0
Mo  Mo10  1  0.21690188  0.57714720  0.92271163  1  0  1.530543  2.223412  0  4.537179  0
Mo  Mo11  1  0.78309766  0.42285303  0.07728686  1  0  1.530555  2.223391  0  4.537092  0
Mo  Mo12  1  0.09177432  0.28663542  0.03516413  1  0  1.524957  2.17657  0  4.555827  0
Mo  Mo13  1  0.90822479  0.71336372  0.96483569  1  0  1.524973  2.176662  0  4.55576  0
Mo  Mo14  1  0.56542208  0.80683544  0.99377412  1  0  1.504723  2.146858  0  4.57965  0
Mo  Mo15  1  0.43457745  0.19316478  0.00622437  1  0  1.504769  2.146927  0  4.57958  0
H  H16  1  0.91072962  0.30087369  0.82160178  1  0  0.120372  0.113198  0  1.036532  0
H  H17  1  0.08927181  0.69912872  0.17840096  1  0  0.120349  0.113103  0  1.036525  0
H  H18  1  0.72163087  0.07116375  0.85084088  1  0  0.126442  0.125908  0  0.990176  0
H  H19  1  0.27837202  0.92883975  0.14916287  1  0  0.126423  0.1259  0  0.990117  0
H  H20  1  0.42134294  0.05691499  0.60474489  1  0  0.116234  0.089041  0  1.071492  0
H  H21  1  0.57866072  0.94308524  0.39525608  1  0  0.116221  0.089001  0  1.071556  0
H  H22  1  0.75868407  0.81156828  0.21999535  1  0  0.123466  0.122336  0  1.03547  0
H  H23  1  0.24131547  0.18843194  0.78000238  1  0  0.123446  0.122294  0  1.035523  0
H  H24  1  0.94603811  0.04262702  0.19137127  1  0  0.128377  0.125341  0  0.993858  0
H  H25  1  0.05396288  0.95737430  0.80862747  1  0  0.128386  0.125312  0  0.993961  0
H  H26  1  0.24483127  0.06360337  0.44147624  1  0  0.116762  0.092472  0  1.075048  0
H  H27  1  0.75516620  0.93639685  0.55852291  1  0  0.116767  0.092434  0  1.075033  0
C  C28  1  0.63592275  0.23876619  0.63546765  1  0  0.128596  0.130658  0  3.965406  0
C  C29  1  0.36408108  0.76123186  0.36453221  1  0  0.128626  0.130549  0  3.965275  0
C  C30  1  0.80113249  0.24709435  0.77295596  1  0  0.054814  0.077678  0  3.855513  0
C  C31  1  0.19887161  0.75290697  0.22704749  1  0  0.054946  0.077852  0  3.855526  0
C  C32  1  0.69657407  0.11975012  0.78935572  1  0  0.057457  0.069269  0  3.855475  0
C  C33  1  0.30343167  0.88025011  0.21064840  1  0  0.057496  0.069356  0  3.855525  0
C  C34  1  0.53147525  0.11165590  0.65304316  1  0  0.058492  0.03293  0  3.86664  0
C  C35  1  0.46852945  0.88834433  0.34696014  1  0  0.058474  0.032996  0  3.866638  0
C  C36  1  0.59958202  0.29750802  0.55006661  1  0  0.209738  0.20512  0  4.081024  0
C  C37  1  0.40042182  0.70249003  0.44993554  1  0  0.209786  0.205193  0  4.080864  0
C  C38  1  0.03219585  0.87813705  0.40877801  1  0  0.122002  0.116494  0  3.99164  0
C  C39  1  0.96780205  0.12186426  0.59122135  1  0  0.121972  0.116389  0  3.991607  0
C  C40  1  0.86761000  0.86671436  0.26950804  1  0  0.063719  0.078075  0  3.843542  0
C  C41  1  0.13238954  0.13328587  0.73049046  1  0  0.06375  0.078165  0  3.843501  0
C  C42  1  0.97130267  0.99507695  0.25345007  1  0  0.061587  0.069681  0  3.856609  0
C  C43  1  0.02869687  0.00492328  0.74654843  1  0  0.061593  0.069695  0  3.856778  0
C  C44  1  0.13543038  0.00658360  0.39206675  1  0  0.048134  0.00591  0  3.897551  0
C  C45  1  0.86456709  0.99341663  0.60793240  1  0  0.048128  0.006039  0  3.897411  0
C  C46  1  0.06862100  0.81947502  0.49441809  1  0  0.201415  0.180431  0  4.114452  0
C  C47  1  0.93137750  0.18052521  0.50558035  1  0  0.201415  0.18042  0  4.114434  0
N  N48  1  0.77225420  0.30661028  0.69621154  1  0  -0.322756  -0.199125  0  3.532759  0
N  N49  1  0.22774903  0.69338886  0.30378999  1  0  -0.322846  -0.19919  0  3.53279  0
N  N50  1  0.56188543  0.05236698  0.72912607  1  0  -0.306532  -0.17412  0  3.498689  0
N  N51  1  0.43811703  0.94763543  0.27087596  1  0  -0.306565  -0.174203  0  3.498737  0
N  N52  1  0.47167475  0.23292764  0.48045459  1  0  -0.205264  -0.252486  0  3.263816  0
N  N53  1  0.52832480  0.76707258  0.51954694  1  0  -0.205276  -0.25244  0  3.263877  0
N  N54  1  0.48611353  0.31825013  0.41418828  1  0  -0.118425  -0.068477  0  3.513094  0
N  N55  1  0.51388747  0.68175119  0.58581503  1  0  -0.118423  -0.068497  0  3.51318  0
N  N56  1  0.61788024  0.43105841  0.44326632  1  0  -0.129718  -0.005648  0  3.544989  0
N  N57  1  0.38212137  0.56894181  0.55673684  1  0  -0.129726  -0.005667  0  3.54515  0
N  N58  1  0.69074401  0.42033933  0.52851583  1  0  -0.222203  -0.256098  0  3.350429  0
N  N59  1  0.30925923  0.57965981  0.47148647  1  0  -0.222263  -0.256168  0  3.350521  0
N  N60  1  0.89705681  0.80754371  0.34629360  1  0  -0.317231  -0.188562  0  3.515454  0
N  N61  1  0.10294169  0.19245651  0.65370484  1  0  -0.317242  -0.188589  0  3.515388  0
N  N62  1  0.10521079  0.06434809  0.31457184  1  0  -0.309948  -0.175563  0  3.519504  0
N  N63  1  0.89478960  0.93565432  0.68542705  1  0  -0.309963  -0.175632  0  3.519589  0
N  N64  1  0.19539777  0.88476499  0.56513158  1  0  -0.204692  -0.237453  0  3.231407  0
N  N65  1  0.80460013  0.11523633  0.43486625  1  0  -0.20462  -0.237332  0  3.231444  0
N  N66  1  0.18138716  0.79764995  0.63020790  1  0  -0.114145  -0.047956  0  3.486567  0
N  N67  1  0.81861134  0.20235027  0.36979055  1  0  -0.11415  -0.047967  0  3.486772  0
N  N68  1  0.05101891  0.68362703  0.59960575  1  0  -0.124011  0.00373  0  3.534633  0
N  N69  1  0.94897899  0.31637429  0.40039360  1  0  -0.124084  0.003583  0  3.534849  0
N  N70  1  0.97856923  0.69467778  0.51433369  1  0  -0.224788  -0.2733  0  3.391979  0
N  N71  1  0.02142970  0.30532353  0.48566571  1  0  -0.224742  -0.273212  0  3.391941  0
O  O72  1  0.42912922  0.55787224  0.94139341  1  0  -0.627576  -1.05247  0  2.2832  0
O  O73  1  0.57086928  0.44212798  0.05860427  1  0  -0.627595  -1.052512  0  2.283233  0
O  O74  1  0.24870483  0.52945910  0.08727862  1  0  -0.586295  -0.912508  0  2.063674  0
O  O75  1  0.75129265  0.47054112  0.91272053  1  0  -0.586312  -0.912531  0  2.06377  0
O  O76  1  0.29549589  0.29661333  0.02870795  1  0  -0.617879  -0.976439  0  2.267387  0
O  O77  1  0.70450407  0.70338799  0.97128998  1  0  -0.617909  -0.976486  0  2.267474  0
O  O78  1  0.43756520  0.49358465  0.24383916  1  0  -0.527236  -0.710962  0  1.921927  0
O  O79  1  0.56243305  0.50641231  0.75615874  1  0  -0.527241  -0.710962  0  1.921869  0
O  O80  1  0.55085425  0.71343871  0.14081952  1  0  -0.545186  -0.760113  0  1.923593  0
O  O81  1  0.44914280  0.28656042  0.85917944  1  0  -0.545198  -0.760143  0  1.923621  0
O  O82  1  0.93735010  0.37073640  0.04207907  1  0  -0.580706  -0.825149  0  2.107736  0
O  O83  1  0.06264943  0.62926383  0.95792019  1  0  -0.580702  -0.825171  0  2.107764  0
O  O84  1  0.12771959  0.38097550  0.89953001  1  0  -0.560934  -0.812248  0  1.951831  0
O  O85  1  0.87228038  0.61902582  0.10046944  1  0  -0.560958  -0.812254  0  1.951777  0
O  O86  1  0.36484427  0.77292264  0.00276994  1  0  -0.572464  -0.830288  0  2.007264  0
O  O87  1  0.63515380  0.22707650  0.99722907  1  0  -0.572496  -0.830295  0  2.007278  0
O  O88  1  0.22880878  0.60019227  0.79592356  1  0  -0.518173  -0.730848  0  1.951154  0
O  O89  1  0.77118972  0.39980795  0.20407489  1  0  -0.51815  -0.7308  0  1.951154  0
O  O90  1  0.98521833  0.11673669  0.95922695  1  0  -0.482557  -0.601663  0  1.665099  0
O  O91  1  0.01478120  0.88326354  0.04077155  1  0  -0.482531  -0.601677  0  1.66509  0
O  O92  1  0.09285879  0.27312901  0.16611715  1  0  -0.529573  -0.734377  0  1.932897  0
O  O93  1  0.90713782  0.72686903  0.83388161  1  0  -0.529569  -0.734378  0  1.932873  0
O  O94  1  0.56870095  0.83827177  0.86746065  1  0  -0.534907  -0.739518  0  1.972057  0
O  O95  1  0.43129858  0.16172845  0.13253785  1  0  -0.534916  -0.739557  0  1.972003  0
O  O96  1  0.66844549  0.97309843  0.07987893  1  0  -0.515513  -0.661992  0  1.762727  0
O  O97  1  0.33155404  0.02690179  0.92011956  1  0  -0.515533  -0.662018  0  1.76273  0
