# generated using pymatgen
data_ZnH14C22N2(ClO2)2
_symmetry_space_group_name_H-M   'P 1'
_cell_length_a   9.85145054
_cell_length_b   11.32783308
_cell_length_c   12.75516641
_cell_angle_alpha   103.73364374
_cell_angle_beta   97.70670298
_cell_angle_gamma   95.77221563
_symmetry_Int_Tables_number   1
_chemical_formula_structural   ZnH14C22N2(ClO2)2
_chemical_formula_sum   'Zn2 H28 C44 N4 Cl4 O8'
_cell_volume   1357.21071520
_cell_formula_units_Z   2
loop_
 _symmetry_equiv_pos_site_id
 _symmetry_equiv_pos_as_xyz
  1  'x, y, z'
loop_
 _atom_site_type_symbol
 _atom_site_label
 _atom_site_symmetry_multiplicity
 _atom_site_fract_x
 _atom_site_fract_y
 _atom_site_fract_z
 _atom_site_occupancy
 _atom_site_hle17_bader_spin_density
 _atom_site_hle17_ddec_charge
 _atom_site_hle17_ddec_spin_density
 _atom_site_hle17_ddec_sum_bond_order
 _atom_site_hle17_magmom
 _atom_site_hse06_10hf_bader_spin_density
 _atom_site_hse06_10hf_ddec_charge
 _atom_site_hse06_10hf_ddec_spin_density
 _atom_site_hse06_10hf_ddec_sum_bond_order
 _atom_site_hse06_10hf_magmom
 _atom_site_hse06_bader_spin_density
 _atom_site_hse06_ddec_charge
 _atom_site_hse06_ddec_spin_density
 _atom_site_hse06_ddec_sum_bond_order
 _atom_site_hse06_magmom
 _atom_site_pbe_bader_spin_density
 _atom_site_pbe_cm5_charge
 _atom_site_pbe_ddec_charge
 _atom_site_pbe_ddec_spin_density
 _atom_site_pbe_ddec_sum_bond_order
 _atom_site_pbe_magmom
Zn  Zn0  1  0.48312965  0.79835525  0.17561691  1  0  0.820947  0  2.163354  0  0  0.638212  0  2.666846  0  0  0.678304  0  2.619391  0  0  0.549984  0.610689  0  2.699108  0
Zn  Zn1  1  0.51686915  0.20164213  0.82438352  1  0  0.820974  0  2.163309  0  0  0.638256  0  2.666794  0  0  0.678346  0  2.619339  0  0  0.549998  0.610727  0  2.699064  0
H  H2  1  0.30954207  0.99684663  0.21741776  1  0  0.083099  0  0.950806  0  0  0.089556  0  1.017313  0  0  0.092155  0  1.015276  0  0  0.113737  0.087629  0  1.018856  0
H  H3  1  0.69045365  0.00315075  0.78258078  1  0  0.083099  0  0.950827  0  0  0.089538  0  1.017344  0  0  0.092135  0  1.01531  0  0  0.113737  0.087614  0  1.018887  0
H  H4  1  0.16031458  0.10931117  0.10906314  1  0  0.129162  0  0.951878  0  0  0.134617  0  1.016348  0  0  0.138889  0  1.013435  0  0  0.114874  0.131595  0  1.01853  0
H  H5  1  0.83968057  0.89068896  0.89093986  1  0  0.129197  0  0.95188  0  0  0.134642  0  1.016339  0  0  0.138915  0  1.013422  0  0  0.114885  0.131614  0  1.018532  0
H  H6  1  0.29597665  0.90720801  0.81913890  1  0  0.121036  0  0.946834  0  0  0.127879  0  1.010811  0  0  0.131501  0  1.009164  0  0  0.11524  0.125217  0  1.012232  0
H  H7  1  0.70401967  0.09278661  0.18086070  1  0  0.121082  0  0.946837  0  0  0.127893  0  1.010834  0  0  0.131515  0  1.009186  0  0  0.115258  0.125232  0  1.01226  0
H  H8  1  0.43582964  0.79961766  0.93938639  1  0  0.082035  0  0.941513  0  0  0.088941  0  1.004184  0  0  0.091809  0  1.002229  0  0  0.11242  0.086779  0  1.005745  0
H  H9  1  0.56416683  0.20037788  0.06061420  1  0  0.082043  0  0.941488  0  0  0.088937  0  1.00417  0  0  0.091805  0  1.002215  0  0  0.112423  0.086779  0  1.005726  0
H  H10  1  0.88288477  0.93707932  0.68899957  1  0  0.122135  0  0.953491  0  0  0.131147  0  1.01548  0  0  0.134406  0  1.01397  0  0  0.106328  0.128825  0  1.016613  0
H  H11  1  0.11711344  0.06292081  0.31100060  1  0  0.122137  0  0.953508  0  0  0.131146  0  1.0155  0  0  0.134404  0  1.013989  0  0  0.106312  0.128825  0  1.016636  0
H  H12  1  0.74120381  0.99531972  0.53552944  1  0  0.109366  0  0.949503  0  0  0.118343  0  1.010439  0  0  0.12108  0  1.009357  0  0  0.099208  0.116373  0  1.011323  0
H  H13  1  0.25879964  0.00468132  0.46446753  1  0  0.109367  0  0.949477  0  0  0.11836  0  1.0104  0  0  0.121098  0  1.009318  0  0  0.09921  0.116387  0  1.011288  0
H  H14  1  0.72021101  0.12264821  0.40392582  1  0  0.105887  0  0.969462  0  0  0.115641  0  1.031574  0  0  0.118706  0  1.029523  0  0  0.094213  0.113387  0  1.033202  0
H  H15  1  0.27978807  0.87735100  0.59607189  1  0  0.105896  0  0.969486  0  0  0.115665  0  1.031578  0  0  0.118729  0  1.029528  0  0  0.094224  0.113413  0  1.033204  0
H  H16  1  0.82652102  0.28401339  0.32287804  1  0  0.110363  0  0.934811  0  0  0.124444  0  0.987678  0  0  0.127422  0  0.986708  0  0  0.10753  0.122306  0  0.98846  0
H  H17  1  0.17347834  0.71598765  0.67712009  1  0  0.110342  0  0.934809  0  0  0.124395  0  0.987708  0  0  0.127374  0  0.986738  0  0  0.107501  0.122267  0  0.98848  0
H  H18  1  0.19549522  0.34449641  0.56147943  1  0  0.124604  0  0.920787  0  0  0.13922  0  0.971281  0  0  0.14268  0  0.969715  0  0  0.113719  0.13676  0  0.972408  0
H  H19  1  0.80450574  0.65550830  0.43852042  1  0  0.124583  0  0.920851  0  0  0.139167  0  0.971401  0  0  0.142626  0  0.969838  0  0  0.113694  0.136704  0  0.972518  0
H  H20  1  0.21279442  0.22117355  0.70269771  1  0  0.118314  0  0.962181  0  0  0.125627  0  1.029562  0  0  0.129036  0  1.027309  0  0  0.099684  0.123098  0  1.031372  0
H  H21  1  0.78720465  0.77882566  0.29729922  1  0  0.118239  0  0.962264  0  0  0.125562  0  1.029653  0  0  0.128969  0  1.027399  0  0  0.099647  0.123041  0  1.031443  0
H  H22  1  0.42223970  0.52196382  0.08939227  1  0  0.084971  0  0.969015  0  0  0.086852  0  1.041937  0  0  0.089821  0  1.039129  0  0  0.104449  0.084595  0  1.044093  0
H  H23  1  0.57776685  0.47803080  0.91060522  1  0  0.084984  0  0.969086  0  0  0.086896  0  1.041965  0  0  0.089864  0  1.039157  0  0  0.104456  0.08464  0  1.044126  0
H  H24  1  0.29524487  0.34775872  0.14224786  1  0  0.123396  0  0.944476  0  0  0.129659  0  1.007968  0  0  0.133178  0  1.006601  0  0  0.111117  0.127064  0  1.009228  0
H  H25  1  0.70475000  0.65223957  0.85775472  1  0  0.123535  0  0.944334  0  0  0.129717  0  1.0079  0  0  0.133237  0  1.006531  0  0  0.111145  0.127122  0  1.009158  0
H  H26  1  0.13549028  0.61647507  0.37835209  1  0  0.112908  0  0.987659  0  0  0.114919  0  1.061254  0  0  0.117433  0  1.061999  0  0  0.108697  0.113136  0  1.060785  0
H  H27  1  0.86451276  0.38352322  0.62164896  1  0  0.11293  0  0.987628  0  0  0.114945  0  1.061207  0  0  0.117459  0  1.061954  0  0  0.108701  0.113161  0  1.060739  0
H  H28  1  0.26844718  0.77991690  0.31592665  1  0  0.079722  0  0.974152  0  0  0.08438  0  1.044501  0  0  0.08617  0  1.044169  0  0  0.111215  0.083028  0  1.04479  0
H  H29  1  0.73155927  0.22008321  0.68408375  1  0  0.07967  0  0.97417  0  0  0.084325  0  1.044513  0  0  0.086118  0  1.044177  0  0  0.111187  0.082973  0  1.044811  0
C  C30  1  0.30092110  0.97908879  0.12872552  1  0  0.137861  0  3.66186  0  0  0.106775  0  3.908563  0  0  0.113052  0  3.926152  0  0  0.054629  0.102814  0  3.896571  0
C  C31  1  0.69908031  0.02091225  0.87127281  1  0  0.137849  0  3.662046  0  0  0.106769  0  3.908739  0  0  0.113049  0  3.926327  0  0  0.054604  0.102801  0  3.896754  0
C  C32  1  0.21938216  0.04101351  0.06855252  1  0  -0.096565  0  3.668381  0  0  -0.120913  0  3.918213  0  0  -0.12569  0  3.937769  0  0  -0.065629  -0.117887  0  3.905168  0
C  C33  1  0.78061386  0.95898570  0.93144801  1  0  -0.096656  0  3.668517  0  0  -0.12095  0  3.918298  0  0  -0.125726  0  3.937854  0  0  -0.065666  -0.117924  0  3.905268  0
C  C34  1  0.21440781  0.01363961  0.95538641  1  0  0.003818  0  3.731585  0  0  0.017764  0  3.970772  0  0  0.015851  0  3.990585  0  0  0.012626  0.019051  0  3.957483  0
C  C35  1  0.78558471  0.98635685  0.04461476  1  0  0.003828  0  3.731383  0  0  0.01775  0  3.970574  0  0  0.015829  0  3.990399  0  0  0.012653  0.019048  0  3.957276  0
C  C36  1  0.29443518  0.92734413  0.90668327  1  0  -0.114401  0  3.690033  0  0  -0.14075  0  3.943715  0  0  -0.145404  0  3.963893  0  0  -0.072828  -0.137795  0  3.930438  0
C  C37  1  0.70555776  0.07265508  0.09331617  1  0  -0.114373  0  3.690081  0  0  -0.140681  0  3.943746  0  0  -0.145333  0  3.963926  0  0  -0.072815  -0.137732  0  3.930475  0
C  C38  1  0.37185058  0.86821907  0.97227155  1  0  0.123494  0  3.699205  0  0  0.094866  0  3.944752  0  0  0.099856  0  3.96448  0  0  0.047379  0.091562  0  3.931444  0
C  C39  1  0.62814369  0.13177556  0.02772548  1  0  0.123409  0  3.699327  0  0  0.094791  0  3.944865  0  0  0.099783  0  3.964594  0  0  0.047332  0.091481  0  3.931561  0
C  C40  1  0.11983989  0.07411507  0.88936062  1  0  0.593904  0  3.795567  0  0  0.542482  0  4.095969  0  0  0.574874  0  4.086041  0  0  0.239918  0.520358  0  4.102421  0
C  C41  1  0.88016259  0.92587955  0.11064037  1  0  0.593919  0  3.795565  0  0  0.542491  0  4.095993  0  0  0.574896  0  4.086042  0  0  0.239933  0.520348  0  4.102448  0
C  C42  1  0.05186882  0.08054340  0.70393024  1  0  0.288524  0  3.775157  0  0  0.277826  0  4.044078  0  0  0.287783  0  4.060793  0  0  0.082164  0.271095  0  4.03252  0
C  C43  1  0.94812835  0.91946315  0.29607354  1  0  0.288398  0  3.775295  0  0  0.277699  0  4.044253  0  0  0.287651  0  4.060971  0  0  0.082179  0.270954  0  4.032689  0
C  C44  1  0.91942624  0.01480805  0.65881363  1  0  -0.167144  0  3.740776  0  0  -0.194041  0  4.002897  0  0  -0.198837  0  4.023511  0  0  -0.096562  -0.190486  0  3.988582  0
C  C45  1  0.08057327  0.98519391  0.34118627  1  0  -0.167107  0  3.740968  0  0  -0.194006  0  4.003104  0  0  -0.198798  0  4.023719  0  0  -0.096591  -0.190461  0  3.988798  0
C  C46  1  0.84310382  0.04586884  0.57306516  1  0  -0.086896  0  3.728703  0  0  -0.104406  0  3.978979  0  0  -0.105858  0  4.000188  0  0  -0.082937  -0.10338  0  3.964489  0
C  C47  1  0.15689642  0.95413129  0.42693129  1  0  -0.086935  0  3.728853  0  0  -0.104474  0  3.979112  0  0  -0.105926  0  4.000321  0  0  -0.082949  -0.103446  0  3.964622  0
C  C48  1  0.89784710  0.14131817  0.52935981  1  0  0.032703  0  3.777341  0  0  0.049199  0  3.999821  0  0  0.047165  0  4.025467  0  0  -0.008803  0.050509  0  3.982509  0
C  C49  1  0.10215196  0.85868746  0.47064082  1  0  0.032735  0  3.777207  0  0  0.04929  0  3.999615  0  0  0.047259  0  4.025257  0  0  -0.008813  0.0506  0  3.982308  0
C  C50  1  0.82325914  0.17242503  0.43880443  1  0  -0.076533  0  3.719801  0  0  -0.095838  0  3.969403  0  0  -0.096158  0  3.9892  0  0  -0.082437  -0.095694  0  3.956155  0
C  C51  1  0.17674199  0.82757418  0.56119662  1  0  -0.076588  0  3.719744  0  0  -0.095917  0  3.969312  0  0  -0.096245  0  3.989124  0  0  -0.082438  -0.095778  0  3.956075  0
C  C52  1  0.88148017  0.26028470  0.39340931  1  0  -0.171158  0  3.76397  0  0  -0.199476  0  4.027761  0  0  -0.203709  0  4.046291  0  0  -0.101599  -0.196595  0  4.015162  0
C  C53  1  0.11852038  0.73971084  0.60658777  1  0  -0.171124  0  3.763965  0  0  -0.199378  0  4.027789  0  0  -0.203608  0  4.046314  0  0  -0.101539  -0.196506  0  4.015198  0
C  C54  1  0.01662862  0.31950574  0.43848486  1  0  0.270668  0  3.799097  0  0  0.25768  0  4.078628  0  0  0.268148  0  4.093773  0  0  0.073128  0.250644  0  4.06814  0
C  C55  1  0.98337265  0.68049439  0.56151404  1  0  0.270872  0  3.798826  0  0  0.25776  0  4.078526  0  0  0.268226  0  4.093672  0  0  0.073189  0.250719  0  4.068048  0
C  C56  1  0.09148232  0.29623447  0.52847076  1  0  -0.212442  0  3.70456  0  0  -0.244316  0  3.955492  0  0  -0.248965  0  3.972916  0  0  -0.093625  -0.241092  0  3.943372  0
C  C57  1  0.90852450  0.70376198  0.47152400  1  0  -0.212399  0  3.704596  0  0  -0.24421  0  3.955605  0  0  -0.248856  0  3.973029  0  0  -0.093578  -0.240986  0  3.943478  0
C  C58  1  0.03369007  0.20601325  0.57635129  1  0  0.088432  0  3.8076  0  0  0.109713  0  4.030626  0  0  0.110216  0  4.056675  0  0  -0.002504  0.10954  0  4.012817  0
C  C59  1  0.96631222  0.79398688  0.42364850  1  0  0.088273  0  3.807575  0  0  0.109536  0  4.030615  0  0  0.110038  0  4.056657  0  0  -0.002589  0.109349  0  4.012812  0
C  C60  1  0.10911670  0.17470387  0.66609264  1  0  -0.203957  0  3.693483  0  0  -0.236576  0  3.9427  0  0  -0.241838  0  3.962076  0  0  -0.093681  -0.233075  0  3.929643  0
C  C61  1  0.89088105  0.82529993  0.33390747  1  0  -0.203773  0  3.693406  0  0  -0.236399  0  3.942633  0  0  -0.241669  0  3.962037  0  0  -0.093614  -0.232899  0  3.929547  0
C  C62  1  0.14109852  0.36635371  0.30441419  1  0  0.595522  0  3.772084  0  0  0.548547  0  4.063722  0  0  0.581559  0  4.053179  0  0  0.249599  0.525996  0  4.070543  0
C  C63  1  0.85890040  0.63365100  0.69558623  1  0  0.595439  0  3.772383  0  0  0.548677  0  4.063678  0  0  0.581689  0  4.053135  0  0  0.249799  0.526128  0  4.070497  0
C  C64  1  0.35707032  0.53852171  0.15267826  1  0  0.131863  0  3.671023  0  0  0.104123  0  3.913157  0  0  0.109335  0  3.93229  0  0  0.051633  0.100708  0  3.9002  0
C  C65  1  0.64293198  0.46147842  0.84732310  1  0  0.131764  0  3.671167  0  0  0.104048  0  3.913242  0  0  0.109259  0  3.932373  0  0  0.051588  0.100631  0  3.900289  0
C  C66  1  0.28706456  0.44221031  0.18287580  1  0  -0.099565  0  3.671624  0  0  -0.120704  0  3.911507  0  0  -0.126001  0  3.933306  0  0  -0.06667  -0.11728  0  3.896971  0
C  C67  1  0.71293452  0.55778890  0.81712347  1  0  -0.099753  0  3.671708  0  0  -0.120863  0  3.911649  0  0  -0.126158  0  3.933446  0  0  -0.066736  -0.11743  0  3.897105  0
C  C68  1  0.20777159  0.46933291  0.26641155  1  0  -0.015543  0  3.752109  0  0  0.00095  0  3.985054  0  0  -0.002416  0  4.005808  0  0  0.006898  0.003315  0  3.971033  0
C  C69  1  0.79223304  0.53066905  0.73358887  1  0  -0.015435  0  3.752363  0  0  0.001016  0  3.985237  0  0  -0.002352  0  4.005992  0  0  0.006919  0.003377  0  3.971214  0
C  C70  1  0.19744267  0.59205018  0.31409208  1  0  -0.106828  0  3.680661  0  0  -0.130463  0  3.92744  0  0  -0.13479  0  3.948269  0  0  -0.0706  -0.127776  0  3.913566  0
C  C71  1  0.80256109  0.40795269  0.68590923  1  0  -0.106889  0  3.680777  0  0  -0.13052  0  3.92754  0  0  -0.134848  0  3.948371  0  0  -0.070632  -0.127834  0  3.913669  0
C  C72  1  0.27039667  0.68300375  0.27918389  1  0  0.139475  0  3.663754  0  0  0.110963  0  3.905872  0  0  0.116949  0  3.923745  0  0  0.054206  0.107095  0  3.893786  0
C  C73  1  0.72960620  0.31700004  0.72081752  1  0  0.139486  0  3.663804  0  0  0.110997  0  3.905898  0  0  0.116979  0  3.923774  0  0  0.054259  0.10713  0  3.893817  0
N  N74  1  0.37369272  0.89277900  0.08115730  1  0  -0.305084  0  3.327061  0  0  -0.21723  0  3.593155  0  0  -0.235136  0  3.61005  0  0  -0.327273  -0.205155  0  3.581526  0
N  N75  1  0.62630608  0.10721837  0.91884234  1  0  -0.305031  0  3.327169  0  0  -0.21719  0  3.593255  0  0  -0.235101  0  3.610157  0  0  -0.327245  -0.205109  0  3.581625  0
N  N76  1  0.35026399  0.65673876  0.20114918  1  0  -0.295552  0  3.295489  0  0  -0.208858  0  3.556423  0  0  -0.226307  0  3.572164  0  0  -0.32034  -0.197019  0  3.54553  0
N  N77  1  0.64974359  0.34326227  0.79885604  1  0  -0.295448  0  3.295455  0  0  -0.208807  0  3.556409  0  0  -0.226248  0  3.572145  0  0  -0.320324  -0.19697  0  3.545523  0
Cl  Cl78  1  0.62539108  0.70364004  0.07303942  1  0  -0.562388  0  0.937423  0  0  -0.50344  0  1.204851  0  0  -0.518415  0  1.180935  0  0  -0.318048  -0.492418  0  1.22115  0
Cl  Cl79  1  0.37461005  0.29635917  0.92696085  1  0  -0.562406  0  0.937421  0  0  -0.503457  0  1.204849  0  0  -0.518433  0  1.180934  0  0  -0.318051  -0.492429  0  1.22115  0
Cl  Cl80  1  0.53511075  0.92754542  0.34107176  1  0  -0.564498  0  0.910932  0  0  -0.507448  0  1.170596  0  0  -0.522006  0  1.146683  0  0  -0.326311  -0.496915  0  1.187141  0
Cl  Cl81  1  0.46489136  0.07246022  0.65892604  1  0  -0.564503  0  0.910933  0  0  -0.507452  0  1.170588  0  0  -0.522009  0  1.146674  0  0  -0.326308  -0.496906  0  1.187127  0
O  O82  1  0.03846657  0.14069387  0.92564567  1  0  -0.488074  0  1.915474  0  0  -0.45504  0  2.115051  0  0  -0.472671  0  2.109487  0  0  -0.271746  -0.442947  0  2.118734  0
O  O83  1  0.96153821  0.85930900  0.07435574  1  0  -0.487994  0  1.915661  0  0  -0.454959  0  2.115232  0  0  -0.472592  0  2.109661  0  0  -0.271711  -0.44287  0  2.11892  0
O  O84  1  0.13476721  0.03920593  0.78225805  1  0  -0.341545  0  2.370506  0  0  -0.270211  0  2.601619  0  0  -0.293187  0  2.60326  0  0  -0.136757  -0.254151  0  2.600069  0
O  O85  1  0.86522983  0.96079328  0.21774259  1  0  -0.341565  0  2.370542  0  0  -0.270224  0  2.60165  0  0  -0.293202  0  2.603291  0  0  -0.136779  -0.254128  0  2.600076  0
O  O86  1  0.14661328  0.25807697  0.26501134  1  0  -0.493799  0  1.949258  0  0  -0.454713  0  2.154999  0  0  -0.473645  0  2.147511  0  0  -0.256296  -0.441886  0  2.160053  0
O  O87  1  0.85337920  0.74192591  0.73498570  1  0  -0.493736  0  1.94945  0  0  -0.454743  0  2.155095  0  0  -0.47368  0  2.147614  0  0  -0.256392  -0.441917  0  2.160146  0
O  O88  1  0.07616130  0.40877158  0.39127045  1  0  -0.332234  0  2.300818  0  0  -0.265902  0  2.529501  0  0  -0.286342  0  2.52658  0  0  -0.139937  -0.251611  0  2.530738  0
O  O89  1  0.92383952  0.59123221  0.60873076  1  0  -0.332339  0  2.300789  0  0  -0.266037  0  2.529446  0  0  -0.286472  0  2.526522  0  0  -0.140076  -0.251744  0  2.530685  0
