# generated using pymatgen
data_CoCuH10C10N2O9
_symmetry_space_group_name_H-M   'P 1'
_cell_length_a   9.44137402
_cell_length_b   11.71424328
_cell_length_c   15.41508060
_cell_angle_alpha   90.00025212
_cell_angle_beta   90.00101774
_cell_angle_gamma   113.77435913
_symmetry_Int_Tables_number   1
_chemical_formula_structural   CoCuH10C10N2O9
_chemical_formula_sum   'Co4 Cu4 H40 C40 N8 O36'
_cell_volume   1560.20929317
_cell_formula_units_Z   4
loop_
 _symmetry_equiv_pos_site_id
 _symmetry_equiv_pos_as_xyz
  1  'x, y, z'
loop_
 _atom_site_type_symbol
 _atom_site_label
 _atom_site_symmetry_multiplicity
 _atom_site_fract_x
 _atom_site_fract_y
 _atom_site_fract_z
 _atom_site_occupancy
 _atom_site_pbe_bader_charge
 _atom_site_pbe_bader_spin_density
 _atom_site_pbe_cm5_charge
 _atom_site_pbe_ddec_charge
 _atom_site_pbe_ddec_spin_density
 _atom_site_pbe_ddec_sum_bond_order
 _atom_site_pbe_magmom
Co  Co0  1  0.50000308  0.49999890  0.00000285  1  1.319525  2.559318  0.645282  1.012411  2.753487  2.296973  2.543
Co  Co1  1  0.49999835  0.50000447  0.49999829  1  1.319542  2.559282  0.645319  1.012488  2.753452  2.296844  2.543
Co  Co2  1  0.00000191  0.49999507  0.00000210  1  1.320604  2.558495  0.645543  1.01235  2.752818  2.29828  2.542
Co  Co3  1  0.00000035  0.50000064  0.50000143  1  1.320676  2.558489  0.645538  1.012446  2.752809  2.298152  2.542
Cu  Cu4  1  0.73049450  0.00007617  0.95703494  1  1.009688  -0.502298  0.698697  0.714381  -0.661973  2.257296  -0.504
Cu  Cu5  1  0.73049496  0.00008073  0.54296575  1  1.0099  -0.502295  0.698672  0.714346  -0.661965  2.257324  -0.504
Cu  Cu6  1  0.26951047  0.99992449  0.45703018  1  1.0098  -0.502287  0.698648  0.714285  -0.661949  2.257397  -0.504
Cu  Cu7  1  0.26950157  0.99991878  0.04296617  1  1.009682  -0.502291  0.698668  0.714393  -0.661958  2.257223  -0.504
H  H8  1  0.76317939  0.56801540  0.09510670  1  0.628096  0.000643  0.304119  0.40055  0.000199  0.92294  0.001
H  H9  1  0.76317243  0.56801361  0.40489295  1  0.628151  0.000643  0.304059  0.400579  0.000199  0.922907  0.001
H  H10  1  0.19516709  0.43194195  0.09514364  1  0.64738  0.000647  0.304045  0.401229  0.000199  0.922134  0.001
H  H11  1  0.80484212  0.56806505  0.59514194  1  0.647177  0.000648  0.304058  0.401253  0.000199  0.922103  0.001
H  H12  1  0.23682761  0.43198236  0.90489506  1  0.628109  0.000643  0.304099  0.400581  0.000199  0.922891  0.001
H  H13  1  0.23682478  0.43198788  0.59510233  1  0.628143  0.000643  0.304085  0.400601  0.000199  0.922869  0.001
H  H14  1  0.80484380  0.56805300  0.90486072  1  0.647377  0.000647  0.304096  0.401158  0.000199  0.922195  0.001
H  H15  1  0.19515318  0.43194110  0.40485593  1  0.647282  0.000647  0.304074  0.401194  0.000199  0.92216  0.001
H  H16  1  0.68835787  0.42429174  0.09118199  1  0.628378  0.000613  0.307369  0.400276  0.000305  0.914118  0.001
H  H17  1  0.68835200  0.42429189  0.40882029  1  0.628579  0.000612  0.307356  0.40032  0.000305  0.914077  0.001
H  H18  1  0.26408910  0.57567443  0.09127206  1  0.642497  0.000587  0.307281  0.40046  0.000305  0.914  0.001
H  H19  1  0.73592149  0.42433343  0.59127824  1  0.642615  0.000587  0.30732  0.400483  0.000305  0.913948  0.001
H  H20  1  0.31164959  0.57570695  0.90882237  1  0.628637  0.000612  0.307356  0.400293  0.000305  0.914112  0.001
H  H21  1  0.31164403  0.57571146  0.59117823  1  0.62851  0.000612  0.307324  0.400212  0.000305  0.914212  0.001
H  H22  1  0.73591908  0.42432145  0.90873100  1  0.64212  0.000587  0.307302  0.400456  0.000305  0.914007  0.001
H  H23  1  0.26407428  0.57567365  0.40872158  1  0.642483  0.000589  0.30733  0.400438  0.000305  0.913991  0.001
H  H24  1  0.52025418  0.07047529  0.88498370  1  0.629701  -6.2e-05  0.291446  0.384726  -0.000185  0.941632  0.0
H  H25  1  0.52025779  0.07047558  0.61501171  1  0.629685  -6.2e-05  0.291436  0.384699  -0.000185  0.941667  0.0
H  H26  1  0.44973792  0.92945932  0.88485300  1  0.634803  -6e-05  0.291676  0.385056  -0.000183  0.941059  0.0
H  H27  1  0.55025342  0.07054373  0.38485997  1  0.634544  -6e-05  0.291701  0.385094  -0.000183  0.941001  0.0
H  H28  1  0.47974659  0.92952060  0.11501547  1  0.629631  -6.2e-05  0.291432  0.384734  -0.000185  0.941645  0.0
H  H29  1  0.47974412  0.92952683  0.38498617  1  0.629697  -6.2e-05  0.291462  0.38471  -0.000185  0.941639  0.0
H  H30  1  0.55025755  0.07053656  0.11515136  1  0.634936  -6e-05  0.291693  0.385124  -0.000183  0.940985  0.0
H  H31  1  0.44974908  0.92945775  0.61513790  1  0.634555  -6e-05  0.291675  0.385085  -0.000183  0.941026  0.0
H  H32  1  0.64740639  0.86243685  0.74999381  1  0.106149  -8e-06  0.115792  0.149181  1e-06  0.97566  0.0
H  H33  1  0.78540120  0.13811015  0.75000119  1  0.129433  3.4e-05  0.11591  0.149185  1e-06  0.975087  0.0
H  H34  1  0.21459470  0.86189506  0.24999993  1  0.128823  3.3e-05  0.115911  0.149208  2e-06  0.975121  0.0
H  H35  1  0.35259468  0.13757023  0.25000860  1  0.106228  -8e-06  0.115753  0.149154  1e-06  0.975689  0.0
H  H36  1  0.02911451  0.83939052  0.88984050  1  0.068687  0.000155  0.096477  0.096623  7.8e-05  1.060948  0.0
H  H37  1  0.02912926  0.83941125  0.61016178  1  0.068815  0.000155  0.096463  0.096598  7.8e-05  1.061053  0.0
H  H38  1  0.18980489  0.16028790  0.88982601  1  0.034891  9.9e-05  0.096405  0.096597  8e-05  1.060472  0.0
H  H39  1  0.81018401  0.83969939  0.38981944  1  0.034757  9.8e-05  0.096386  0.096619  8e-05  1.060421  0.0
H  H40  1  0.97088117  0.16058671  0.11015607  1  0.068836  0.000156  0.096491  0.096652  7.8e-05  1.060875  0.0
H  H41  1  0.97086804  0.16059677  0.38983609  1  0.068728  0.000156  0.096449  0.096521  7.8e-05  1.061116  0.0
H  H42  1  0.81018685  0.83970052  0.11017380  1  0.034673  9.9e-05  0.096389  0.096578  8e-05  1.060429  0.0
H  H43  1  0.18981108  0.16030210  0.61018168  1  0.034568  9.9e-05  0.096371  0.096639  8e-05  1.060392  0.0
H  H44  1  0.15630585  0.82823958  0.75000149  1  0.078873  -0.000133  0.108042  0.111072  -9e-06  0.976716  0.0
H  H45  1  0.32814986  0.17131944  0.75000396  1  0.089761  -0.000136  0.108005  0.111225  -8e-06  0.977364  0.0
H  H46  1  0.67184710  0.82868578  0.24999521  1  0.089665  -0.000135  0.107992  0.111241  -8e-06  0.977346  0.0
H  H47  1  0.84368810  0.17175538  0.24999314  1  0.078861  -0.000133  0.108049  0.111024  -9e-06  0.976697  0.0
C  C48  1  0.57314518  0.75803933  0.02166426  1  1.556904  -0.000411  0.213163  0.493453  -0.001063  4.212529  0.0
C  C49  1  0.57313423  0.75803797  0.47833719  1  1.557106  -0.000411  0.213218  0.493572  -0.001063  4.212256  0.0
C  C50  1  0.81535531  0.24207584  0.02166734  1  1.572778  -0.000413  0.213889  0.494294  -0.00107  4.209071  0.0
C  C51  1  0.18464735  0.75792234  0.52166604  1  1.572645  -0.000415  0.213953  0.494372  -0.001071  4.209132  0.0
C  C52  1  0.42685593  0.24195936  0.97834010  1  1.556957  -0.000412  0.213134  0.493361  -0.001065  4.212429  0.0
C  C53  1  0.42686506  0.24197191  0.52166457  1  1.557666  -0.000412  0.213249  0.493608  -0.001063  4.212122  0.0
C  C54  1  0.18464182  0.75791912  0.97833637  1  1.57254  -0.000414  0.213933  0.494311  -0.001071  4.209259  0.0
C  C55  1  0.81535787  0.24207821  0.47833248  1  1.572538  -0.000416  0.213946  0.494393  -0.001072  4.209077  0.0
C  C56  1  0.67487145  0.74698317  0.94838846  1  1.352492  0.000508  0.21505  0.343013  -0.000553  4.186614  -0.001
C  C57  1  0.67487708  0.74698695  0.55160818  1  1.352131  0.000505  0.21503  0.342938  -0.000553  4.186644  -0.001
C  C58  1  0.92805554  0.25316484  0.94834038  1  1.346269  0.000409  0.215082  0.342569  -0.000542  4.18551  -0.001
C  C59  1  0.07194464  0.74683100  0.44833917  1  1.34565  0.000409  0.215126  0.342561  -0.000542  4.185639  -0.001
C  C60  1  0.32513084  0.25301365  0.05161395  1  1.352466  0.000509  0.215057  0.343057  -0.000553  4.18647  -0.001
C  C61  1  0.32512493  0.25302199  0.44839164  1  1.351377  0.000504  0.214954  0.342765  -0.000553  4.186603  -0.001
C  C62  1  0.07194124  0.74682732  0.05165944  1  1.345904  0.000409  0.215063  0.34252  -0.000542  4.185651  -0.001
C  C63  1  0.92806117  0.25316862  0.55165741  1  1.345711  0.000409  0.215114  0.342593  -0.000542  4.185533  -0.001
C  C64  1  0.75691831  0.85186891  0.74999698  1  0.057423  -0.030639  -0.08265  -0.231915  -0.020714  3.84853  -0.019
C  C65  1  0.90541351  0.14855399  0.74999925  1  0.051763  -0.030716  -0.082187  -0.230763  -0.02076  3.848496  -0.019
C  C66  1  0.09458159  0.85144749  0.24999991  1  0.052591  -0.030704  -0.082139  -0.230783  -0.020753  3.848315  -0.019
C  C67  1  0.24308898  0.14814004  0.25000413  1  0.057061  -0.030638  -0.082667  -0.231872  -0.020712  3.848692  -0.019
C  C68  1  0.82888154  0.84668859  0.82817924  1  0.315223  0.003899  0.088552  0.257549  0.001743  4.044666  0.005
C  C69  1  0.82888649  0.84669460  0.67181872  1  0.315414  0.0039  0.088421  0.257443  0.001743  4.044787  0.005
C  C70  1  0.98251618  0.15355542  0.82817248  1  0.297936  0.003834  0.087616  0.256034  0.001746  4.046479  0.005
C  C71  1  0.01747573  0.84643726  0.32816775  1  0.297893  0.003831  0.087599  0.256064  0.001745  4.046389  0.005
C  C72  1  0.17112203  0.15331289  0.17182122  1  0.315394  0.003897  0.088551  0.257471  0.001742  4.044779  0.005
C  C73  1  0.17111174  0.15331528  0.32818239  1  0.315685  0.0039  0.088456  0.257375  0.001743  4.044945  0.005
C  C74  1  0.01747412  0.84643861  0.17182799  1  0.297915  0.003831  0.087596  0.255992  0.001745  4.046557  0.005
C  C75  1  0.98251479  0.15356143  0.67183142  1  0.298115  0.003834  0.087631  0.256047  0.001746  4.046528  0.005
C  C76  1  0.97263134  0.83852507  0.82832337  1  -0.02414  -0.032234  -0.094942  -0.169731  -0.021598  3.948859  -0.02
C  C77  1  0.97264087  0.83853388  0.67167872  1  -0.023707  -0.032226  -0.094818  -0.169566  -0.021593  3.948943  -0.02
C  C78  1  0.13433740  0.16147166  0.82832101  1  0.034419  -0.032145  -0.094863  -0.168676  -0.021614  3.947526  -0.02
C  C79  1  0.86565206  0.83851822  0.32831633  1  0.034072  -0.032136  -0.09491  -0.168745  -0.021607  3.947468  -0.02
C  C80  1  0.02736803  0.16146802  0.17167450  1  -0.024145  -0.032225  -0.094969  -0.169818  -0.021593  3.948666  -0.02
C  C81  1  0.02735809  0.16147320  0.32831851  1  -0.023568  -0.032217  -0.094841  -0.169504  -0.021587  3.949134  -0.02
C  C82  1  0.86565468  0.83851957  0.17167881  1  0.034199  -0.032134  -0.09486  -0.168573  -0.021606  3.947555  -0.02
C  C83  1  0.13434163  0.16148046  0.67168479  1  0.034066  -0.032152  -0.094897  -0.168748  -0.021618  3.947314  -0.02
C  C84  1  0.04383993  0.83391298  0.75000024  1  -0.031407  0.006777  -0.081528  -0.03518  0.003268  3.996104  0.005
C  C85  1  0.21013639  0.16600141  0.75000461  1  -0.060227  0.006764  -0.080862  -0.036184  0.00327  3.99744  0.005
C  C86  1  0.78985590  0.83399448  0.24999585  1  -0.059975  0.00676  -0.080837  -0.03623  0.003268  3.997289  0.005
C  C87  1  0.95615753  0.16608478  0.24999633  1  -0.031661  0.006775  -0.081506  -0.035031  0.003268  3.995952  0.005
N  N88  1  0.75265528  0.85144097  0.90655339  1  -1.221032  -0.080277  -0.377895  -0.423656  -0.054693  3.580841  -0.069
N  N89  1  0.75266438  0.85144926  0.59344182  1  -1.220995  -0.080273  -0.377834  -0.423616  -0.054693  3.580918  -0.069
N  N90  1  0.90148168  0.14871000  0.90654658  1  -1.204927  -0.080226  -0.377609  -0.423325  -0.054752  3.58071  -0.069
N  N91  1  0.09852041  0.85128786  0.40654728  1  -1.204692  -0.080227  -0.377597  -0.423291  -0.054752  3.580538  -0.069
N  N92  1  0.24734748  0.14855678  0.09344837  1  -1.221343  -0.080271  -0.377881  -0.423666  -0.05469  3.581068  -0.069
N  N93  1  0.24733470  0.14855596  0.40656189  1  -1.220633  -0.080267  -0.377814  -0.423545  -0.054689  3.580848  -0.069
N  N94  1  0.09851145  0.85128122  0.09345259  1  -1.204822  -0.080226  -0.377621  -0.423343  -0.054751  3.580649  -0.069
N  N95  1  0.90148350  0.14871642  0.59345448  1  -1.204635  -0.080232  -0.377637  -0.423335  -0.054755  3.580606  -0.069
O  O96  1  0.58506680  0.86700664  0.04086583  1  -1.118813  -0.064552  -0.294112  -0.489385  -0.043461  2.394451  -0.059
O  O97  1  0.58504863  0.86700679  0.45913999  1  -1.118897  -0.064561  -0.294183  -0.489479  -0.043467  2.394431  -0.059
O  O98  1  0.71841361  0.13309335  0.04093479  1  -1.130455  -0.064492  -0.294658  -0.489893  -0.043489  2.39326  -0.059
O  O99  1  0.28158648  0.86690705  0.54093877  1  -1.13045  -0.064488  -0.294665  -0.489847  -0.043487  2.393124  -0.059
O  O100  1  0.41493278  0.13299112  0.95913464  1  -1.118792  -0.064559  -0.294136  -0.489361  -0.043465  2.39437  -0.059
O  O101  1  0.41495278  0.13300309  0.54086307  1  -1.119384  -0.064558  -0.294254  -0.489556  -0.043466  2.394196  -0.059
O  O102  1  0.28158046  0.86689974  0.95906633  1  -1.130314  -0.064495  -0.294663  -0.489812  -0.043491  2.393215  -0.059
O  O103  1  0.71841556  0.13309350  0.45906040  1  -1.130482  -0.064488  -0.294675  -0.489869  -0.043486  2.393117  -0.059
O  O104  1  0.48175536  0.65744501  0.05687199  1  -1.143108  0.042129  -0.28771  -0.512281  0.022418  2.313094  0.036
O  O105  1  0.48173529  0.65744020  0.44313075  1  -1.143289  0.042129  -0.287711  -0.512342  0.022417  2.312964  0.036
O  O106  1  0.82452176  0.34265081  0.05688306  1  -1.139091  0.042197  -0.288227  -0.512496  0.022443  2.31273  0.036
O  O107  1  0.17548839  0.65734335  0.55688004  1  -1.139023  0.042198  -0.288261  -0.512561  0.022445  2.312908  0.036
O  O108  1  0.51825562  0.34255648  0.94313237  1  -1.143203  0.042134  -0.287679  -0.512245  0.02242  2.312935  0.036
O  O109  1  0.51826137  0.34257714  0.55687166  1  -1.143245  0.042134  -0.287653  -0.51223  0.022421  2.312954  0.036
O  O110  1  0.17548291  0.65734228  0.94312000  1  -1.139031  0.042195  -0.288248  -0.512532  0.022444  2.312902  0.036
O  O111  1  0.82451365  0.34265720  0.44311912  1  -1.139017  0.042198  -0.288241  -0.512547  0.022445  2.312764  0.036
O  O112  1  0.66986465  0.63801266  0.93226508  1  -1.135247  0.05074  -0.297627  -0.503539  0.026871  2.39192  0.043
O  O113  1  0.66987301  0.63801674  0.56773439  1  -1.135275  0.050741  -0.297628  -0.503545  0.026871  2.391824  0.043
O  O114  1  0.03195556  0.36217097  0.93216649  1  -1.146508  0.05078  -0.297128  -0.502721  0.026894  2.392017  0.043
O  O115  1  0.96803909  0.63781897  0.43216422  1  -1.146046  0.050784  -0.297151  -0.502807  0.026896  2.392072  0.043
O  O116  1  0.33013799  0.36198696  0.06773927  1  -1.135146  0.050746  -0.297584  -0.503527  0.026874  2.391743  0.043
O  O117  1  0.33013357  0.36199500  0.43225959  1  -1.134609  0.050746  -0.297597  -0.503463  0.026874  2.391731  0.043
O  O118  1  0.96804076  0.63782025  0.06783268  1  -1.14617  0.050779  -0.297127  -0.502745  0.026893  2.39211  0.043
O  O119  1  0.03196862  0.36217599  0.56783106  1  -1.146115  0.050781  -0.297137  -0.502833  0.026893  2.392092  0.043
O  O120  1  0.66090226  0.49679154  0.09435028  1  -1.196561  0.062348  -0.567475  -0.759605  0.033241  2.103145  0.05
O  O121  1  0.66089393  0.49678696  0.40564804  1  -1.197258  0.062367  -0.567411  -0.759695  0.033239  2.102971  0.05
O  O122  1  0.16412317  0.50315234  0.09440340  1  -1.230472  0.062393  -0.567217  -0.760265  0.033154  2.102182  0.05
O  O123  1  0.83588720  0.49685279  0.59440635  1  -1.230754  0.062409  -0.567295  -0.760345  0.033153  2.10204  0.05
O  O124  1  0.33910414  0.50320715  0.90565473  1  -1.196825  0.062346  -0.567418  -0.759628  0.033238  2.103034  0.05
O  O125  1  0.33910268  0.50321545  0.59434789  1  -1.197143  0.06237  -0.567421  -0.7596  0.033242  2.103046  0.05
O  O126  1  0.83588467  0.49684075  0.90559707  1  -1.230011  0.062389  -0.567297  -0.760158  0.033151  2.102153  0.05
O  O127  1  0.16410811  0.50315336  0.40559347  1  -1.230731  0.06241  -0.567313  -0.760188  0.033153  2.102191  0.05
O  O128  1  0.54427518  0.00000764  0.86578174  1  -1.241849  0.000288  -0.59703  -0.756908  -0.000182  2.062985  -0.001
O  O129  1  0.54428271  0.00000829  0.63421564  1  -1.238711  0.000283  -0.597023  -0.75689  -0.000183  2.063072  -0.001
O  O130  1  0.45571978  0.99999374  0.36578323  1  -1.238728  0.000284  -0.597063  -0.756882  -0.000183  2.063116  -0.001
O  O131  1  0.45571995  0.99998545  0.13421873  1  -1.241888  0.000288  -0.597045  -0.757006  -0.000182  2.062951  -0.001
