# generated using pymatgen
data_DyH20C21N4O9
_symmetry_space_group_name_H-M   'P 1'
_cell_length_a   9.87364236
_cell_length_b   11.47569487
_cell_length_c   13.49655295
_cell_angle_alpha   67.09743111
_cell_angle_beta   86.18196710
_cell_angle_gamma   76.30018635
_symmetry_Int_Tables_number   1
_chemical_formula_structural   DyH20C21N4O9
_chemical_formula_sum   'Dy2 H40 C42 N8 O18'
_cell_volume   1368.06177048
_cell_formula_units_Z   2
loop_
 _symmetry_equiv_pos_site_id
 _symmetry_equiv_pos_as_xyz
  1  'x, y, z'
loop_
 _atom_site_type_symbol
 _atom_site_label
 _atom_site_symmetry_multiplicity
 _atom_site_fract_x
 _atom_site_fract_y
 _atom_site_fract_z
 _atom_site_occupancy
 _atom_site_pbe_bader_charge
 _atom_site_pbe_bader_spin_density
 _atom_site_pbe_cm5_charge
 _atom_site_pbe_ddec_charge
 _atom_site_pbe_ddec_spin_density
 _atom_site_pbe_ddec_sum_bond_order
 _atom_site_pbe_magmom
Dy  Dy0  1  0.23731912  0.02721184  0.00275738  1  2.201579  0  1.505535  2.121688  0  2.137399  0
Dy  Dy1  1  0.76268088  0.97278553  0.99724196  1  2.201558  0  1.50551  2.121669  0  2.137357  0
H  H2  1  0.99336528  0.63022998  0.45655326  1  0.05659  0  0.107359  0.07558  0  1.015154  0
H  H3  1  0.00664844  0.36977723  0.54345031  1  0.056678  0  0.107331  0.075523  0  1.015168  0
H  H4  1  0.03543455  0.75023555  0.26320338  1  0.091309  0  0.110594  0.122331  0  1.023283  0
H  H5  1  0.96457009  0.24977161  0.73679691  1  0.091207  0  0.110587  0.122306  0  1.023225  0
H  H6  1  0.45124925  0.50636766  0.31457484  1  0.16112  0  0.109167  0.117059  0  1.031465  0
H  H7  1  0.54875068  0.49363053  0.68541014  1  0.160827  0  0.109079  0.116976  0  1.031494  0
H  H8  1  0.29390105  0.33689941  0.66682358  1  0.134792  0  0.115547  0.130991  0  1.001123  0
H  H9  1  0.70610581  0.66311544  0.33316588  1  0.134555  0  0.115593  0.131075  0  1.001146  0
H  H10  1  0.70378867  0.08382313  0.70653535  1  0.132364  0  0.107195  0.111799  0  1.048847  0
H  H11  1  0.29620954  0.91617326  0.29346438  1  0.132386  0  0.107206  0.111824  0  1.048836  0
H  H12  1  0.73057701  0.19181164  0.50717672  1  0.085562  0  0.107375  0.07835  0  0.997548  0
H  H13  1  0.26943847  0.80819264  0.49282628  1  0.085631  0  0.107438  0.07837  0  0.997445  0
H  H14  1  0.32570258  0.10871933  0.54257431  1  0.081443  0  0.109685  0.078436  0  0.992455  0
H  H15  1  0.67428744  0.89129755  0.45742557  1  0.081276  0  0.109658  0.078341  0  0.992501  0
H  H16  1  0.25709416  0.06871584  0.73359512  1  0.13645  0  0.113392  0.11894  0  1.043287  0
H  H17  1  0.74291282  0.93127773  0.26641112  1  0.136447  0  0.113372  0.118816  0  1.04339  0
H  H18  1  0.89909753  0.95393424  0.66716777  1  0.12927  0  0.105036  0.105737  0  1.063892  0
H  H19  1  0.10091634  0.04604379  0.33284413  1  0.129006  0  0.105069  0.105721  0  1.063984  0
H  H20  1  0.22103292  0.14694958  0.20240814  1  0.113976  0  0.124572  0.051157  0  1.04055  0
H  H21  1  0.77894027  0.85306145  0.79759592  1  0.114424  0  0.124546  0.051195  0  1.040597  0
H  H22  1  0.50379320  0.36349707  0.11332729  1  0.075327  0  0.112516  0.131818  0  0.963966  0
H  H23  1  0.49619909  0.63649054  0.88667344  1  0.075482  0  0.112582  0.131866  0  0.963981  0
H  H24  1  0.34725071  0.48668442  0.08507974  1  0.084085  0  0.104713  0.123435  0  1.008925  0
H  H25  1  0.65274755  0.51331192  0.91491557  1  0.084068  0  0.104734  0.123495  0  1.008849  0
H  H26  1  0.38809560  0.38591878  0.00757508  1  0.12553  0  0.117044  0.143701  0  0.989314  0
H  H27  1  0.61189005  0.61406689  0.99242881  1  0.125685  0  0.117029  0.143698  0  0.989384  0
H  H28  1  0.23512033  0.38779380  0.26839950  1  0.066924  0  0.102792  0.121233  0  0.993581  0
H  H29  1  0.76487110  0.61221335  0.73160285  1  0.067004  0  0.1028  0.1212  0  0.993651  0
H  H30  1  0.40478987  0.28556307  0.30694294  1  0.061984  0  0.1078  0.127904  0  0.987921  0
H  H31  1  0.59519747  0.71444016  0.69305942  1  0.061768  0  0.107808  0.128006  0  0.987895  0
H  H32  1  0.25696292  0.21502254  0.32275732  1  0.093614  0  0.106171  0.117378  0  1.031485  0
H  H33  1  0.74302189  0.78498658  0.67724836  1  0.093442  0  0.106218  0.117375  0  1.031513  0
H  H34  1  0.04686061  0.27768154  0.96501451  1  0.611308  0  0.329179  0.41286  0  0.871834  0
H  H35  1  0.95314447  0.72231190  0.03498073  1  0.611527  0  0.329157  0.412819  0  0.871854  0
H  H36  1  0.96142037  0.20789397  0.91737108  1  0.656519  0  0.300783  0.401834  0  0.935967  0
H  H37  1  0.03857859  0.79209948  0.08262739  1  0.657622  0  0.300748  0.40178  0  0.936043  0
H  H38  1  0.49223787  0.88888079  0.93787347  1  0.639281  0  0.303047  0.383794  0  0.954096  0
H  H39  1  0.50775823  0.11112823  0.06212137  1  0.639509  0  0.303054  0.383795  0  0.954104  0
H  H40  1  0.40678407  0.78551895  0.00792861  1  0.641051  0  0.289838  0.379361  0  0.97088  0
H  H41  1  0.59321708  0.21448617  0.99206510  1  0.641007  0  0.289881  0.379446  0  0.970738  0
C  C42  1  0.28352428  0.70988486  0.15929912  1  1.562949  0  0.220397  0.587825  0  4.177251  0
C  C43  1  0.71647352  0.29011735  0.84069646  1  1.562903  0  0.220433  0.587806  0  4.17715  0
C  C44  1  0.09449738  0.60544126  0.42274740  1  0.474653  0  0.040571  0.093098  0  4.004216  0
C  C45  1  0.90551483  0.39456396  0.57725320  1  0.474606  0  0.040625  0.093142  0  4.003913  0
C  C46  1  0.11761691  0.67294300  0.31449809  1  0.067449  0  -0.082328  -0.142301  0  3.932462  0
C  C47  1  0.88238825  0.32706217  0.68549913  1  0.067598  0  -0.082317  -0.14228  0  3.932225  0
C  C48  1  0.24807233  0.63785756  0.27378390  1  -0.059418  0  -0.009776  -0.010128  0  3.983797  0
C  C49  1  0.75193002  0.36214271  0.72621213  1  -0.060181  0  -0.009649  -0.009933  0  3.98365  0
C  C50  1  0.34829168  0.53590748  0.34304923  1  -0.04408  0  -0.07616  -0.173628  0  3.938693  0
C  C51  1  0.65171125  0.46409469  0.65694244  1  -0.0431  0  -0.076218  -0.173674  0  3.938693  0
C  C52  1  0.31487019  0.47208077  0.45022004  1  0.497076  0  0.116004  0.168389  0  3.999928  0
C  C53  1  0.68513755  0.52792239  0.54977183  1  0.496688  0  0.116159  0.168398  0  3.999803  0
C  C54  1  0.41842178  0.36089508  0.52487779  1  0.498259  0  0.117041  0.166423  0  3.996098  0
C  C55  1  0.58158925  0.63911106  0.47511737  1  0.498448  0  0.117065  0.166501  0  3.996198  0
C  C56  1  0.39224521  0.30225674  0.63467438  1  0.012052  0  -0.06833  -0.155573  0  3.880753  0
C  C57  1  0.60776201  0.69774840  0.36531981  1  0.012307  0  -0.068382  -0.155734  0  3.880944  0
C  C58  1  0.49502158  0.19994848  0.70111727  1  -0.055928  0  -0.002308  -0.004112  0  3.94426  0
C  C59  1  0.50497827  0.80005372  0.29887749  1  -0.056303  0  -0.002198  -0.00389  0  3.944194  0
C  C60  1  0.62028030  0.16046321  0.65584014  1  -0.075487  0  -0.083002  -0.149287  0  3.945832  0
C  C61  1  0.37972225  0.83953612  0.34415917  1  -0.075513  0  -0.083095  -0.149472  0  3.945966  0
C  C62  1  0.63533648  0.22229048  0.54540350  1  0.532605  0  0.040143  0.095416  0  4.014682  0
C  C63  1  0.36467296  0.77771375  0.45459534  1  0.532619  0  0.040108  0.095502  0  4.014509  0
C  C64  1  0.47302250  0.12990645  0.81878392  1  1.584578  0  0.242373  0.662257  0  4.115608  0
C  C65  1  0.52697812  0.87010065  0.18121285  1  1.584848  0  0.242353  0.662248  0  4.115676  0
C  C66  1  0.02133292  0.98816514  0.82682242  1  1.609137  0  0.238642  0.651712  0  4.154382  0
C  C67  1  0.97867320  0.01181965  0.17318532  1  1.608954  0  0.238569  0.651692  0  4.154223  0
C  C68  1  0.23161653  0.07333297  0.57331840  1  0.49227  0  0.043471  0.091879  0  3.999241  0
C  C69  1  0.76837996  0.92667419  0.42668446  1  0.492552  0  0.043471  0.091961  0  3.999203  0
C  C70  1  0.19454468  0.05108833  0.67973222  1  -0.037438  0  -0.072307  -0.129756  0  3.907377  0
C  C71  1  0.80546205  0.94890621  0.32027444  1  -0.037332  0  -0.0722  -0.129479  0  3.907285  0
C  C72  1  0.07226715  0.00782132  0.71523867  1  -0.038184  0  0.000285  0.003729  0  3.944843  0
C  C73  1  0.92774229  0.99216642  0.28476941  1  -0.038204  0  0.000189  0.00347  0  3.945216  0
C  C74  1  0.99489606  0.98727462  0.64349132  1  -0.018516  0  -0.076091  -0.163013  0  3.915738  0
C  C75  1  0.00511512  0.01271020  0.35651767  1  -0.018924  0  -0.076096  -0.16297  0  3.915965  0
C  C76  1  0.04057271  0.01100278  0.53863930  1  0.515886  0  0.115623  0.167208  0  4.009063  0
C  C77  1  0.95943253  0.98899370  0.46136603  1  0.476653  0  0.115555  0.167277  0  4.008938  0
C  C78  1  0.27293969  0.21235039  0.13695003  1  1.357948  0  0.178563  0.306525  0  4.09367  0
C  C79  1  0.72703997  0.78765092  0.86305702  1  1.357435  0  0.178497  0.306345  0  4.093526  0
C  C80  1  0.39385866  0.38883077  0.08723996  1  0.210249  0  -0.131066  -0.270832  0  3.865446  0
C  C81  1  0.60612863  0.61116464  0.91276133  1  0.21014  0  -0.131165  -0.271003  0  3.865638  0
C  C82  1  0.30345323  0.29561178  0.27154873  1  0.257665  0  -0.128651  -0.273328  0  3.886836  0
C  C83  1  0.69653335  0.70439440  0.72845563  1  0.257383  0  -0.128733  -0.273446  0  3.886924  0
N  N84  1  0.18972366  0.50707643  0.48984433  1  -1.194703  0  -0.312164  -0.297035  0  3.310209  0
N  N85  1  0.81028935  0.49292975  0.51015443  1  -1.194431  0  -0.312273  -0.297009  0  3.309847  0
N  N86  1  0.53749586  0.31975392  0.48066425  1  -1.216984  0  -0.3152  -0.301311  0  3.317973  0
N  N87  1  0.46251691  0.68024929  0.51933108  1  -1.217188  0  -0.315233  -0.30142  0  3.317987  0
N  N88  1  0.15753209  0.05462942  0.50339592  1  -1.210399  0  -0.313576  -0.303827  0  3.325267  0
N  N89  1  0.84246440  0.94537775  0.49660695  1  -1.210521  0  -0.313572  -0.303886  0  3.325245  0
N  N90  1  0.32133763  0.29558983  0.16346333  1  -1.210557  0  -0.274625  0.041816  0  3.71488  0
N  N91  1  0.67864432  0.70441050  0.83654247  1  -1.209777  0  -0.274499  0.042021  0  3.714867  0
O  O92  1  0.39691244  0.66642057  0.12370957  1  -1.16412  0  -0.297851  -0.517529  0  2.148743  0
O  O93  1  0.60308746  0.33358552  0.87628313  1  -1.164111  0  -0.297886  -0.517581  0  2.14871  0
O  O94  1  0.19447566  0.81529402  0.10378997  1  -1.208934  0  -0.390367  -0.681098  0  2.347384  0
O  O95  1  0.80552084  0.18470526  0.89620591  1  -1.208863  0  -0.390478  -0.681186  0  2.347204  0
O  O96  1  0.57960406  0.05211777  0.87627265  1  -1.217327  0  -0.412763  -0.717493  0  2.403813  0
O  O97  1  0.42039396  0.94787955  0.12372234  1  -1.217286  0  -0.412776  -0.71752  0  2.403904  0
O  O98  1  0.35063423  0.14653876  0.85352672  1  -1.174859  0  -0.37938  -0.630804  0  2.256887  0
O  O99  1  0.64936815  0.85346935  0.14647187  1  -1.17493  0  -0.379388  -0.630813  0  2.256963  0
O  O100  1  0.90257526  0.96149577  0.84965425  1  -1.197073  0  -0.381066  -0.669872  0  2.347033  0
O  O101  1  0.09742863  0.03848996  0.15035031  1  -1.197268  0  -0.380984  -0.669772  0  2.346958  0
O  O102  1  0.09818177  0.00158916  0.89115879  1  -1.203322  0  -0.410452  -0.671144  0  2.387626  0
O  O103  1  0.90182034  0.99839952  0.10884856  1  -1.202951  0  -0.41043  -0.671098  0  2.387366  0
O  O104  1  0.05579021  0.22251583  0.92457352  1  -1.243168  0  -0.626423  -0.830886  0  2.076379  0
O  O105  1  0.94420849  0.77747467  0.07542299  1  -1.244465  0  -0.626387  -0.830811  0  2.076386  0
O  O106  1  0.39869533  0.87181169  0.94523050  1  -1.282819  0  -0.644723  -0.853832  0  2.098788  0
O  O107  1  0.60130301  0.12819246  0.05476441  1  -1.282926  0  -0.644748  -0.8539  0  2.098674  0
O  O108  1  0.28226037  0.20585665  0.04554782  1  -1.179615  0  -0.353787  -0.544873  0  2.345405  0
O  O109  1  0.71772453  0.79413983  0.95446210  1  -1.179885  0  -0.353771  -0.544785  0  2.345136  0
