# generated using pymatgen
data_CuH8C4(N4Cl)2
_symmetry_space_group_name_H-M   'P 1'
_cell_length_a   6.69784729
_cell_length_b   7.13431264
_cell_length_c   10.88456977
_cell_angle_alpha   103.61947710
_cell_angle_beta   89.99830337
_cell_angle_gamma   89.99969372
_symmetry_Int_Tables_number   1
_chemical_formula_structural   CuH8C4(N4Cl)2
_chemical_formula_sum   'Cu2 H16 C8 N16 Cl4'
_cell_volume   505.48903826
_cell_formula_units_Z   2
loop_
 _symmetry_equiv_pos_site_id
 _symmetry_equiv_pos_as_xyz
  1  'x, y, z'
loop_
 _atom_site_type_symbol
 _atom_site_label
 _atom_site_symmetry_multiplicity
 _atom_site_fract_x
 _atom_site_fract_y
 _atom_site_fract_z
 _atom_site_occupancy
 _atom_site_hle17_ddec_charge
 _atom_site_hle17_ddec_spin_density
 _atom_site_hle17_ddec_sum_bond_order
 _atom_site_hle17_magmom
 _atom_site_hse06_10hf_ddec_charge
 _atom_site_hse06_10hf_ddec_spin_density
 _atom_site_hse06_10hf_ddec_sum_bond_order
 _atom_site_hse06_10hf_magmom
 _atom_site_hse06_ddec_charge
 _atom_site_hse06_ddec_spin_density
 _atom_site_hse06_ddec_sum_bond_order
 _atom_site_hse06_magmom
 _atom_site_pbe_cm5_charge
 _atom_site_pbe_ddec_charge
 _atom_site_pbe_ddec_spin_density
 _atom_site_pbe_ddec_sum_bond_order
 _atom_site_pbe_magmom
Cu  Cu0  1  0.00000008  0.99999762  0.49999791  1  0.749496  0.63261  1.924982  0.444  0.748806  0.738859  2.303984  0.567  0.844035  0.829132  2.22395  0.66  0.594444  0.696248  0.667236  2.354739  0.501
Cu  Cu1  1  0.50000744  0.49999270  0.50000138  1  0.749573  -0.632607  1.924889  -0.444  0.748831  -0.738845  2.30386  -0.567  0.844034  -0.829135  2.22383  -0.66  0.594469  0.696306  -0.667198  2.354601  -0.501
H  H2  1  0.46019110  0.07649639  0.60550089  1  0.127752  1e-05  0.968225  0.0  0.136165  9.5e-05  1.031946  0.0  0.139669  8.9e-05  1.027253  0.0  0.12981  0.133549  9.7e-05  1.035236  0.0
H  H3  1  0.96020298  0.42349872  0.39450759  1  0.127669  -9e-06  0.968344  0.0  0.136126  -9.5e-05  1.031999  0.0  0.139635  -8.8e-05  1.027312  0.0  0.129764  0.133508  -9.7e-05  1.035287  0.0
H  H4  1  0.53981184  0.92348621  0.39449316  1  0.127744  1.1e-05  0.968392  0.0  0.136199  9.5e-05  1.032024  0.0  0.1397  8.8e-05  1.027338  0.0  0.129805  0.133581  9.7e-05  1.035321  0.0
H  H5  1  0.03980742  0.57649969  0.60549448  1  0.127659  -1e-05  0.968302  0.0  0.136091  -9.5e-05  1.031979  0.0  0.139594  -8.9e-05  1.027286  0.0  0.129752  0.133471  -9.7e-05  1.03527  0.0
H  H6  1  0.58039851  0.21450493  0.94433225  1  0.116621  7.8e-05  0.949718  0.0  0.128736  4.3e-05  1.025181  0.0  0.129983  3.5e-05  1.02398  0.0  0.109819  0.127632  6.5e-05  1.02628  0.0
H  H7  1  0.08044257  0.28546615  0.05567655  1  0.11663  -8e-05  0.949597  0.0  0.128725  -4.3e-05  1.025105  0.0  0.129982  -3.5e-05  1.023875  0.0  0.109809  0.127613  -6.5e-05  1.026226  0.0
H  H8  1  0.41959547  0.78549930  0.05566615  1  0.11663  7.9e-05  0.949619  0.0  0.128758  4.3e-05  1.02512  0.0  0.13001  3.5e-05  1.023898  0.0  0.109858  0.127647  6.5e-05  1.026241  0.0
H  H9  1  0.91956037  0.71454245  0.94431886  1  0.116593  -7.8e-05  0.949707  0.0  0.128705  -4.4e-05  1.025178  0.0  0.129952  -3.5e-05  1.023974  0.0  0.109815  0.127598  -6.5e-05  1.02629  0.0
H  H10  1  0.61973591  0.95918153  0.88732651  1  0.118382  6.3e-05  0.932151  0.0  0.136592  4.6e-05  0.999073  0.0  0.137003  4.2e-05  0.999208  0.0  0.110949  0.13616  4.1e-05  0.999113  0.0
H  H11  1  0.11976308  0.54080374  0.11265314  1  0.11842  -6.5e-05  0.93209  0.0  0.136655  -4.6e-05  0.998933  0.0  0.137068  -4.1e-05  0.999067  0.0  0.110951  0.13622  -4.1e-05  0.998987  0.0
H  H12  1  0.38025509  0.04082555  0.11267601  1  0.118344  6.4e-05  0.932101  0.0  0.136628  4.6e-05  0.998955  0.0  0.137039  4.2e-05  0.99909  0.0  0.110925  0.136198  4.1e-05  0.998996  0.0
H  H13  1  0.88022642  0.45921199  0.88735075  1  0.118403  -6.3e-05  0.932106  0.0  0.136632  -4.6e-05  0.998982  0.0  0.137047  -4.1e-05  0.999114  0.0  0.110932  0.1362  -4.1e-05  0.999034  0.0
H  H14  1  0.69666234  0.11990745  0.79351083  1  0.125687  -0.000386  0.980899  0.0  0.140017  -0.00026  1.053349  0.0  0.14235  -0.000223  1.05129  0.0  0.104006  0.138111  -0.000266  1.055096  0.0
H  H15  1  0.19670569  0.38010163  0.20649362  1  0.125562  0.000384  0.980906  0.0  0.139897  0.000259  1.053352  0.0  0.142231  0.000222  1.051292  0.0  0.103955  0.137993  0.000266  1.055104  0.0
H  H16  1  0.30333314  0.88008950  0.20649285  1  0.125648  -0.000386  0.980862  0.0  0.139999  -0.00026  1.053313  0.0  0.142331  -0.000222  1.051254  0.0  0.104003  0.138095  -0.000266  1.055068  0.0
H  H17  1  0.80330172  0.61990836  0.79350661  1  0.125569  0.000387  0.980863  0.0  0.139916  0.00026  1.053312  0.0  0.14225  0.000222  1.051252  0.0  0.103959  0.138014  0.000266  1.055066  0.0
C  C18  1  0.34991072  0.06598088  0.67642609  1  0.168943  -0.003048  3.605797  -0.003  0.091407  -6.1e-05  3.864437  0.0  0.105761  -0.000936  3.877702  -0.001  0.174522  0.082511  0.000631  3.855706  0.001
C  C19  1  0.84993041  0.43400663  0.32357492  1  0.16922  0.003039  3.605984  0.002  0.091556  6.3e-05  3.864619  0.0  0.105893  0.000937  3.877892  0.001  0.174511  0.082663  -0.000631  3.855894  -0.001
C  C20  1  0.65008774  0.93400451  0.32357759  1  0.168888  -0.003055  3.605749  -0.003  0.09131  -6.1e-05  3.86446  0.0  0.105665  -0.000937  3.877725  -0.001  0.174437  0.082405  0.00063  3.855741  0.001
C  C21  1  0.15007850  0.56598600  0.67642807  1  0.168999  0.003041  3.606276  0.002  0.091462  6.1e-05  3.864845  0.0  0.105816  0.000935  3.87811  0.001  0.174542  0.082561  -0.000631  3.856117  -0.001
C  C22  1  0.58443672  0.09416346  0.86059934  1  -0.195152  0.000341  3.608129  0.0  -0.314567  0.000217  3.851115  0.0  -0.311795  0.00017  3.857785  0.0  -0.128193  -0.315915  0.000257  3.846756  0.0
C  C23  1  0.08448905  0.40583945  0.13939974  1  -0.194943  -0.000328  3.607725  0.0  -0.314489  -0.000217  3.850781  0.0  -0.311715  -0.00017  3.857455  0.0  -0.128219  -0.315795  -0.000257  3.846316  0.0
C  C24  1  0.41555427  0.90583641  0.13940113  1  -0.19503  0.000337  3.608036  0.0  -0.314592  0.000217  3.851172  0.0  -0.311815  0.00017  3.857852  0.0  -0.128214  -0.315898  0.000257  3.846708  0.0
C  C25  1  0.91551538  0.59417775  0.86060163  1  -0.194927  -0.000342  3.607823  0.0  -0.314456  -0.000216  3.850972  0.0  -0.311687  -0.00017  3.857647  0.0  -0.12822  -0.315737  -0.000257  3.846451  0.0
N  N26  1  0.39123892  0.07637322  0.79807868  1  0.080527  0.001877  3.544826  0.002  0.206837  0.001126  3.731623  0.001  0.1978  0.001092  3.750585  0.001  -0.120001  0.212522  0.00115  3.718532  0.001
N  N27  1  0.89126906  0.42361967  0.20192427  1  0.080493  -0.001875  3.544741  -0.002  0.206984  -0.001124  3.731396  -0.001  0.197948  -0.001092  3.75036  -0.001  -0.119718  0.212672  -0.001149  3.718318  -0.001
N  N28  1  0.60875207  0.92362959  0.20191673  1  0.080534  0.001878  3.544655  0.002  0.20685  0.001126  3.731553  0.001  0.19781  0.001093  3.750517  0.001  -0.11996  0.212538  0.00115  3.718477  0.001
N  N29  1  0.10873686  0.57638027  0.79806886  1  0.080674  -0.001866  3.54493  -0.002  0.206992  -0.001123  3.731731  -0.001  0.197959  -0.001091  3.750689  -0.001  -0.119723  0.212679  -0.001149  3.718661  -0.001
N  N30  1  0.21796987  0.06345212  0.86037035  1  -0.109845  0.004737  2.834968  0.006  -0.122249  0.003423  3.106776  0.004  -0.122094  0.00231  3.115826  0.003  -0.069683  -0.122039  0.004376  3.100739  0.005
N  N31  1  0.71800439  0.43653947  0.13963003  1  -0.110016  -0.00475  2.834677  -0.006  -0.122472  -0.003425  3.106454  -0.004  -0.12232  -0.002312  3.115506  -0.003  -0.069841  -0.122266  -0.004377  3.100415  -0.005
N  N32  1  0.78202710  0.93655644  0.13962873  1  -0.110016  0.004755  2.834972  0.006  -0.12241  0.003422  3.106787  0.004  -0.122247  0.00231  3.115828  0.003  -0.069765  -0.122208  0.004376  3.100753  0.005
N  N33  1  0.28198959  0.56346616  0.86037227  1  -0.110069  -0.004765  2.834569  -0.006  -0.122491  -0.003421  3.106419  -0.004  -0.12234  -0.002309  3.115469  -0.003  -0.069877  -0.122289  -0.004377  3.100384  -0.005
N  N34  1  0.07481699  0.04610254  0.77776716  1  -0.033636  -0.002396  2.915073  -0.002  -0.028561  -0.000471  3.218755  0.0  -0.023619  -0.000879  3.230491  -0.001  -0.068875  -0.031401  -7.6e-05  3.211644  0.0
N  N35  1  0.57484587  0.45389463  0.22223669  1  -0.033564  0.002414  2.914885  0.002  -0.028521  0.000467  3.218557  0.0  -0.023585  0.000875  3.230289  0.001  -0.068856  -0.031355  7.5e-05  3.211454  0.0
N  N36  1  0.92518146  0.95390459  0.22222986  1  -0.033535  -0.002419  2.91493  -0.002  -0.02847  -0.000467  3.218625  0.0  -0.023532  -0.000876  3.23036  -0.001  -0.068849  -0.031313  -7.5e-05  3.211516  0.0
N  N37  1  0.42515259  0.54610664  0.77776859  1  -0.033602  0.002421  2.91485  0.002  -0.028552  0.00047  3.218537  0.0  -0.023609  0.000878  3.230275  0.001  -0.068824  -0.031395  7.5e-05  3.211427  0.0
N  N38  1  0.15304341  0.04690290  0.66265070  1  -0.257636  0.062149  3.28653  0.077  -0.215809  0.048344  3.608511  0.063  -0.247491  0.041661  3.629605  0.057  -0.252531  -0.198033  0.051225  3.596881  0.065
N  N39  1  0.65306225  0.45308783  0.33734979  1  -0.257884  -0.062153  3.28674  -0.077  -0.215954  -0.048344  3.608748  -0.063  -0.247614  -0.041659  3.629811  -0.057  -0.252586  -0.198205  -0.051231  3.597149  -0.065
N  N40  1  0.84696102  0.95309123  0.33734610  1  -0.257546  0.062158  3.286545  0.077  -0.215698  0.048343  3.608546  0.063  -0.247377  0.04166  3.629634  0.057  -0.252428  -0.197919  0.051227  3.596915  0.065
N  N41  1  0.34694367  0.54690049  0.66265068  1  -0.257683  -0.062146  3.28666  -0.077  -0.215793  -0.048348  3.608599  -0.063  -0.247471  -0.041662  3.629677  -0.057  -0.252581  -0.19802  -0.051228  3.596974  -0.065
Cl  Cl42  1  0.21390596  0.75151682  0.41445857  1  -0.516407  0.124174  1.052167  0.142  -0.532969  0.083149  1.366721  0.101  -0.569585  0.065743  1.342867  0.082  -0.287018  -0.51125  0.092079  1.384275  0.109
Cl  Cl43  1  0.71390876  0.74847177  0.58553828  1  -0.516362  -0.124172  1.052141  -0.142  -0.532928  -0.083151  1.366696  -0.101  -0.569542  -0.065737  1.342838  -0.082  -0.287019  -0.511211  -0.09209  1.384255  -0.109
Cl  Cl44  1  0.78609698  0.24847876  0.58553845  1  -0.516425  0.124171  1.052237  0.142  -0.532968  0.083144  1.366775  0.101  -0.569584  0.065736  1.342921  0.082  -0.28703  -0.511245  0.092076  1.384321  0.109
Cl  Cl45  1  0.28609716  0.25152232  0.41446310  1  -0.51638  -0.124175  1.052154  -0.142  -0.532927  -0.083153  1.366674  -0.101  -0.569544  -0.065739  1.342819  -0.082  -0.287023  -0.511204  -0.092095  1.384209  -0.109
