# generated using pymatgen
data_ZnH14C20(NO)4
_symmetry_space_group_name_H-M   'P 1'
_cell_length_a   10.76608843
_cell_length_b   15.52586805
_cell_length_c   16.22300023
_cell_angle_alpha   89.99986220
_cell_angle_beta   90.00045153
_cell_angle_gamma   89.99961250
_symmetry_Int_Tables_number   1
_chemical_formula_structural   ZnH14C20(NO)4
_chemical_formula_sum   'Zn4 H56 C80 N16 O16'
_cell_volume   2711.72102080
_cell_formula_units_Z   4
loop_
 _symmetry_equiv_pos_site_id
 _symmetry_equiv_pos_as_xyz
  1  'x, y, z'
loop_
 _atom_site_type_symbol
 _atom_site_label
 _atom_site_symmetry_multiplicity
 _atom_site_fract_x
 _atom_site_fract_y
 _atom_site_fract_z
 _atom_site_occupancy
 _atom_site_pbe_bader_charge
 _atom_site_pbe_bader_spin_density
 _atom_site_pbe_cm5_charge
 _atom_site_pbe_ddec_charge
 _atom_site_pbe_ddec_spin_density
 _atom_site_pbe_ddec_sum_bond_order
 _atom_site_pbe_magmom
Zn  Zn0  1  0.17500986  0.50000739  0.74999927  1  1.265067  0  0.693254  0.781807  0  2.407879  0
Zn  Zn1  1  0.32498488  0.99999517  0.75000218  1  1.264772  0  0.693303  0.781812  0  2.407855  0
Zn  Zn2  1  0.82498859  0.49999680  0.25000100  1  1.264854  0  0.693329  0.781849  0  2.407889  0
Zn  Zn3  1  0.67501450  0.00000386  0.24999870  1  1.264763  0  0.693308  0.78185  0  2.407851  0
H  H4  1  0.49825299  0.84657805  0.62275200  1  0.108697  0  0.106704  0.122975  0  1.019106  0
H  H5  1  0.49823642  0.15342035  0.87724825  1  0.108806  0  0.106654  0.122963  0  1.019127  0
H  H6  1  0.00175435  0.34657596  0.87724795  1  0.108702  0  0.106692  0.122973  0  1.019119  0
H  H7  1  0.00174861  0.65341774  0.62275275  1  0.108674  0  0.106707  0.12294  0  1.019029  0
H  H8  1  0.50175195  0.15341905  0.37724950  1  0.108738  0  0.106631  0.122936  0  1.019182  0
H  H9  1  0.50176295  0.84658126  0.12275325  1  0.108758  0  0.106639  0.122952  0  1.019166  0
H  H10  1  0.99823666  0.65342114  0.12274862  1  0.10884  0  0.106676  0.122964  0  1.019153  0
H  H11  1  0.99824612  0.34658000  0.37724690  1  0.108737  0  0.10665  0.122942  0  1.01915  0
H  H12  1  0.56406502  0.92946875  0.50078389  1  0.088374  0  0.105326  0.110141  0  1.00623  0
H  H13  1  0.56404974  0.07052870  0.99921486  1  0.088132  0  0.105308  0.110116  0  1.006095  0
H  H14  1  0.93594075  0.42946748  0.99920743  1  0.088401  0  0.1053  0.110078  0  1.006222  0
H  H15  1  0.93593252  0.57052818  0.50078713  1  0.088302  0  0.1053  0.110117  0  1.006161  0
H  H16  1  0.43594272  0.07052771  0.49921391  1  0.088173  0  0.105296  0.11007  0  1.006206  0
H  H17  1  0.43594964  0.92947098  0.00078232  1  0.088218  0  0.105321  0.110136  0  1.006113  0
H  H18  1  0.06405490  0.57053284  0.00078667  1  0.088195  0  0.105296  0.110064  0  1.006166  0
H  H19  1  0.06405757  0.42947472  0.49921067  1  0.088181  0  0.105306  0.110133  0  1.006152  0
H  H20  1  0.40877183  0.73684563  0.34107279  1  0.09737  0  0.103212  0.104981  0  1.005769  0
H  H21  1  0.40878231  0.26316156  0.15892823  1  0.097337  0  0.103206  0.104969  0  1.005769  0
H  H22  1  0.09121027  0.23683722  0.15892865  1  0.09734  0  0.103193  0.104939  0  1.005728  0
H  H23  1  0.09121254  0.76315732  0.34107500  1  0.097454  0  0.103255  0.105044  0  1.005716  0
H  H24  1  0.59122011  0.26315791  0.65892624  1  0.097348  0  0.103217  0.104979  0  1.005773  0
H  H25  1  0.59122357  0.73683876  0.84107265  1  0.097303  0  0.103204  0.104974  0  1.005769  0
H  H26  1  0.90877981  0.76316374  0.84106977  1  0.097234  0  0.103175  0.104928  0  1.005766  0
H  H27  1  0.90878683  0.23684686  0.65892835  1  0.097373  0  0.103219  0.104979  0  1.005759  0
H  H28  1  0.34676157  0.65024371  0.46222849  1  0.052328  0  0.104121  0.106424  0  0.99548  0
H  H29  1  0.34677074  0.34976507  0.03777282  1  0.052109  0  0.104082  0.106421  0  0.995346  0
H  H30  1  0.15322136  0.15023144  0.03777500  1  0.052096  0  0.104078  0.106472  0  0.995317  0
H  H31  1  0.15322143  0.84976152  0.46222837  1  0.052282  0  0.104123  0.106512  0  0.995346  0
H  H32  1  0.65322666  0.34975855  0.53777239  1  0.052342  0  0.10412  0.106478  0  0.995457  0
H  H33  1  0.65323607  0.65023718  0.96223053  1  0.052132  0  0.104071  0.106368  0  0.995448  0
H  H34  1  0.84676409  0.84976630  0.96222527  1  0.052076  0  0.104051  0.106392  0  0.995335  0
H  H35  1  0.84677330  0.15024331  0.53777560  1  0.052383  0  0.104124  0.106513  0  0.995382  0
H  H36  1  0.34604656  0.65759550  0.81954833  1  0.100026  0  0.139743  0.101063  0  0.982419  0
H  H37  1  0.34603889  0.34240750  0.68045050  1  0.099978  0  0.139735  0.101058  0  0.98237  0
H  H38  1  0.15396258  0.15759704  0.68045081  1  0.099979  0  0.139758  0.101036  0  0.982455  0
H  H39  1  0.15395828  0.84240237  0.81955008  1  0.099951  0  0.139793  0.101068  0  0.982379  0
H  H40  1  0.65395931  0.34240740  0.18045070  1  0.100014  0  0.13976  0.101073  0  0.982353  0
H  H41  1  0.65396327  0.65759218  0.31954915  1  0.09999  0  0.139742  0.101057  0  0.982383  0
H  H42  1  0.84604422  0.84240521  0.31954945  1  0.099981  0  0.139782  0.101087  0  0.982354  0
H  H43  1  0.84604203  0.15759537  0.18045389  1  0.10006  0  0.139757  0.101063  0  0.982432  0
H  H44  1  0.26789458  0.57737504  0.57725826  1  0.126925  0  0.123675  0.123419  0  0.998745  0
H  H45  1  0.26788712  0.42263220  0.92274015  1  0.126854  0  0.123661  0.123486  0  0.998604  0
H  H46  1  0.23211254  0.07736979  0.92274045  1  0.126724  0  0.123662  0.123482  0  0.998659  0
H  H47  1  0.23210742  0.92262410  0.57726024  1  0.126939  0  0.123709  0.1235  0  0.998635  0
H  H48  1  0.73211594  0.42262400  0.42274324  1  0.126988  0  0.123716  0.123515  0  0.998531  0
H  H49  1  0.73211132  0.57736941  0.07725888  1  0.12687  0  0.123651  0.123496  0  0.998607  0
H  H50  1  0.76788590  0.92262989  0.07726167  1  0.126756  0  0.123664  0.123434  0  0.998644  0
H  H51  1  0.76789010  0.07737429  0.42274250  1  0.126859  0  0.123675  0.123438  0  0.998671  0
H  H52  1  0.44436717  0.76885679  0.72600966  1  0.561808  0  0.307552  0.290291  0  1.011906  0
H  H53  1  0.44435887  0.23114702  0.77399215  1  0.561878  0  0.307542  0.290263  0  1.012051  0
H  H54  1  0.05564091  0.26885728  0.77399108  1  0.562209  0  0.307552  0.290279  0  1.012015  0
H  H55  1  0.05563657  0.73114196  0.72600867  1  0.561787  0  0.307611  0.290422  0  1.01187  0
H  H56  1  0.55563313  0.23114804  0.27398937  1  0.561768  0  0.307507  0.290271  0  1.01202  0
H  H57  1  0.55564143  0.76885330  0.22601058  1  0.56186  0  0.307561  0.290276  0  1.012039  0
H  H58  1  0.94435846  0.73114304  0.22600734  1  0.561818  0  0.307578  0.290316  0  1.011952  0
H  H59  1  0.94436281  0.26885514  0.27399159  1  0.561825  0  0.30753  0.290292  0  1.01197  0
C  C60  1  0.41968323  0.74083739  0.55172867  1  0.005564  0  -0.004957  0.05261  0  4.051705  0
C  C61  1  0.41967949  0.25916784  0.94826931  1  0.005423  0  -0.005045  0.052571  0  4.05181  0
C  C62  1  0.08031305  0.24083087  0.94826843  1  0.005573  0  -0.004953  0.052563  0  4.051644  0
C  C63  1  0.08031755  0.75915859  0.55173268  1  0.005421  0  -0.005007  0.052433  0  4.051992  0
C  C64  1  0.58032265  0.25916036  0.44826913  1  0.005448  0  -0.005  0.052582  0  4.051892  0
C  C65  1  0.58032453  0.74083506  0.05173219  1  0.005669  0  -0.005006  0.052575  0  4.051753  0
C  C66  1  0.91967982  0.75916752  0.05172937  1  0.005518  0  -0.004991  0.052644  0  4.051708  0
C  C67  1  0.91968183  0.24083787  0.44827128  1  0.005398  0  -0.004975  0.052663  0  4.051769  0
C  C68  1  0.48055645  0.82053325  0.56145382  1  0.003859  0  -0.08972  -0.129109  0  3.943714  0
C  C69  1  0.48054221  0.17947039  0.93854387  1  0.003767  0  -0.089585  -0.129039  0  3.943832  0
C  C70  1  0.01944742  0.32052770  0.93854125  1  0.003662  0  -0.089626  -0.129004  0  3.943646  0
C  C71  1  0.01945001  0.67946270  0.56146016  1  0.003987  0  -0.08964  -0.128887  0  3.943703  0
C  C72  1  0.51945685  0.17946385  0.43854274  1  0.00381  0  -0.089554  -0.129014  0  3.943851  0
C  C73  1  0.51946181  0.82053380  0.06145640  1  0.003612  0  -0.089581  -0.129069  0  3.943902  0
C  C74  1  0.98054359  0.67947069  0.06145532  1  0.0037  0  -0.089629  -0.129087  0  3.943819  0
C  C75  1  0.98054751  0.32053440  0.43854319  1  0.003825  0  -0.089655  -0.129107  0  3.943623  0
C  C76  1  0.51688750  0.86800822  0.49288579  1  -0.07734  0  -0.083757  -0.082537  0  3.981866  0
C  C77  1  0.51687330  0.13199330  0.00711211  1  -0.077397  0  -0.08374  -0.082482  0  3.981724  0
C  C78  1  0.98311672  0.36800540  0.00710815  1  -0.077654  0  -0.0838  -0.082445  0  3.981834  0
C  C79  1  0.98311552  0.63199002  0.49289161  1  -0.077557  0  -0.083847  -0.0827  0  3.981886  0
C  C80  1  0.48312302  0.13198888  0.50710955  1  -0.077194  0  -0.083781  -0.082471  0  3.981811  0
C  C81  1  0.48312607  0.86800766  0.99288754  1  -0.077393  0  -0.083729  -0.082444  0  3.981701  0
C  C82  1  0.01687708  0.63199492  0.99288965  1  -0.077494  0  -0.083757  -0.082394  0  3.981728  0
C  C83  1  0.01688478  0.36801094  0.50710866  1  -0.077259  0  -0.083739  -0.082526  0  3.981618  0
C  C84  1  0.49271776  0.83809572  0.41289993  1  -0.031747  0  -0.029196  -0.058808  0  4.013033  0
C  C85  1  0.49270700  0.16190334  0.08709784  1  -0.030978  0  -0.029187  -0.058841  0  4.012933  0
C  C86  1  0.00728288  0.33809498  0.08709450  1  -0.030757  0  -0.029175  -0.05891  0  4.013167  0
C  C87  1  0.00728139  0.66190126  0.41290440  1  -0.031134  0  -0.029154  -0.058685  0  4.013094  0
C  C88  1  0.50728811  0.16189816  0.58709910  1  -0.030917  0  -0.029148  -0.05878  0  4.012949  0
C  C89  1  0.50729051  0.83809376  0.91290182  1  -0.03116  0  -0.029218  -0.058886  0  4.012977  0
C  C90  1  0.99271278  0.66190663  0.91290330  1  -0.031168  0  -0.02922  -0.058914  0  4.012918  0
C  C91  1  0.99272263  0.33810035  0.58709711  1  -0.031299  0  -0.029134  -0.058668  0  4.012958  0
C  C92  1  0.43049678  0.75930222  0.40308293  1  -0.041227  0  -0.090559  -0.100842  0  4.016423  0
C  C93  1  0.43049096  0.24070101  0.09691697  1  -0.041203  0  -0.090539  -0.100808  0  4.016154  0
C  C94  1  0.06949532  0.25929793  0.09691538  1  -0.04154  0  -0.090585  -0.100775  0  4.016219  0
C  C95  1  0.06949854  0.74069478  0.40308631  1  -0.041898  0  -0.090583  -0.100876  0  4.016424  0
C  C96  1  0.56950631  0.24069488  0.59691610  1  -0.041905  0  -0.090571  -0.100786  0  4.016415  0
C  C97  1  0.56950934  0.75929803  0.90308329  1  -0.041212  0  -0.090514  -0.100771  0  4.01621  0
C  C98  1  0.93049569  0.74070239  0.90308119  1  -0.040925  0  -0.090499  -0.100772  0  4.016173  0
C  C99  1  0.93050455  0.25930554  0.59691765  1  -0.041619  0  -0.0906  -0.100822  0  4.016295  0
C  C100  1  0.39537045  0.71110974  0.47126387  1  -0.073781  0  -0.090342  -0.127858  0  3.99246  0
C  C101  1  0.39537451  0.28889558  0.02873585  1  -0.073963  0  -0.090301  -0.127853  0  3.992155  0
C  C102  1  0.10461562  0.21109902  0.02873640  1  -0.072982  0  -0.090262  -0.127897  0  3.992031  0
C  C103  1  0.10462567  0.78888966  0.47126548  1  -0.072609  0  -0.090324  -0.12792  0  3.992362  0
C  C104  1  0.60462986  0.28888929  0.52873640  1  -0.073733  0  -0.090332  -0.127951  0  3.992468  0
C  C105  1  0.60463136  0.71110667  0.97126504  1  -0.073711  0  -0.090298  -0.127802  0  3.992251  0
C  C106  1  0.89537261  0.78889550  0.97126264  1  -0.073195  0  -0.090249  -0.127811  0  3.992183  0
C  C107  1  0.89538021  0.21110937  0.52873849  1  -0.073012  0  -0.090358  -0.128068  0  3.992353  0
C  C108  1  0.37823614  0.69054069  0.62222853  1  0.350079  0  0.0863  0.107623  0  4.002618  0
C  C109  1  0.37822367  0.30946280  0.87777109  1  0.351153  0  0.086198  0.107516  0  4.002227  0
C  C110  1  0.12176990  0.19053480  0.87776993  1  0.351513  0  0.086206  0.107549  0  4.002355  0
C  C111  1  0.12177103  0.80945962  0.62223018  1  0.350731  0  0.086285  0.107668  0  4.002404  0
C  C112  1  0.62177345  0.30945899  0.37777174  1  0.35147  0  0.086286  0.107555  0  4.002544  0
C  C113  1  0.62177571  0.69053752  0.12222918  1  0.351344  0  0.086177  0.10757  0  4.002337  0
C  C114  1  0.87822297  0.80946101  0.12222726  1  0.351403  0  0.086206  0.10753  0  4.002393  0
C  C115  1  0.87822927  0.19053877  0.37777379  1  0.351367  0  0.086356  0.107664  0  4.002486  0
C  C116  1  0.34472444  0.65476612  0.75271421  1  1.031482  0  0.143407  0.146695  0  3.950976  0
C  C117  1  0.34471846  0.34524204  0.74728338  1  1.031429  0  0.143367  0.146628  0  3.950721  0
C  C118  1  0.15527823  0.15476040  0.74728248  1  1.031446  0  0.143452  0.146856  0  3.950545  0
C  C119  1  0.15527404  0.84523579  0.75271780  1  1.031427  0  0.143327  0.146727  0  3.950761  0
C  C120  1  0.65527679  0.34524065  0.24728544  1  1.031389  0  0.143374  0.146722  0  3.950704  0
C  C121  1  0.65528278  0.65475699  0.25271627  1  1.031455  0  0.143345  0.146678  0  3.950815  0
C  C122  1  0.84472022  0.84523928  0.25271656  1  1.031311  0  0.143366  0.146722  0  3.950677  0
C  C123  1  0.84472441  0.15476002  0.24728616  1  1.031215  0  0.143402  0.146771  0  3.950776  0
C  C124  1  0.30792687  0.61568256  0.62632015  1  0.400503  0  0.006023  -0.074637  0  3.932897  0
C  C125  1  0.30791734  0.38432578  0.87367601  1  0.399467  0  0.006112  -0.074623  0  3.932441  0
C  C126  1  0.19207618  0.11567248  0.87367724  1  0.399559  0  0.006034  -0.074694  0  3.932449  0
C  C127  1  0.19207664  0.88432031  0.62632323  1  0.399485  0  0.005946  -0.074783  0  3.932668  0
C  C128  1  0.69208458  0.38431776  0.37367950  1  0.399079  0  0.005998  -0.074634  0  3.932564  0
C  C129  1  0.69208296  0.61567583  0.12632302  1  0.399441  0  0.006109  -0.074666  0  3.932501  0
C  C130  1  0.80791577  0.88432140  0.12632302  1  0.399218  0  0.006071  -0.074541  0  3.932535  0
C  C131  1  0.80792088  0.11568065  0.37368135  1  0.399515  0  0.006053  -0.074569  0  3.932713  0
C  C132  1  0.53454380  0.88758151  0.33893895  1  1.559199  0  0.202034  0.567279  0  4.215533  0
C  C133  1  0.53453902  0.11241864  0.16105843  1  1.559116  0  0.202069  0.567293  0  4.215644  0
C  C134  1  0.96546023  0.38758483  0.16105556  1  1.559252  0  0.202066  0.567314  0  4.215599  0
C  C135  1  0.96545742  0.61241454  0.33894040  1  1.559216  0  0.201996  0.567175  0  4.215695  0
C  C136  1  0.46545650  0.11241430  0.66106009  1  1.559225  0  0.202034  0.567276  0  4.215583  0
C  C137  1  0.46546593  0.88758104  0.83894184  1  1.559094  0  0.202053  0.567255  0  4.215748  0
C  C138  1  0.03453914  0.61241678  0.83894224  1  1.559198  0  0.202055  0.567339  0  4.215677  0
C  C139  1  0.03454289  0.38759093  0.66105802  1  1.558616  0  0.202026  0.567202  0  4.21532  0
N  N140  1  0.28780593  0.59457322  0.70750239  1  -1.229091  0  -0.360634  -0.293451  0  3.622555  0
N  N141  1  0.28780175  0.40543586  0.79249366  1  -1.229547  0  -0.360513  -0.293261  0  3.622585  0
N  N142  1  0.21219546  0.09456582  0.79249258  1  -1.22908  0  -0.360579  -0.293399  0  3.622417  0
N  N143  1  0.21219203  0.90542945  0.70750738  1  -1.229057  0  -0.360614  -0.293408  0  3.622372  0
N  N144  1  0.71219995  0.40543161  0.29249665  1  -1.229129  0  -0.360607  -0.293453  0  3.622531  0
N  N145  1  0.71219855  0.59456446  0.20750475  1  -1.229316  0  -0.360519  -0.293273  0  3.622662  0
N  N146  1  0.78780020  0.90543257  0.20750522  1  -1.229112  0  -0.360627  -0.293508  0  3.622467  0
N  N147  1  0.78780549  0.09456830  0.29249782  1  -1.228958  0  -0.360689  -0.293547  0  3.622418  0
N  N148  1  0.40027144  0.71319241  0.70363767  1  -1.302597  0  -0.368376  -0.244887  0  3.630177  0
N  N149  1  0.40026566  0.28681291  0.79636145  1  -1.30302  0  -0.368435  -0.244993  0  3.629951  0
N  N150  1  0.09972882  0.21318876  0.79636197  1  -1.303277  0  -0.368489  -0.245099  0  3.630072  0
N  N151  1  0.09973111  0.78680640  0.70363864  1  -1.302815  0  -0.368403  -0.245066  0  3.629899  0
N  N152  1  0.59973165  0.28681113  0.29636260  1  -1.302822  0  -0.36842  -0.24502  0  3.630255  0
N  N153  1  0.59973929  0.71318999  0.20363820  1  -1.302955  0  -0.36847  -0.245114  0  3.630049  0
N  N154  1  0.90026220  0.78680834  0.20363707  1  -1.302672  0  -0.368423  -0.245042  0  3.630148  0
N  N155  1  0.90026733  0.21319134  0.29636471  1  -1.303043  0  -0.368424  -0.245038  0  3.630219  0
O  O156  1  0.51009080  0.86046176  0.26723208  1  -1.1984  0  -0.328025  -0.573587  0  2.217127  0
O  O157  1  0.51009682  0.13953335  0.23276825  1  -1.198328  0  -0.327982  -0.573557  0  2.217159  0
O  O158  1  0.98991349  0.36047057  0.23276434  1  -1.198293  0  -0.32793  -0.573522  0  2.217161  0
O  O159  1  0.98990586  0.63953061  0.26723422  1  -1.198275  0  -0.327879  -0.573468  0  2.217193  0
O  O160  1  0.48990393  0.13953341  0.73276881  1  -1.198304  0  -0.328  -0.573597  0  2.217176  0
O  O161  1  0.48991927  0.86046890  0.76723263  1  -1.198382  0  -0.327987  -0.57361  0  2.217201  0
O  O162  1  0.01008496  0.63952846  0.76723285  1  -1.198323  0  -0.327912  -0.573567  0  2.217204  0
O  O163  1  0.01009723  0.36047293  0.73276667  1  -1.198148  0  -0.327896  -0.573504  0  2.21718  0
O  O164  1  0.59786088  0.95688761  0.35259249  1  -1.164404  0  -0.329168  -0.53866  0  2.295198  0
O  O165  1  0.59785939  0.04311223  0.14740029  1  -1.164428  0  -0.329216  -0.538699  0  2.295178  0
O  O166  1  0.90213878  0.45689062  0.14740063  1  -1.164546  0  -0.329265  -0.538758  0  2.295094  0
O  O167  1  0.90214421  0.54310776  0.35259623  1  -1.164577  0  -0.329263  -0.538716  0  2.295287  0
O  O168  1  0.40213385  0.04311013  0.64740654  1  -1.164551  0  -0.329207  -0.538699  0  2.29515  0
O  O169  1  0.40214370  0.95688616  0.85259751  1  -1.164426  0  -0.329209  -0.538621  0  2.295123  0
O  O170  1  0.09786246  0.54311292  0.85260211  1  -1.164476  0  -0.329237  -0.538711  0  2.295112  0
O  O171  1  0.09785145  0.45690029  0.64740280  1  -1.164059  0  -0.329271  -0.538722  0  2.294971  0
