# generated using pymatgen
data_AgH12C15N3O4
_symmetry_space_group_name_H-M   'P 1'
_cell_length_a   7.55527545
_cell_length_b   9.55437475
_cell_length_c   10.92731271
_cell_angle_alpha   76.90522858
_cell_angle_beta   71.71036850
_cell_angle_gamma   76.47787827
_symmetry_Int_Tables_number   1
_chemical_formula_structural   AgH12C15N3O4
_chemical_formula_sum   'Ag2 H24 C30 N6 O8'
_cell_volume   718.09380406
_cell_formula_units_Z   2
loop_
 _symmetry_equiv_pos_site_id
 _symmetry_equiv_pos_as_xyz
  1  'x, y, z'
loop_
 _atom_site_type_symbol
 _atom_site_label
 _atom_site_symmetry_multiplicity
 _atom_site_fract_x
 _atom_site_fract_y
 _atom_site_fract_z
 _atom_site_occupancy
 _atom_site_pbe_bader_spin_density
 _atom_site_pbe_cm5_charge
 _atom_site_pbe_ddec_charge
 _atom_site_pbe_ddec_spin_density
 _atom_site_pbe_ddec_sum_bond_order
 _atom_site_pbe_magmom
Ag  Ag0  1  0.33840512  0.94941080  0.64643576  1  0  0.468196  0.345636  0  1.933377  0
Ag  Ag1  1  0.66159725  0.05059306  0.35356086  1  0  0.468177  0.345561  0  1.933384  0
H  H2  1  0.38740621  0.64550158  0.55437598  1  0  0.11413  0.089497  0  1.011379  0
H  H3  1  0.61259737  0.35450224  0.44562589  1  0  0.114103  0.089454  0  1.011307  0
H  H4  1  0.34301943  0.55542104  0.36887688  1  0  0.107326  0.121129  0  1.01507  0
H  H5  1  0.65698531  0.44457729  0.63112947  1  0  0.107348  0.12112  0  1.015058  0
H  H6  1  0.12362916  0.00440492  0.22827432  1  0  0.112924  0.136471  0  1.028529  0
H  H7  1  0.87637271  0.99558911  0.77172425  1  0  0.112943  0.136494  0  1.028649  0
H  H8  1  0.17107099  0.07173798  0.41908230  1  0  0.113268  0.086049  0  1.003598  0
H  H9  1  0.82892904  0.92825825  0.58091440  1  0  0.113236  0.086046  0  1.003557  0
H  H10  1  0.25998398  0.60504255  0.16851777  1  0  0.104942  0.108165  0  1.046926  0
H  H11  1  0.74002198  0.39495147  0.83148273  1  0  0.104887  0.108091  0  1.046905  0
H  H12  1  0.11607163  0.92925360  0.06733974  1  0  0.10779  0.121789  0  1.033495  0
H  H13  1  0.88393165  0.07073928  0.93266610  1  0  0.107796  0.121756  0  1.033394  0
H  H14  1  0.37622660  0.06408088  0.88684389  1  0  0.121441  0.104762  0  0.983584  0
H  H15  1  0.62376691  0.93592514  0.11315411  1  0  0.12143  0.104776  0  0.983465  0
H  H16  1  0.30866320  0.29826998  0.96927573  1  0  0.10862  0.122677  0  1.02806  0
H  H17  1  0.69132885  0.70173602  0.03072440  1  0  0.108608  0.122672  0  1.028059  0
H  H18  1  0.10807880  0.50626140  0.62988998  1  0  0.107832  0.1149  0  1.011415  0
H  H19  1  0.89191411  0.49374134  0.37010785  1  0  0.107853  0.114979  0  1.011369  0
H  H20  1  0.19902882  0.26503417  0.55660340  1  0  0.110309  0.086232  0  1.022927  0
H  H21  1  0.80096640  0.73497077  0.44339263  1  0  0.110303  0.08622  0  1.02304  0
H  H22  1  0.10323258  0.65814739  0.77019598  1  0  0.104336  0.099656  0  1.025266  0
H  H23  1  0.89676163  0.34186078  0.22980697  1  0  0.104293  0.099605  0  1.02524  0
H  H24  1  0.25876648  0.53098728  0.00827266  1  0  0.104859  0.124627  0  1.038135  0
H  H25  1  0.74123111  0.46901330  0.99172463  1  0  0.104902  0.124673  0  1.038084  0
C  C26  1  0.14952931  0.76633687  0.95103393  1  0  0.141984  0.419308  0  4.032547  0
C  C27  1  0.85047959  0.23366263  0.04896403  1  0  0.141961  0.419164  0  4.032602  0
C  C28  1  0.32667716  0.72001304  0.48055871  1  0  0.039499  0.08666  0  3.958002  0
C  C29  1  0.67332608  0.27998642  0.51944314  1  0  0.039527  0.086757  0  3.957886  0
C  C30  1  0.30354480  0.67121850  0.37685060  1  0  -0.0808  -0.172895  0  3.910663  0
C  C31  1  0.69645383  0.32877656  0.62315485  1  0  -0.080754  -0.172808  0  3.910649  0
C  C32  1  0.23225964  0.77242874  0.28056829  1  0  0.009151  0.142943  0  3.996648  0
C  C33  1  0.76774078  0.22756527  0.71943242  1  0  0.009122  0.142849  0  3.99663  0
C  C34  1  0.18150383  0.91962868  0.29756433  1  0  -0.077776  -0.1623  0  3.891385  0
C  C35  1  0.81849932  0.08036532  0.70243766  1  0  -0.077852  -0.162403  0  3.891688  0
C  C36  1  0.20737515  0.95834510  0.40460342  1  0  0.035536  0.073288  0  3.993756  0
C  C37  1  0.79262496  0.04165541  0.59540162  1  0  0.035542  0.073246  0  3.993805  0
C  C38  1  0.21946236  0.72276109  0.16746598  1  0  -0.066256  -0.074413  0  3.902437  0
C  C39  1  0.78054498  0.27722634  0.83254006  1  0  -0.06613  -0.074137  0  3.902396  0
C  C40  1  0.16223624  0.81213863  0.06665992  1  0  -0.082904  -0.173851  0  3.887464  0
C  C41  1  0.83776241  0.18786302  0.93333970  1  0  -0.083  -0.173962  0  3.887725  0
C  C42  1  0.31842525  0.16553620  0.83243372  1  0  0.048222  0.091959  0  3.918038  0
C  C43  1  0.68157491  0.83447092  0.16756456  1  0  0.048194  0.091875  0  3.918012  0
C  C44  1  0.28090791  0.29751504  0.87725007  1  0  -0.073687  -0.151367  0  3.877712  0
C  C45  1  0.71908557  0.70249097  0.12274886  1  0  -0.073713  -0.151379  0  3.877688  0
C  C46  1  0.20718766  0.42587329  0.80315602  1  0  0.008395  0.13745  0  3.994528  0
C  C47  1  0.79280604  0.57413162  0.19684398  1  0  0.008425  0.137463  0  3.994405  0
C  C48  1  0.17204162  0.41141637  0.68801353  1  0  -0.079051  -0.163334  0  3.932314  0
C  C49  1  0.82795287  0.58858527  0.31198601  1  0  -0.079049  -0.163425  0  3.932144  0
C  C50  1  0.21782596  0.27645742  0.64849222  1  0  0.037497  0.075019  0  3.970989  0
C  C51  1  0.78216942  0.72354641  0.35150673  1  0  0.037483  0.075036  0  3.970897  0
C  C52  1  0.16779078  0.57152046  0.83546143  1  0  -0.063521  -0.053767  0  3.921524  0
C  C53  1  0.83220068  0.42848227  0.16453852  1  0  -0.063474  -0.053681  0  3.921538  0
C  C54  1  0.20092051  0.61123615  0.93603921  1  0  -0.091994  -0.193743  0  3.872723  0
C  C55  1  0.79908067  0.38876660  0.06395970  1  0  -0.092017  -0.193745  0  3.872847  0
N  N56  1  0.27959840  0.86136867  0.49536174  1  0  -0.347254  -0.218745  0  3.616153  0
N  N57  1  0.72040398  0.13862861  0.50463978  1  0  -0.347211  -0.218709  0  3.616049  0
N  N58  1  0.29032157  0.15411435  0.71925213  1  0  -0.343743  -0.198507  0  3.602444  0
N  N59  1  0.70967517  0.84588948  0.28074746  1  0  -0.343705  -0.198423  0  3.602328  0
N  N60  1  0.63447898  0.72336387  0.76686129  1  0  0.087316  0.693758  0  4.455854  0
N  N61  1  0.36552223  0.27663345  0.23313406  1  0  0.087277  0.693595  0  4.455933  0
O  O62  1  0.09103830  0.86197001  0.86619891  1  0  -0.279486  -0.448505  0  2.238448  0
O  O63  1  0.90897742  0.13802947  0.13380225  1  0  -0.279466  -0.448392  0  2.238347  0
O  O64  1  0.59498059  0.72754179  0.65972051  1  0  -0.219725  -0.481745  0  2.053256  0
O  O65  1  0.40502880  0.27246211  0.34027286  1  0  -0.219706  -0.481661  0  2.053075  0
O  O66  1  0.54558044  0.81844534  0.83837231  1  0  -0.19268  -0.441154  0  1.977648  0
O  O67  1  0.45441719  0.18155525  0.16162406  1  0  -0.192603  -0.441065  0  1.97785  0
O  O68  1  0.76330955  0.62418517  0.79836417  1  0  -0.194688  -0.447656  0  1.992503  0
O  O69  1  0.23668116  0.37580882  0.20163758  1  0  -0.19474  -0.447636  0  1.992431  0
