# generated using pymatgen
data_Zn4H32C48N4O21
_symmetry_space_group_name_H-M   'P 1'
_cell_length_a   23.61440067
_cell_length_b   23.61874702
_cell_length_c   23.61612847
_cell_angle_alpha   65.86814046
_cell_angle_beta   72.81319833
_cell_angle_gamma   107.20060502
_symmetry_Int_Tables_number   1
_chemical_formula_structural   Zn4H32C48N4O21
_chemical_formula_sum   'Zn8 H64 C96 N8 O42'
_cell_volume   10088.53711771
_cell_formula_units_Z   2
loop_
 _symmetry_equiv_pos_site_id
 _symmetry_equiv_pos_as_xyz
  1  'x, y, z'
loop_
 _atom_site_type_symbol
 _atom_site_label
 _atom_site_symmetry_multiplicity
 _atom_site_fract_x
 _atom_site_fract_y
 _atom_site_fract_z
 _atom_site_occupancy
 _atom_site_pbe_bader_charge
 _atom_site_pbe_bader_spin_density
 _atom_site_pbe_cm5_charge
 _atom_site_pbe_ddec_charge
 _atom_site_pbe_ddec_spin_density
 _atom_site_pbe_ddec_sum_bond_order
 _atom_site_pbe_magmom
Zn  Zn0  1  0.05871153  0.95913903  0.48266081  1  1.315346  0  0.682217  0.964364  0  2.353858  0
Zn  Zn1  1  0.05870376  0.09958718  0.45863003  1  1.31476  0  0.682257  0.964199  0  2.353746  0
Zn  Zn2  1  0.94127507  0.98268307  0.45911115  1  1.315781  0  0.682188  0.964246  0  2.353153  0
Zn  Zn3  1  0.94128941  0.95860528  0.59959269  1  1.314839  0  0.682244  0.964184  0  2.353249  0
Zn  Zn4  1  0.94173990  0.54127346  0.01753323  1  1.315599  0  0.682047  0.964068  0  2.353052  0
Zn  Zn5  1  0.05831330  0.51755316  0.04125965  1  1.31581  0  0.682271  0.964293  0  2.353149  0
Zn  Zn6  1  0.94173374  0.40047762  0.04073448  1  1.312326  0  0.681957  0.96373  0  2.3537  0
Zn  Zn7  1  0.05829880  0.54074338  0.90044654  1  1.312495  0  0.68216  0.964264  0  2.353199  0
H  H8  1  0.91079695  0.69761799  0.19171485  1  0.069661  0  0.104257  0.111466  0  0.997068  0
H  H9  1  0.08915901  0.69149124  0.19785995  1  0.067689  0  0.104382  0.111503  0  0.996785  0
H  H10  1  0.93603754  0.84083153  0.26949544  1  0.04959  0  0.104987  0.112963  0  0.998686  0
H  H11  1  0.06379224  0.76934641  0.34107896  1  0.050021  0  0.10504  0.112951  0  0.998574  0
H  H12  1  0.08924018  0.39760461  0.71309169  1  0.065227  0  0.104325  0.111785  0  0.996628  0
H  H13  1  0.91084478  0.21310645  0.89752227  1  0.065055  0  0.104395  0.111964  0  0.996625  0
H  H14  1  0.06387100  0.29446393  0.59512862  1  0.047564  0  0.105075  0.113178  0  0.998658  0
H  H15  1  0.93609579  0.09522194  0.79445531  1  0.048216  0  0.105061  0.112982  0  0.998851  0
H  H16  1  0.61028353  0.40476591  0.15936463  1  0.050876  0  0.104918  0.112855  0  0.998751  0
H  H17  1  0.61029775  0.20551537  0.23029203  1  0.047135  0  0.104761  0.112819  0  0.998705  0
H  H18  1  0.38925344  0.28682226  0.30244227  1  0.075632  0  0.104397  0.11175  0  0.996695  0
H  H19  1  0.38922447  0.10251496  0.30813791  1  0.068432  0  0.104016  0.111246  0  0.997246  0
H  H20  1  0.38973871  0.65933022  0.90477431  1  0.050896  0  0.10488  0.112718  0  0.998687  0
H  H21  1  0.38974292  0.73026772  0.70549464  1  0.046515  0  0.104812  0.112854  0  0.998684  0
H  H22  1  0.61077752  0.80244535  0.78681234  1  0.075637  0  0.104336  0.111742  0  0.996593  0
H  H23  1  0.61073746  0.80815780  0.60249511  1  0.066751  0  0.104194  0.111493  0  0.996827  0
H  H24  1  0.85471205  0.64323785  0.15169014  1  0.026401  0  0.090376  0.123959  0  1.002601  0
H  H25  1  0.86842990  0.57797877  0.13942290  1  0.068214  0  0.0925  0.133545  0  0.997764  0
H  H26  1  0.91190701  0.66633322  0.06734384  1  0.082663  0  0.094785  0.144918  0  1.002356  0
H  H27  1  0.14534527  0.65169537  0.14328628  1  0.025238  0  0.090442  0.124193  0  1.001914  0
H  H28  1  0.13163556  0.63946825  0.07799541  1  0.068437  0  0.09258  0.133626  0  0.997448  0
H  H29  1  0.08819630  0.56735409  0.16633281  1  0.082942  0  0.094748  0.145  0  1.002506  0
H  H30  1  0.90812954  0.91726568  0.28762913  1  0.041521  0  0.09226  0.127141  0  0.996539  0
H  H31  1  0.95136542  0.96763732  0.31472517  1  0.029542  0  0.091031  0.135121  0  0.999773  0
H  H32  1  0.87674642  0.88727701  0.37861867  1  0.066831  0  0.095372  0.139685  0  0.993935  0
H  H33  1  0.09183462  0.78766806  0.41734589  1  0.042842  0  0.092281  0.127279  0  0.995963  0
H  H34  1  0.04856714  0.81472331  0.46773847  1  0.029903  0  0.091101  0.135686  0  0.99959  0
H  H35  1  0.12315958  0.87866011  0.38736222  1  0.067592  0  0.095498  0.14008  0  0.993666  0
H  H36  1  0.14535644  0.49361919  0.71148317  1  0.02421  0  0.090489  0.12413  0  1.002039  0
H  H37  1  0.13160802  0.49215141  0.79047577  1  0.03472  0  0.09247  0.133596  0  0.997742  0
H  H38  1  0.08817592  0.52080307  0.74554150  1  0.078161  0  0.094751  0.145048  0  1.002341  0
H  H39  1  0.85469304  0.21140392  0.99359847  1  0.023421  0  0.090373  0.124031  0  1.002228  0
H  H40  1  0.86838724  0.29039391  0.99212897  1  0.03617  0  0.092572  0.133619  0  0.997334  0
H  H41  1  0.91184922  0.24551946  0.02078995  1  0.077307  0  0.094706  0.144931  0  1.002375  0
H  H42  1  0.09184938  0.30417512  0.49081918  1  0.037155  0  0.092287  0.127303  0  0.996045  0
H  H43  1  0.04857099  0.23384450  0.48370591  1  0.057618  0  0.091182  0.135807  0  0.999513  0
H  H44  1  0.12317023  0.24451044  0.48948448  1  0.051244  0  0.095408  0.139915  0  0.993795  0
H  H45  1  0.90812433  0.99087683  0.80422335  1  0.035033  0  0.092171  0.127068  0  0.99644  0
H  H46  1  0.95133837  0.98373219  0.73390121  1  0.059174  0  0.090986  0.135035  0  0.999719  0
H  H47  1  0.87672992  0.98949511  0.74461351  1  0.04989  0  0.095434  0.139808  0  0.993676  0
H  H48  1  0.70508927  0.50918047  0.08246864  1  0.045134  0  0.092269  0.127363  0  0.995967  0
H  H49  1  0.78305837  0.51646498  0.03317555  1  0.049671  0  0.090552  0.135212  0  1.000936  0
H  H50  1  0.76499509  0.51009028  0.11398233  1  0.050471  0  0.095906  0.140122  0  0.992652  0
H  H51  1  0.70511976  0.19593234  0.21239296  1  0.055093  0  0.09231  0.127434  0  0.995878  0
H  H52  1  0.78306210  0.26661669  0.18379946  1  0.058127  0  0.090475  0.135011  0  1.000563  0
H  H53  1  0.76506071  0.25497652  0.12099808  1  0.0781  0  0.095877  0.140056  0  0.992699  0
H  H54  1  0.29476905  0.28835828  0.35707846  1  0.027627  0  0.090591  0.124099  0  1.002287  0
H  H55  1  0.21725139  0.20932457  0.42227091  1  0.031915  0  0.092382  0.133377  0  0.998056  0
H  H56  1  0.23351641  0.25438111  0.33392647  1  0.080712  0  0.094889  0.145053  0  1.002367  0
H  H57  1  0.29472203  0.00645543  0.34808173  1  0.026388  0  0.090493  0.124137  0  1.002115  0
H  H58  1  0.21718238  0.00794517  0.36046495  1  0.052577  0  0.092472  0.133428  0  0.998676  0
H  H59  1  0.23352842  0.97920184  0.43249497  1  0.088048  0  0.09479  0.144886  0  1.001651  0
H  H60  1  0.29493102  0.58250932  0.00918488  1  0.045057  0  0.09238  0.127584  0  0.995905  0
H  H61  1  0.21699642  0.53313316  0.01644231  1  0.054301  0  0.090468  0.135035  0  1.000715  0
H  H62  1  0.23496251  0.61392147  0.01008343  1  0.051595  0  0.095715  0.139855  0  0.992762  0
H  H63  1  0.29491346  0.71243470  0.69589227  1  0.054563  0  0.092308  0.127417  0  0.995972  0
H  H64  1  0.21696336  0.68377845  0.76659490  1  0.060975  0  0.09047  0.13504  0  1.000972  0
H  H65  1  0.23499238  0.62102932  0.75489206  1  0.078241  0  0.095886  0.140105  0  0.992477  0
H  H66  1  0.70531369  0.85712019  0.78830860  1  0.029607  0  0.090494  0.124307  0  1.00198  0
H  H67  1  0.78282469  0.92229178  0.70926356  1  0.032292  0  0.09238  0.133438  0  0.998141  0
H  H68  1  0.76652410  0.83393395  0.75434954  1  0.080365  0  0.094799  0.144835  0  1.002651  0
H  H69  1  0.70524406  0.84813114  0.50640364  1  0.025958  0  0.09047  0.124045  0  1.002226  0
H  H70  1  0.78278060  0.86050514  0.50790112  1  0.050252  0  0.092482  0.133463  0  0.998005  0
H  H71  1  0.76644964  0.93253428  0.47916436  1  0.087912  0  0.09488  0.144925  0  1.002377  0
C  C72  1  0.18061181  0.09033125  0.40968164  1  1.513301  0  0.227912  0.619031  0  4.131163  0
C  C73  1  0.99998869  0.13559731  0.36443404  1  1.641357  0  0.235269  0.614052  0  4.170036  0
C  C74  1  0.99995041  0.90944505  0.40944511  1  1.490401  0  0.228457  0.621816  0  4.131122  0
C  C75  1  0.81938496  0.90968677  0.59029429  1  1.512489  0  0.227603  0.618633  0  4.131269  0
C  C76  1  0.00001217  0.86441671  0.63556302  1  1.640664  0  0.235461  0.614067  0  4.169899  0
C  C77  1  0.99995921  0.09052301  0.59059477  1  1.496998  0  0.228612  0.622131  0  4.130749  0
C  C78  1  0.00003365  0.59036594  0.09037040  1  1.499249  0  0.227529  0.618482  0  4.13135  0
C  C79  1  0.99997706  0.36463698  0.13541701  1  1.64232  0  0.235278  0.616099  0  4.168808  0
C  C80  1  0.81882926  0.40943025  0.09058534  1  1.509163  0  0.227415  0.619787  0  4.130432  0
C  C81  1  0.99999236  0.40962132  0.90965024  1  1.501343  0  0.227304  0.618091  0  4.131804  0
C  C82  1  0.99999452  0.63535475  0.86459399  1  1.642116  0  0.235395  0.616339  0  4.16794  0
C  C83  1  0.18120341  0.59058991  0.90938875  1  1.51042  0  0.227601  0.619979  0  4.129336  0
C  C84  1  0.00000319  0.80551813  0.69443962  1  0.087542  0  0.018725  -0.075016  0  3.87609  0
C  C85  1  0.99998053  0.69423519  0.80570742  1  0.143975  0  0.017552  -0.077112  0  3.875316  0
C  C86  1  0.95626808  0.77579502  0.76553302  1  0.301328  0  0.103202  0.034032  0  3.876333  0
C  C87  1  0.04162572  0.72185588  0.73461300  1  0.269172  0  0.104432  0.035337  0  3.876229  0
C  C88  1  0.95834924  0.72369685  0.81973610  1  0.210876  0  0.10465  0.037819  0  3.872941  0
C  C89  1  0.04372761  0.77815402  0.68043158  1  0.259068  0  0.10353  0.03508  0  3.877214  0
C  C90  1  0.99997561  0.19448323  0.30556956  1  0.09498  0  0.018488  -0.075213  0  3.876783  0
C  C91  1  0.99995922  0.30574570  0.19431830  1  0.148012  0  0.01772  -0.077469  0  3.874933  0
C  C92  1  0.95624188  0.18046965  0.27820412  1  0.273979  0  0.103422  0.034068  0  3.877041  0
C  C93  1  0.04160768  0.31976805  0.22377309  1  0.219493  0  0.104332  0.037399  0  3.873606  0
C  C94  1  0.95832964  0.23465231  0.22191484  1  0.250284  0  0.104584  0.03768  0  3.873442  0
C  C95  1  0.04370457  0.26557327  0.27585773  1  0.279315  0  0.10355  0.034359  0  3.876781  0
C  C96  1  0.00002475  0.62781397  0.12786298  1  -0.027051  0  -0.018362  -0.174566  0  3.863858  0
C  C97  1  0.94913590  0.64798078  0.14317081  1  0.034999  0  0.006203  0.184222  0  3.942873  0
C  C98  1  0.94990925  0.68255850  0.17890865  1  -0.020276  0  -0.089038  -0.205024  0  3.912081  0
C  C99  1  0.99995732  0.69869057  0.19897467  1  0.107264  0  0.003397  0.162297  0  4.154183  0
C  C100  1  0.05004767  0.67870658  0.18278219  1  -0.020951  0  -0.088781  -0.204948  0  3.912908  0
C  C101  1  0.05088367  0.64308855  0.14808111  1  0.037227  0  0.00612  0.184121  0  3.943339  0
C  C102  1  0.99991411  0.73435104  0.23471203  1  -0.332685  0  -0.039651  -0.098776  0  4.097524  0
C  C103  1  0.99987937  0.76517610  0.26551218  1  -0.076111  0  -0.041687  -0.104518  0  4.098529  0
C  C104  1  0.99989348  0.80091411  0.30116354  1  0.050264  0  0.003929  0.16388  0  4.148603  0
C  C105  1  0.96371935  0.83889460  0.29930400  1  -0.000534  0  -0.089146  -0.205618  0  3.91558  0
C  C106  1  0.96260330  0.87414371  0.33436459  1  0.011551  0  0.005345  0.180249  0  3.945934  0
C  C107  1  0.99995587  0.87198032  0.37202592  1  0.016282  0  -0.020713  -0.177029  0  3.866146  0
C  C108  1  0.03729279  0.83431390  0.37425813  1  0.010383  0  0.005066  0.180047  0  3.945181  0
C  C109  1  0.03611306  0.79915151  0.33910680  1  -0.0003  0  -0.088838  -0.204991  0  3.914169  0
C  C110  1  0.00001183  0.37215869  0.87217516  1  0.039301  0  -0.018168  -0.17413  0  3.863602  0
C  C111  1  0.05090566  0.40775283  0.80111746  1  0.000711  0  0.006128  0.183996  0  3.943353  0
C  C112  1  0.05012441  0.37128129  0.76726874  1  -0.01324  0  -0.089005  -0.205314  0  3.912382  0
C  C113  1  0.00004668  0.30120268  0.80114244  1  0.094711  0  0.003442  0.162754  0  4.153594  0
C  C114  1  0.94995491  0.26728616  0.87122483  1  -0.012165  0  -0.089192  -0.206085  0  3.912493  0
C  C115  1  0.94913834  0.30109322  0.90773670  1  -0.001308  0  0.006372  0.1841  0  3.942951  0
C  C116  1  0.00004796  0.26552493  0.76542244  1  -0.332876  0  -0.039901  -0.098924  0  4.097285  0
C  C117  1  0.00001354  0.23471470  0.73461413  1  -0.080182  0  -0.041261  -0.103916  0  4.098297  0
C  C118  1  0.99997931  0.19899870  0.69893668  1  0.121712  0  0.004177  0.163745  0  4.149208  0
C  C119  1  0.03617240  0.23697791  0.62477997  1  -0.033824  0  -0.089081  -0.20551  0  3.915019  0
C  C120  1  0.03731801  0.20299340  0.58844652  1  -0.033756  0  0.005054  0.180263  0  3.945175  0
C  C121  1  0.99996223  0.12798935  0.62801333  1  0.140098  0  -0.020778  -0.177202  0  3.866288  0
C  C122  1  0.96261230  0.08847537  0.70302029  1  -0.031161  0  0.005224  0.180206  0  3.945994  0
C  C123  1  0.96376997  0.12484230  0.73696417  1  -0.032644  0  -0.089327  -0.205888  0  3.916196  0
C  C124  1  0.74393456  0.37197373  0.12803101  1  0.004014  0  -0.020975  -0.176478  0  3.866327  0
C  C125  1  0.70846538  0.41148718  0.12603155  1  -0.013159  0  0.005635  0.180755  0  3.94511  0
C  C126  1  0.63813727  0.37513869  0.16118387  1  -0.016388  0  -0.089037  -0.205677  0  3.91501  0
C  C127  1  0.60199269  0.30099104  0.19895814  1  0.08607  0  0.00387  0.16425  0  4.149551  0
C  C128  1  0.63814614  0.26299986  0.20062363  1  0.085008  0  -0.088893  -0.20555  0  3.915247  0
C  C129  1  0.70847699  0.29699262  0.16548336  1  -0.062804  0  0.005323  0.179948  0  3.945383  0
C  C130  1  0.53059168  0.26530339  0.23462261  1  -0.378248  0  -0.04153  -0.104469  0  4.097917  0
C  C131  1  0.46895946  0.23452312  0.26540367  1  -0.049949  0  -0.039561  -0.098727  0  4.095981  0
C  C132  1  0.39754907  0.19882778  0.30112231  1  0.076845  0  0.003083  0.161929  0  4.154253  0
C  C133  1  0.36136964  0.23267883  0.31742403  1  -0.043265  0  -0.088617  -0.204777  0  3.912765  0
C  C134  1  0.29103746  0.19883169  0.35207422  1  0.059934  0  0.005644  0.183545  0  3.943989  0
C  C135  1  0.25554787  0.12780788  0.37218715  1  -0.015879  0  -0.018326  -0.174734  0  3.86471  0
C  C136  1  0.29101675  0.09227069  0.35679281  1  0.060738  0  0.005572  0.183602  0  3.942497  0
C  C137  1  0.36134714  0.12877283  0.32105845  1  -0.056119  0  -0.088375  -0.204413  0  3.912067  0
C  C138  1  0.25609307  0.62803503  0.87194578  1  0.004216  0  -0.020973  -0.176917  0  3.866202  0
C  C139  1  0.29155753  0.62602678  0.91147666  1  -0.013886  0  0.005421  0.1804  0  3.945318  0
C  C140  1  0.36188392  0.66116405  0.87513724  1  -0.016366  0  -0.088814  -0.205197  0  3.914997  0
C  C141  1  0.39802862  0.69892454  0.80099280  1  0.082743  0  0.003448  0.163612  0  4.150475  0
C  C142  1  0.36188331  0.70059863  0.76298330  1  0.086259  0  -0.088886  -0.205667  0  3.915523  0
C  C143  1  0.29155610  0.66548320  0.79696065  1  -0.062879  0  0.005473  0.18055  0  3.945722  0
C  C144  1  0.46942179  0.73458600  0.76531157  1  -0.379086  0  -0.041028  -0.103716  0  4.098087  0
C  C145  1  0.53105478  0.76539619  0.73451654  1  -0.04667  0  -0.03985  -0.099151  0  4.096038  0
C  C146  1  0.60246067  0.80113126  0.69880953  1  0.076376  0  0.00304  0.161824  0  4.154751  0
C  C147  1  0.63865600  0.81743176  0.73265952  1  -0.040656  0  -0.088588  -0.204625  0  3.912407  0
C  C148  1  0.70898970  0.85208464  0.69880317  1  0.057817  0  0.005615  0.183479  0  3.943178  0
C  C149  1  0.74445038  0.87220275  0.62777522  1  -0.020215  0  -0.017938  -0.174644  0  3.864385  0
C  C150  1  0.70896393  0.85682307  0.59223236  1  0.056263  0  0.005612  0.183638  0  3.94354  0
C  C151  1  0.63863713  0.82107926  0.62874428  1  -0.045731  0  -0.088598  -0.204677  0  3.912492  0
C  C152  1  0.89302231  0.63298420  0.12444069  1  -0.08592  0  -0.240559  -0.41628  0  3.969529  0
C  C153  1  0.10703835  0.62444336  0.13302099  1  -0.084942  0  -0.240571  -0.416586  0  3.969042  0
C  C154  1  0.92272588  0.91377832  0.32845994  1  -0.031317  0  -0.240143  -0.410917  0  3.967596  0
C  C155  1  0.07720169  0.82847763  0.41387302  1  -0.034531  0  -0.240421  -0.412274  0  3.967089  0
C  C156  1  0.10703462  0.48257326  0.76003291  1  -0.040978  0  -0.240607  -0.416643  0  3.969083  0
C  C157  1  0.89299114  0.25997851  0.98254972  1  -0.038704  0  -0.240489  -0.416206  0  3.968892  0
C  C158  1  0.07721331  0.24873316  0.50892929  1  -0.056629  0  -0.240415  -0.412246  0  3.967383  0
C  C159  1  0.92271698  0.00896212  0.74879475  1  -0.05431  0  -0.239997  -0.410707  0  3.966948  0
C  C160  1  0.74223405  0.49098781  0.08670980  1  -0.013847  0  -0.240457  -0.41213  0  3.967318  0
C  C161  1  0.74225976  0.25127554  0.17104532  1  -0.088852  0  -0.240337  -0.41171  0  3.966677  0
C  C162  1  0.25727822  0.23984278  0.36724906  1  -0.045907  0  -0.240601  -0.416243  0  3.96965  0
C  C163  1  0.25724561  0.01748473  0.37540863  1  -0.074847  0  -0.240451  -0.416161  0  3.968815  0
C  C164  1  0.25777971  0.58669015  0.99098272  1  -0.019141  0  -0.240183  -0.411657  0  3.967006  0
C  C165  1  0.25777562  0.67105565  0.75123447  1  -0.091744  0  -0.240306  -0.41176  0  3.967281  0
C  C166  1  0.74278414  0.86727282  0.73979621  1  -0.047432  0  -0.240486  -0.416316  0  3.969631  0
C  C167  1  0.74272447  0.87545397  0.51743961  1  -0.072309  0  -0.240622  -0.416153  0  3.969393  0
N  N168  1  0.90492907  0.79819236  0.78549970  1  0.452206  0  0.062139  0.506608  0  4.276257  0
N  N169  1  0.08425611  0.69073380  0.71463228  1  0.443733  0  0.062344  0.506899  0  4.275923  0
N  N170  1  0.91572745  0.70105439  0.89349951  1  0.462626  0  0.062027  0.506249  0  4.275988  0
N  N171  1  0.09508217  0.80956007  0.60669071  1  0.465445  0  0.061794  0.506369  0  4.275402  0
N  N172  1  0.90490472  0.10673171  0.30956982  1  0.458588  0  0.061966  0.506509  0  4.276337  0
N  N173  1  0.08424828  0.39352515  0.20111808  1  0.4637  0  0.062249  0.506005  0  4.275861  0
N  N174  1  0.91570811  0.21467069  0.19076900  1  0.443592  0  0.061983  0.506078  0  4.276281  0
N  N175  1  0.09506005  0.28552492  0.29825049  1  0.455354  0  0.061612  0.506301  0  4.27485  0
O  O176  1  0.99999566  0.00000156  0.49999708  1  -1.235866  0  -0.582107  -1.036473  0  2.573692  0
O  O177  1  0.15029792  0.02333683  0.45429785  1  -1.176223  0  -0.313658  -0.546522  0  2.353035  0
O  O178  1  0.02188192  0.15165798  0.40159257  1  -1.153574  0  -0.296511  -0.519298  0  2.326273  0
O  O179  1  0.94671158  0.91416462  0.43492188  1  -1.16785  0  -0.313832  -0.549814  0  2.357102  0
O  O180  1  0.15028673  0.12699756  0.39539706  1  -1.174733  0  -0.31351  -0.546074  0  2.353232  0
O  O181  1  0.05319090  0.93494820  0.41417156  1  -1.167537  0  -0.31352  -0.549301  0  2.356237  0
O  O182  1  0.97810570  0.07657196  0.37023118  1  -1.151688  0  -0.296232  -0.518784  0  2.3265  0
O  O183  1  0.84969392  0.95433375  0.52330896  1  -1.176039  0  -0.313455  -0.546  0  2.35281  0
O  O184  1  0.97811482  0.90154200  0.65164832  1  -1.15437  0  -0.296365  -0.51875  0  2.326881  0
O  O185  1  0.84971329  0.89536400  0.62696022  1  -1.17411  0  -0.313572  -0.5462  0  2.352934  0
O  O186  1  0.02191792  0.87025744  0.57650579  1  -1.15069  0  -0.296728  -0.519566  0  2.326195  0
O  O187  1  0.05319767  0.11825941  0.53264260  1  -1.170648  0  -0.313543  -0.549322  0  2.356311  0
O  O188  1  0.94671595  0.03255758  0.61835095  1  -1.171155  0  -0.313904  -0.549996  0  2.356562  0
O  O189  1  0.00002417  0.50001867  0.99998988  1  -1.235488  0  -0.582253  -1.036659  0  2.572969  0
O  O190  1  0.97755852  0.60458610  0.04582268  1  -1.171072  0  -0.313587  -0.546265  0  2.352429  0
O  O191  1  0.05323876  0.42364861  0.09825272  1  -1.158732  0  -0.296408  -0.51976  0  2.327263  0
O  O192  1  0.84905945  0.38190723  0.06474584  1  -1.169489  0  -0.312902  -0.548321  0  2.354813  0
O  O193  1  0.02251415  0.54583730  0.10457157  1  -1.173072  0  -0.313397  -0.546217  0  2.353303  0
O  O194  1  0.84905275  0.46719126  0.08620302  1  -1.168061  0  -0.313151  -0.548746  0  2.354756  0
O  O195  1  0.94673014  0.34856229  0.12963053  1  -1.15317  0  -0.296317  -0.519705  0  2.327012  0
O  O196  1  0.97750791  0.37294315  0.97666479  1  -1.173047  0  -0.313361  -0.545989  0  2.353264  0
O  O197  1  0.05323779  0.62957362  0.84849582  1  -1.153619  0  -0.296372  -0.519718  0  2.327008  0
O  O198  1  0.02246090  0.47663297  0.87296178  1  -1.172869  0  -0.313537  -0.546208  0  2.352676  0
O  O199  1  0.94676247  0.59821243  0.92362883  1  -1.15818  0  -0.29637  -0.519764  0  2.326619  0
O  O200  1  0.15097887  0.58619731  0.96715231  1  -1.169143  0  -0.313215  -0.54871  0  2.354748  0
O  O201  1  0.15097176  0.56474353  0.88185449  1  -1.168517  0  -0.313172  -0.548795  0  2.35455  0
O  O202  1  0.85778801  0.77973116  0.77338216  1  -0.399937  0  -0.093407  -0.276093  0  1.899065  0
O  O203  1  0.91332356  0.83083725  0.81440927  1  -0.411513  0  -0.101992  -0.286328  0  1.887774  0
O  O204  1  0.05393705  0.63161187  0.72636866  1  -0.390397  0  -0.093539  -0.276352  0  1.900539  0
O  O205  1  0.14576850  0.72809566  0.68609788  1  -0.415688  0  -0.102441  -0.286624  0  1.886319  0
O  O206  1  0.94605561  0.71963969  0.92229996  1  -0.395978  0  -0.09356  -0.276745  0  1.901141  0
O  O207  1  0.85421255  0.66807448  0.91766853  1  -0.421872  0  -0.102291  -0.286529  0  1.886686  0
O  O208  1  0.14221324  0.86881318  0.57804453  1  -0.405589  0  -0.093358  -0.276144  0  1.898788  0
O  O209  1  0.08670390  0.77230114  0.58239370  1  -0.411146  0  -0.101905  -0.286202  0  1.88734  0
O  O210  1  0.85777175  0.07804404  0.36882915  1  -0.398058  0  -0.093423  -0.276137  0  1.899028  0
O  O211  1  0.91329168  0.08248078  0.27226938  1  -0.410479  0  -0.101837  -0.286165  0  1.887671  0
O  O212  1  0.05393880  0.42234450  0.21967327  1  -0.397367  0  -0.093584  -0.276367  0  1.90077  0
O  O213  1  0.14575930  0.41766376  0.16816409  1  -0.42118  0  -0.102274  -0.286427  0  1.88676  0
O  O214  1  0.94603995  0.22642339  0.13164104  1  -0.390385  0  -0.093542  -0.276583  0  1.900999  0
O  O215  1  0.85419261  0.18611973  0.22811072  1  -0.414844  0  -0.102286  -0.286494  0  1.886982  0
O  O216  1  0.14219073  0.27340613  0.27977288  1  -0.399698  0  -0.093361  -0.276321  0  1.899103  0
O  O217  1  0.08667710  0.31439696  0.33093244  1  -0.412103  0  -0.101707  -0.285949  0  1.886534  0
