# generated using pymatgen
data_KH7C6O5
_symmetry_space_group_name_H-M   'P 1'
_cell_length_a   7.88395193
_cell_length_b   9.77448540
_cell_length_c   10.12828676
_cell_angle_alpha   104.50153188
_cell_angle_beta   93.25938578
_cell_angle_gamma   94.93038213
_symmetry_Int_Tables_number   1
_chemical_formula_structural   KH7C6O5
_chemical_formula_sum   'K4 H28 C24 O20'
_cell_volume   750.35017858
_cell_formula_units_Z   4
loop_
 _symmetry_equiv_pos_site_id
 _symmetry_equiv_pos_as_xyz
  1  'x, y, z'
loop_
 _atom_site_type_symbol
 _atom_site_label
 _atom_site_symmetry_multiplicity
 _atom_site_fract_x
 _atom_site_fract_y
 _atom_site_fract_z
 _atom_site_occupancy
 _atom_site_hle17_bader_spin_density
 _atom_site_hle17_ddec_charge
 _atom_site_hle17_ddec_spin_density
 _atom_site_hle17_ddec_sum_bond_order
 _atom_site_hle17_magmom
 _atom_site_hse06_10hf_bader_spin_density
 _atom_site_hse06_10hf_ddec_charge
 _atom_site_hse06_10hf_ddec_spin_density
 _atom_site_hse06_10hf_ddec_sum_bond_order
 _atom_site_hse06_10hf_magmom
 _atom_site_hse06_bader_spin_density
 _atom_site_hse06_ddec_charge
 _atom_site_hse06_ddec_spin_density
 _atom_site_hse06_ddec_sum_bond_order
 _atom_site_hse06_magmom
 _atom_site_pbe_bader_spin_density
 _atom_site_pbe_cm5_charge
 _atom_site_pbe_ddec_charge
 _atom_site_pbe_ddec_spin_density
 _atom_site_pbe_ddec_sum_bond_order
 _atom_site_pbe_magmom
K  K0  1  0.18864833  0.25067264  0.24468376  1  0  0.927337  0  0.462167  0  0  0.880391  0  0.648926  0  0  0.894562  0  0.626725  0  0  0.773515  0.869535  0  0.665471  0
K  K1  1  0.81158482  0.74964853  0.75545262  1  0  0.927447  0  0.462237  0  0  0.880507  0  0.649041  0  0  0.89465  0  0.62686  0  0  0.773745  0.869654  0  0.665577  0
K  K2  1  0.72226915  0.22268589  0.35597186  1  0  0.940065  0  0.433757  0  0  0.895451  0  0.610902  0  0  0.90938  0  0.588427  0  0  0.750624  0.8847  0  0.627563  0
K  K3  1  0.27767821  0.77719047  0.64386405  1  0  0.939658  0  0.433791  0  0  0.894972  0  0.610953  0  0  0.908935  0  0.588447  0  0  0.749998  0.884193  0  0.627639  0
H  H4  1  0.79566924  0.93340557  0.42655517  1  0  0.404177  0  0.908256  0  0  0.368358  0  0.987464  0  0  0.383036  0  0.967262  0  0  0.297105  0.358162  0  1.001472  0
H  H5  1  0.20441020  0.06651679  0.57335528  1  0  0.403983  0  0.90853  0  0  0.368295  0  0.987546  0  0  0.382973  0  0.967344  0  0  0.297037  0.358099  0  1.001557  0
H  H6  1  0.28509217  0.39497715  0.91242341  1  0  0.395207  0  0.912005  0  0  0.36112  0  0.99589  0  0  0.374171  0  0.981334  0  0  0.292176  0.352039  0  1.004186  0
H  H7  1  0.71496076  0.60498362  0.08760796  1  0  0.395122  0  0.912304  0  0  0.361229  0  0.995754  0  0  0.374269  0  0.981146  0  0  0.292296  0.352149  0  1.004053  0
H  H8  1  0.10336802  0.29723325  0.57533178  1  0  0.422178  0  0.883331  0  0  0.386547  0  0.954945  0  0  0.398061  0  0.937964  0  0  0.293757  0.37834  0  0.967069  0
H  H9  1  0.89647509  0.70276167  0.42469013  1  0  0.42208  0  0.883476  0  0  0.38655  0  0.954975  0  0  0.39807  0  0.937986  0  0  0.293794  0.378335  0  0.96711  0
H  H10  1  0.06252290  0.45456513  0.60923772  1  0  0.41541  0  0.873558  0  0  0.387499  0  0.942819  0  0  0.397808  0  0.927541  0  0  0.299869  0.380124  0  0.953727  0
H  H11  1  0.93735532  0.54543697  0.39091542  1  0  0.415788  0  0.87267  0  0  0.387707  0  0.942292  0  0  0.398042  0  0.927007  0  0  0.299951  0.380328  0  0.953183  0
H  H12  1  0.25227530  0.46275927  0.48061328  1  0  0.403052  0  0.912685  0  0  0.3737  0  0.975314  0  0  0.385046  0  0.958593  0  0  0.277447  0.365615  0  0.987243  0
H  H13  1  0.74739119  0.53736946  0.51932144  1  0  0.403223  0  0.912393  0  0  0.37385  0  0.975061  0  0  0.3852  0  0.958336  0  0  0.277554  0.365763  0  0.986992  0
H  H14  1  0.43072969  0.48004017  0.41656056  1  0  0.40637  0  0.873328  0  0  0.384664  0  0.933244  0  0  0.394278  0  0.918618  0  0  0.30706  0.377539  0  0.944192  0
H  H15  1  0.56984222  0.52048115  0.58491743  1  0  0.406633  0  0.871831  0  0  0.385326  0  0.931922  0  0  0.394854  0  0.917415  0  0  0.307619  0.378241  0  0.942819  0
H  H16  1  0.07423762  0.69447584  0.24746609  1  0  0.084079  0  0.944497  0  0  0.090959  0  1.01029  0  0  0.093709  0  1.008902  0  0  0.106934  0.088966  0  1.011496  0
H  H17  1  0.92578971  0.30551527  0.75251939  1  0  0.084086  0  0.944599  0  0  0.090953  0  1.010409  0  0  0.093697  0  1.00903  0  0  0.106921  0.088961  0  1.011611  0
H  H18  1  0.34703178  0.76401468  0.32634340  1  0  0.096518  0  0.911071  0  0  0.107514  0  0.967781  0  0  0.110155  0  0.966323  0  0  0.115065  0.10549  0  0.969292  0
H  H19  1  0.65300736  0.23594991  0.67361241  1  0  0.09623  0  0.910932  0  0  0.107233  0  0.967712  0  0  0.109875  0  0.966248  0  0  0.114999  0.105211  0  0.969236  0
H  H20  1  0.54505481  0.88261186  0.19141257  1  0  0.072322  0  0.904953  0  0  0.08566  0  0.959098  0  0  0.087498  0  0.958522  0  0  0.110175  0.084375  0  0.95959  0
H  H21  1  0.45498291  0.11737395  0.80854927  1  0  0.072477  0  0.905152  0  0  0.085841  0  0.959206  0  0  0.087677  0  0.958637  0  0  0.11035  0.084558  0  0.959691  0
H  H22  1  0.44592723  0.62460753  0.12986469  1  0  0.090426  0  0.927974  0  0  0.099723  0  0.986898  0  0  0.10249  0  0.985661  0  0  0.107613  0.09752  0  0.988478  0
H  H23  1  0.55411955  0.37538878  0.87004959  1  0  0.090065  0  0.927969  0  0  0.099465  0  0.986871  0  0  0.102241  0  0.985607  0  0  0.107484  0.097253  0  0.988467  0
H  H24  1  0.16917649  0.55827528  0.07046384  1  0  0.093165  0  0.923433  0  0  0.103884  0  0.984022  0  0  0.106041  0  0.983414  0  0  0.113052  0.102423  0  0.984425  0
H  H25  1  0.83088091  0.44173416  0.92953095  1  0  0.093144  0  0.923624  0  0  0.103885  0  0.984167  0  0  0.106043  0  0.98356  0  0  0.113097  0.102422  0  0.984571  0
H  H26  1  0.96474490  0.73179284  0.02303033  1  0  0.064415  0  0.959655  0  0  0.073797  0  1.026201  0  0  0.075849  0  1.025081  0  0  0.099403  0.072387  0  1.026976  0
H  H27  1  0.03528245  0.26819724  0.97696182  1  0  0.064338  0  0.959573  0  0  0.073674  0  1.026257  0  0  0.075729  0  1.025138  0  0  0.099415  0.072267  0  1.027026  0
H  H28  1  0.10037822  0.94505592  0.95762057  1  0  0.088736  0  1.001213  0  0  0.097609  0  1.069753  0  0  0.100814  0  1.067944  0  0  0.104197  0.095324  0  1.071154  0
H  H29  1  0.89963811  0.05496914  0.04239540  1  0  0.088668  0  1.001207  0  0  0.097607  0  1.069686  0  0  0.100821  0  1.06786  0  0  0.104227  0.095317  0  1.07109  0
H  H30  1  0.40608703  0.03172297  0.05780880  1  0  0.089455  0  0.999596  0  0  0.100135  0  1.06395  0  0  0.102676  0  1.063189  0  0  0.10467  0.098118  0  1.065153  0
H  H31  1  0.59392005  0.96830195  0.94219005  1  0  0.089418  0  0.999627  0  0  0.100069  0  1.064027  0  0  0.102604  0  1.063272  0  0  0.104641  0.098052  0  1.065232  0
C  C32  1  0.11115740  0.79491235  0.22201170  1  0  -0.153833  0  3.525312  0  0  -0.161147  0  3.757261  0  0  -0.166879  0  3.769855  0  0  -0.075356  -0.157309  0  3.74874  0
C  C33  1  0.88888192  0.20507354  0.77796601  1  0  -0.154366  0  3.525348  0  0  -0.16161  0  3.75731  0  0  -0.167346  0  3.7699  0  0  -0.075507  -0.157758  0  3.748776  0
C  C34  1  0.30325870  0.84378948  0.27603599  1  0  -0.15561  0  3.555852  0  0  -0.163984  0  3.789266  0  0  -0.169175  0  3.801608  0  0  -0.073954  -0.160315  0  3.780939  0
C  C35  1  0.69678807  0.15618478  0.72393226  1  0  -0.154741  0  3.555199  0  0  -0.163239  0  3.788971  0  0  -0.168411  0  3.801271  0  0  -0.073837  -0.159593  0  3.78064  0
C  C36  1  0.41123147  0.84641442  0.15391336  1  0  0.024845  0  3.603851  0  0  0.015258  0  3.839915  0  0  0.016064  0  3.854295  0  0  -0.072586  0.01496  0  3.829706  0
C  C37  1  0.58881175  0.15356504  0.84604022  1  0  0.024314  0  3.604019  0  0  0.014802  0  3.840086  0  0  0.015599  0  3.854455  0  0  -0.072788  0.014508  0  3.829881  0
C  C38  1  0.39936816  0.68924779  0.06373143  1  0  -0.156428  0  3.541481  0  0  -0.162689  0  3.773238  0  0  -0.168242  0  3.786089  0  0  -0.078872  -0.158751  0  3.764754  0
C  C39  1  0.60066243  0.31074948  0.93619342  1  0  -0.155896  0  3.540917  0  0  -0.16248  0  3.772902  0  0  -0.168  0  3.785697  0  0  -0.079021  -0.158544  0  3.764418  0
C  C40  1  0.20760211  0.63889455  0.01572544  1  0  -0.164681  0  3.57917  0  0  -0.169956  0  3.808347  0  0  -0.175946  0  3.822184  0  0  -0.078699  -0.165863  0  3.798863  0
C  C41  1  0.79243173  0.36110081  0.98424546  1  0  -0.164944  0  3.57925  0  0  -0.17012  0  3.808501  0  0  -0.176117  0  3.82234  0  0  -0.078718  -0.16602  0  3.799009  0
C  C42  1  0.09830697  0.76412446  0.06236980  1  0  0.008627  0  3.623922  0  0  -0.002029  0  3.857545  0  0  -0.001649  0  3.873195  0  0  -0.083534  -0.002113  0  3.84655  0
C  C43  1  0.90171716  0.23587090  0.93762350  1  0  0.008877  0  3.624145  0  0  -0.001855  0  3.857785  0  0  -0.001495  0  3.873489  0  0  -0.083481  -0.001937  0  3.846772  0
C  C44  1  0.98309628  0.89676518  0.28455929  1  0  0.705618  0  3.757356  0  0  0.653534  0  4.063839  0  0  0.687194  0  4.054688  0  0  0.230691  0.630576  0  4.069421  0
C  C45  1  0.01695708  0.10324522  0.71541881  1  0  0.705895  0  3.757577  0  0  0.6539  0  4.063817  0  0  0.687576  0  4.054653  0  0  0.231007  0.630943  0  4.069388  0
C  C46  1  0.32222710  0.98370716  0.38634363  1  0  0.710966  0  3.803028  0  0  0.661917  0  4.107684  0  0  0.694981  0  4.098708  0  0  0.222872  0.639333  0  4.11313  0
C  C47  1  0.67779155  0.01626577  0.61362240  1  0  0.711384  0  3.802785  0  0  0.662114  0  4.107851  0  0  0.695183  0  4.098872  0  0  0.223003  0.639538  0  4.113291  0
C  C48  1  0.52118272  0.68293464  0.95052980  1  0  0.67562  0  3.850051  0  0  0.626818  0  4.15964  0  0  0.659441  0  4.151653  0  0  0.197163  0.604196  0  4.165692  0
C  C49  1  0.47884614  0.31699355  0.04935968  1  0  0.675147  0  3.849499  0  0  0.626634  0  4.158743  0  0  0.659247  0  4.150758  0  0  0.196929  0.604013  0  4.1648  0
C  C50  1  0.17532429  0.55972122  0.86545642  1  0  0.701062  0  3.766692  0  0  0.646448  0  4.078883  0  0  0.680045  0  4.069486  0  0  0.230209  0.623579  0  4.084619  0
C  C51  1  0.82465882  0.44024829  0.13452838  1  0  0.701349  0  3.76581  0  0  0.646593  0  4.078221  0  0  0.680191  0  4.068817  0  0  0.23046  0.623715  0  4.083974  0
C  C52  1  0.17284510  0.89264010  0.02175176  1  0  -0.12343  0  3.70386  0  0  -0.145255  0  3.967752  0  0  -0.14641  0  3.985258  0  0  -0.102177  -0.14426  0  3.955707  0
C  C53  1  0.82717805  0.10735842  0.97823931  1  0  -0.123359  0  3.704151  0  0  -0.145202  0  3.96799  0  0  -0.146355  0  3.985484  0  0  -0.102284  -0.144202  0  3.955943  0
C  C54  1  0.33458650  0.93706109  0.07181954  1  0  -0.119891  0  3.713162  0  0  -0.142641  0  3.975403  0  0  -0.143775  0  3.993612  0  0  -0.104072  -0.14157  0  3.963071  0
C  C55  1  0.66544605  0.06293322  0.92815601  1  0  -0.119844  0  3.713417  0  0  -0.142573  0  3.975662  0  0  -0.143724  0  3.99392  0  0  -0.104027  -0.141499  0  3.963322  0
O  O56  1  0.98026756  0.01783239  0.26494904  1  0  -0.676139  0  1.930836  0  0  -0.633525  0  2.166149  0  0  -0.656386  0  2.157712  0  0  -0.402569  -0.617437  0  2.171531  0
O  O57  1  0.01978083  0.98216736  0.73502734  1  0  -0.676642  0  1.930784  0  0  -0.634071  0  2.16616  0  0  -0.656927  0  2.157669  0  0  -0.403458  -0.617979  0  2.171554  0
O  O58  1  0.87532382  0.84497970  0.35754646  1  0  -0.596764  0  2.092786  0  0  -0.529868  0  2.311465  0  0  -0.555921  0  2.295281  0  0  -0.307002  -0.511818  0  2.322367  0
O  O59  1  0.12472622  0.15502118  0.64244308  1  0  -0.596927  0  2.092744  0  0  -0.530007  0  2.311173  0  0  -0.556069  0  2.295005  0  0  -0.30701  -0.511958  0  2.322059  0
O  O60  1  0.38696090  0.09814466  0.36913935  1  0  -0.678163  0  1.933367  0  0  -0.638382  0  2.169188  0  0  -0.659828  0  2.159093  0  0  -0.427935  -0.623183  0  2.176017  0
O  O61  1  0.61306593  0.90182741  0.63085933  1  0  -0.678786  0  1.933316  0  0  -0.638827  0  2.169184  0  0  -0.660253  0  2.159023  0  0  -0.428262  -0.623624  0  2.176024  0
O  O62  1  0.25947814  0.96785010  0.49858289  1  0  -0.660329  0  2.115474  0  0  -0.608518  0  2.356872  0  0  -0.634188  0  2.341649  0  0  -0.41048  -0.590439  0  2.366915  0
O  O63  1  0.74049426  0.03211817  0.50138053  1  0  -0.660904  0  2.115062  0  0  -0.608912  0  2.356632  0  0  -0.63458  0  2.341412  0  0  -0.410473  -0.590834  0  2.366671  0
O  O64  1  0.47317740  0.70340036  0.83748203  1  0  -0.692986  0  1.971404  0  0  -0.650395  0  2.212094  0  0  -0.673529  0  2.203532  0  0  -0.431871  -0.633965  0  2.218369  0
O  O65  1  0.52681813  0.29632888  0.16231031  1  0  -0.69223  0  1.971244  0  0  -0.64975  0  2.211679  0  0  -0.67287  0  2.203154  0  0  -0.431712  -0.63333  0  2.217933  0
O  O66  1  0.67755072  0.66298603  0.98096138  1  0  -0.671077  0  2.021934  0  0  -0.619446  0  2.262572  0  0  -0.644913  0  2.251774  0  0  -0.378993  -0.601725  0  2.270128  0
O  O67  1  0.32248241  0.33702189  0.01897005  1  0  -0.670836  0  2.022209  0  0  -0.619163  0  2.262769  0  0  -0.644639  0  2.251999  0  0  -0.378763  -0.601441  0  2.270328  0
O  O68  1  0.08525106  0.60183352  0.78089588  1  0  -0.673666  0  1.980228  0  0  -0.630006  0  2.225444  0  0  -0.652235  0  2.214056  0  0  -0.409176  -0.61432  0  2.23293  0
O  O69  1  0.91467259  0.39813447  0.21910737  1  0  -0.673536  0  1.979773  0  0  -0.62975  0  2.224971  0  0  -0.651976  0  2.213607  0  0  -0.409223  -0.61408  0  2.232444  0
O  O70  1  0.23877190  0.43767578  0.82822668  1  0  -0.560204  0  2.103067  0  0  -0.504789  0  2.330692  0  0  -0.528671  0  2.317361  0  0  -0.323383  -0.48834  0  2.33863  0
O  O71  1  0.76123689  0.56232046  0.17175647  1  0  -0.560064  0  2.103409  0  0  -0.504718  0  2.330883  0  0  -0.528586  0  2.317469  0  0  -0.323477  -0.488263  0  2.338833  0
O  O72  1  0.07924792  0.37458641  0.53075925  1  0  -0.862136  0  1.813147  0  0  -0.809681  0  1.983845  0  0  -0.829222  0  1.951857  0  0  -0.610242  -0.795782  0  2.006491  0
O  O73  1  0.92046233  0.62542454  0.46932739  1  0  -0.862014  0  1.813008  0  0  -0.809397  0  1.983868  0  0  -0.829014  0  1.951777  0  0  -0.610025  -0.795423  0  2.006527  0
O  O74  1  0.33079967  0.52881421  0.44481461  1  0  -0.874547  0  1.755585  0  0  -0.829229  0  1.90429  0  0  -0.84687  0  1.872713  0  0  -0.663248  -0.81669  0  1.927426  0
O  O75  1  0.66855317  0.47102538  0.55456179  1  0  -0.874002  0  1.755946  0  0  -0.828975  0  1.904587  0  0  -0.846575  0  1.873109  0  0  -0.661906  -0.816454  0  1.927669  0
