# generated using pymatgen
data_K2H16C14S2O11
_symmetry_space_group_name_H-M   'P 1'
_cell_length_a   6.19926763
_cell_length_b   10.40274266
_cell_length_c   16.04992285
_cell_angle_alpha   97.19128447
_cell_angle_beta   89.98385328
_cell_angle_gamma   107.30708392
_symmetry_Int_Tables_number   1
_chemical_formula_structural   K2H16C14S2O11
_chemical_formula_sum   'K4 H32 C28 S4 O22'
_cell_volume   979.66686210
_cell_formula_units_Z   2
loop_
 _symmetry_equiv_pos_site_id
 _symmetry_equiv_pos_as_xyz
  1  'x, y, z'
loop_
 _atom_site_type_symbol
 _atom_site_label
 _atom_site_symmetry_multiplicity
 _atom_site_fract_x
 _atom_site_fract_y
 _atom_site_fract_z
 _atom_site_occupancy
 _atom_site_hle17_bader_spin_density
 _atom_site_hle17_ddec_charge
 _atom_site_hle17_ddec_spin_density
 _atom_site_hle17_ddec_sum_bond_order
 _atom_site_hle17_magmom
 _atom_site_hse06_10hf_bader_spin_density
 _atom_site_hse06_10hf_ddec_charge
 _atom_site_hse06_10hf_ddec_spin_density
 _atom_site_hse06_10hf_ddec_sum_bond_order
 _atom_site_hse06_10hf_magmom
 _atom_site_hse06_bader_spin_density
 _atom_site_hse06_ddec_charge
 _atom_site_hse06_ddec_spin_density
 _atom_site_hse06_ddec_sum_bond_order
 _atom_site_hse06_magmom
 _atom_site_pbe_bader_spin_density
 _atom_site_pbe_cm5_charge
 _atom_site_pbe_ddec_charge
 _atom_site_pbe_ddec_spin_density
 _atom_site_pbe_ddec_sum_bond_order
 _atom_site_pbe_magmom
K  K0  1  0.75079213  0.97247144  0.10637961  1  0  0.935412  0  0.436015  0  0  0.886195  0  0.614145  0  0  0.900376  0  0.590868  0  0  0.785547  0.875207  0  0.631396  0
K  K1  1  0.77838166  0.02773490  0.39343497  1  0  0.935092  0  0.436388  0  0  0.885223  0  0.615629  0  0  0.899472  0  0.592218  0  0  0.78527  0.875046  0  0.631451  0
K  K2  1  0.24921585  0.02752304  0.89361693  1  0  0.935406  0  0.43604  0  0  0.886181  0  0.614201  0  0  0.900366  0  0.590917  0  0  0.785559  0.875193  0  0.631446  0
K  K3  1  0.22161717  0.97226065  0.60656602  1  0  0.935066  0  0.43645  0  0  0.885217  0  0.615661  0  0  0.899471  0  0.592244  0  0  0.785277  0.875025  0  0.631512  0
H  H4  1  0.39618360  0.78560567  0.24049836  1  0  0.400588  0  0.887937  0  0  0.376354  0  0.957311  0  0  0.386818  0  0.943559  0  0  0.310278  0.368793  0  0.966054  0
H  H5  1  0.61036249  0.21492402  0.25949329  1  0  0.399823  0  0.888188  0  0  0.375349  0  0.958097  0  0  0.385837  0  0.944747  0  0  0.310443  0.367981  0  0.966338  0
H  H6  1  0.60381676  0.21439293  0.75950412  1  0  0.400569  0  0.887892  0  0  0.376315  0  0.957289  0  0  0.386811  0  0.943546  0  0  0.310267  0.368755  0  0.966029  0
H  H7  1  0.38963191  0.78507558  0.74050739  1  0  0.399826  0  0.88824  0  0  0.375349  0  0.958167  0  0  0.385839  0  0.94477  0  0  0.310425  0.367979  0  0.96641  0
H  H8  1  0.72778122  0.42818012  0.05559353  1  0  0.120359  0  0.966709  0  0  0.132205  0  1.028449  0  0  0.135286  0  1.027072  0  0  0.110895  0.129998  0  1.029538  0
H  H9  1  0.29928086  0.57179880  0.44438652  1  0  0.120151  0  0.966683  0  0  0.132269  0  1.028114  0  0  0.135262  0  1.026884  0  0  0.110608  0.130056  0  1.029189  0
H  H10  1  0.27221581  0.57182151  0.94440669  1  0  0.120356  0  0.966708  0  0  0.132203  0  1.028441  0  0  0.135283  0  1.027069  0  0  0.110881  0.129995  0  1.029529  0
H  H11  1  0.70071474  0.42819673  0.55561323  1  0  0.120101  0  0.966704  0  0  0.132232  0  1.028128  0  0  0.135225  0  1.026899  0  0  0.110593  0.130019  0  1.029205  0
H  H12  1  0.14749244  0.56075680  0.23132093  1  0  0.106953  0  0.998816  0  0  0.11566  0  1.062981  0  0  0.117213  0  1.064895  0  0  0.099232  0.114619  0  1.061737  0
H  H13  1  0.58749914  0.44004108  0.26849617  1  0  0.106479  0  0.999422  0  0  0.115103  0  1.063871  0  0  0.116652  0  1.065746  0  0  0.098636  0.113895  0  1.062871  0
H  H14  1  0.85250205  0.43923976  0.76867952  1  0  0.106924  0  0.998856  0  0  0.115606  0  1.063058  0  0  0.117159  0  1.064971  0  0  0.099223  0.114565  0  1.061813  0
H  H15  1  0.41250477  0.55996463  0.73150748  1  0  0.106565  0  0.99935  0  0  0.115185  0  1.0638  0  0  0.11673  0  1.06568  0  0  0.09868  0.113977  0  1.062795  0
H  H16  1  0.10862799  0.31653938  0.18837517  1  0  0.108288  0  0.937056  0  0  0.119422  0  0.995061  0  0  0.123027  0  0.992455  0  0  0.112327  0.116848  0  0.996999  0
H  H17  1  0.79300136  0.68421394  0.31141878  1  0  0.108298  0  0.936366  0  0  0.119053  0  0.994976  0  0  0.122765  0  0.992259  0  0  0.112478  0.116336  0  0.996995  0
H  H18  1  0.89137236  0.68345920  0.81162481  1  0  0.108321  0  0.93704  0  0  0.119421  0  0.995078  0  0  0.123026  0  0.992472  0  0  0.112325  0.11684  0  0.99702  0
H  H19  1  0.20699881  0.31579074  0.68858229  1  0  0.108247  0  0.936438  0  0  0.11901  0  0.995033  0  0  0.122729  0  0.992307  0  0  0.112487  0.116294  0  0.997051  0
H  H20  1  0.05267438  0.60908307  0.08233800  1  0  0.073144  0  0.973003  0  0  0.090236  0  1.042691  0  0  0.089874  0  1.043608  0  0  0.092445  0.090335  0  1.042255  0
H  H21  1  0.44301220  0.39094465  0.41759142  1  0  0.072611  0  0.973154  0  0  0.089848  0  1.042738  0  0  0.089513  0  1.0436  0  0  0.09213  0.089957  0  1.042394  0
H  H22  1  0.94732799  0.39091956  0.91766042  1  0  0.073121  0  0.973032  0  0  0.090205  0  1.042734  0  0  0.089843  0  1.043649  0  0  0.092455  0.090304  0  1.042297  0
H  H23  1  0.55697939  0.60905901  0.58240833  1  0  0.072549  0  0.973217  0  0  0.089798  0  1.042784  0  0  0.089464  0  1.043646  0  0  0.092102  0.089907  0  1.042438  0
H  H24  1  0.90834572  0.61843622  0.98670742  1  0  0.076441  0  0.96997  0  0  0.092296  0  1.042019  0  0  0.091534  0  1.043806  0  0  0.09381  0.092778  0  1.040847  0
H  H25  1  0.28937770  0.38189228  0.51324315  1  0  0.076516  0  0.969153  0  0  0.092003  0  1.04187  0  0  0.091259  0  1.043615  0  0  0.093664  0.092484  0  1.040744  0
H  H26  1  0.09165020  0.38156640  0.01329039  1  0  0.076467  0  0.969957  0  0  0.092255  0  1.042079  0  0  0.09149  0  1.043873  0  0  0.093789  0.092737  0  1.040909  0
H  H27  1  0.71062255  0.61810933  0.48675519  1  0  0.076537  0  0.969154  0  0  0.091999  0  1.0419  0  0  0.091257  0  1.043644  0  0  0.093664  0.092479  0  1.040777  0
H  H28  1  0.09799642  0.76862227  0.04284705  1  0  0.119887  0  0.931896  0  0  0.137556  0  0.989776  0  0  0.139586  0  0.987579  0  0  0.120321  0.135996  0  0.991478  0
H  H29  1  0.32898963  0.23158216  0.45722722  1  0  0.119498  0  0.932382  0  0  0.137497  0  0.989882  0  0  0.139472  0  0.987773  0  0  0.120517  0.135936  0  0.991488  0
H  H30  1  0.90200102  0.23138341  0.95715286  1  0  0.119928  0  0.931908  0  0  0.137608  0  0.989754  0  0  0.139637  0  0.987564  0  0  0.120335  0.136048  0  0.991457  0
H  H31  1  0.67100655  0.76841130  0.54276863  1  0  0.119422  0  0.932385  0  0  0.137435  0  0.989884  0  0  0.139411  0  0.987775  0  0  0.12052  0.135874  0  0.99149  0
H  H32  1  0.16582189  0.06358451  0.22820547  1  0  0.415427  0  0.88597  0  0  0.389293  0  0.942536  0  0  0.399002  0  0.928044  0  0  0.28849  0.382461  0  0.952754  0
H  H33  1  0.10270579  0.93656315  0.27184371  1  0  0.416836  0  0.883976  0  0  0.390346  0  0.94107  0  0  0.400062  0  0.926589  0  0  0.289133  0.383492  0  0.951299  0
H  H34  1  0.83418126  0.93640999  0.77179295  1  0  0.415476  0  0.885902  0  0  0.389346  0  0.942465  0  0  0.399057  0  0.927969  0  0  0.288507  0.382514  0  0.952681  0
H  H35  1  0.89730042  0.06343747  0.72815830  1  0  0.41692  0  0.883883  0  0  0.390431  0  0.940976  0  0  0.400147  0  0.926493  0  0  0.28919  0.383574  0  0.951207  0
C  C36  1  0.41804912  0.35950231  0.11994343  1  0  -0.132864  0  3.813653  0  0  -0.111328  0  4.071389  0  0  -0.117033  0  4.090826  0  0  -0.035175  -0.107675  0  4.058608  0
C  C37  1  0.05891878  0.64087661  0.37996329  1  0  -0.13203  0  3.810375  0  0  -0.109973  0  4.067358  0  0  -0.115816  0  4.086924  0  0  -0.034781  -0.106483  0  4.054504  0
C  C38  1  0.58194478  0.64049628  0.88005780  1  0  -0.132857  0  3.813449  0  0  -0.111358  0  4.071255  0  0  -0.117049  0  4.090652  0  0  -0.035226  -0.107707  0  4.058479  0
C  C39  1  0.94107977  0.35912806  0.62003654  1  0  -0.132003  0  3.810331  0  0  -0.109939  0  4.067311  0  0  -0.115781  0  4.086879  0  0  -0.034771  -0.106454  0  4.054465  0
C  C40  1  0.60255195  0.45910120  0.09382762  1  0  -0.183497  0  3.762589  0  0  -0.217426  0  4.016587  0  0  -0.218935  0  4.036433  0  0  -0.103943  -0.216342  0  4.003518  0
C  C41  1  0.14341165  0.54107634  0.40607021  1  0  -0.183457  0  3.763744  0  0  -0.217893  0  4.01776  0  0  -0.219324  0  4.037696  0  0  -0.103957  -0.216756  0  4.004722  0
C  C42  1  0.39744568  0.54089839  0.90617244  1  0  -0.183523  0  3.76259  0  0  -0.21741  0  4.016638  0  0  -0.218919  0  4.036482  0  0  -0.103897  -0.216325  0  4.003569  0
C  C43  1  0.85658497  0.45892124  0.59393094  1  0  -0.183361  0  3.763695  0  0  -0.217797  0  4.017713  0  0  -0.21923  0  4.037655  0  0  -0.103875  -0.216658  0  4.004678  0
C  C44  1  0.25274177  0.39459089  0.16882303  1  0  -0.075147  0  3.794507  0  0  -0.106155  0  4.059637  0  0  -0.1034  0  4.075141  0  0  -0.097913  -0.107943  0  4.049314  0
C  C45  1  0.85868059  0.60605370  0.33108546  1  0  -0.074729  0  3.791585  0  0  -0.105388  0  4.05636  0  0  -0.102711  0  4.07193  0  0  -0.09803  -0.107136  0  4.046076  0
C  C46  1  0.74726240  0.60540565  0.83117679  1  0  -0.075163  0  3.794451  0  0  -0.106125  0  4.05959  0  0  -0.10337  0  4.075094  0  0  -0.097872  -0.107901  0  4.049256  0
C  C47  1  0.14132976  0.39395199  0.66891569  1  0  -0.074638  0  3.791445  0  0  -0.105311  0  4.056212  0  0  -0.10264  0  4.071782  0  0  -0.098076  -0.107059  0  4.045932  0
C  C48  1  0.27477533  0.53154722  0.19315184  1  0  -0.20435  0  3.7879  0  0  -0.22242  0  4.045027  0  0  -0.227144  0  4.065044  0  0  -0.112218  -0.21919  0  4.031615  0
C  C49  1  0.74367865  0.46913099  0.30676904  1  0  -0.204064  0  3.790062  0  0  -0.221782  0  4.047004  0  0  -0.226524  0  4.06712  0  0  -0.111893  -0.218694  0  4.033944  0
C  C50  1  0.72522884  0.46844933  0.80684798  1  0  -0.2042  0  3.78812  0  0  -0.222309  0  4.045204  0  0  -0.227032  0  4.065224  0  0  -0.112192  -0.219078  0  4.031788  0
C  C51  1  0.25632898  0.53087570  0.69322970  1  0  -0.204125  0  3.790116  0  0  -0.221861  0  4.047042  0  0  -0.226601  0  4.067162  0  0  -0.111928  -0.218771  0  4.033979  0
C  C52  1  0.62396699  0.59610782  0.11820586  1  0  0.167084  0  3.783723  0  0  0.15943  0  4.04103  0  0  0.165663  0  4.058543  0  0  0.077673  0.155033  0  4.029007  0
C  C53  1  0.02769798  0.40411094  0.38173369  1  0  0.165339  0  3.785137  0  0  0.157888  0  4.041963  0  0  0.164116  0  4.059538  0  0  0.076644  0.153181  0  4.030392  0
C  C54  1  0.37603217  0.40389483  0.88179505  1  0  0.167292  0  3.783755  0  0  0.159491  0  4.041158  0  0  0.165725  0  4.058673  0  0  0.077694  0.155089  0  4.029137  0
C  C55  1  0.97229864  0.59588664  0.61826809  1  0  0.165381  0  3.784865  0  0  0.157867  0  4.041746  0  0  0.164092  0  4.059329  0  0  0.076627  0.153154  0  4.030173  0
C  C56  1  0.46014592  0.63293964  0.16966082  1  0  0.246678  0  3.819129  0  0  0.23479  0  4.083102  0  0  0.244335  0  4.097593  0  0  0.079204  0.228136  0  4.073155  0
C  C57  1  0.82721609  0.36750378  0.33025980  1  0  0.247187  0  3.819807  0  0  0.234639  0  4.084163  0  0  0.244216  0  4.0987  0  0  0.079426  0.227926  0  4.074716  0
C  C58  1  0.53985324  0.36706302  0.83034135  1  0  0.246449  0  3.819287  0  0  0.234735  0  4.083086  0  0  0.244281  0  4.097581  0  0  0.079205  0.22808  0  4.073146  0
C  C59  1  0.17278909  0.63249479  0.66973956  1  0  0.247062  0  3.819864  0  0  0.234606  0  4.08412  0  0  0.244182  0  4.09866  0  0  0.079381  0.227893  0  4.07467  0
C  C60  1  0.97381748  0.67127363  0.04944822  1  0  -0.07711  0  3.60602  0  0  -0.173738  0  3.869731  0  0  -0.166647  0  3.872577  0  0  -0.140003  -0.178356  0  3.867546  0
C  C61  1  0.30207865  0.32891478  0.45055978  1  0  -0.075838  0  3.605251  0  0  -0.173281  0  3.869242  0  0  -0.16611  0  3.872021  0  0  -0.139862  -0.17786  0  3.867072  0
C  C62  1  0.02617472  0.32872800  0.95055200  1  0  -0.077123  0  3.605994  0  0  -0.173697  0  3.869717  0  0  -0.166607  0  3.872564  0  0  -0.140034  -0.17832  0  3.867534  0
C  C63  1  0.69791381  0.67107771  0.54944035  1  0  -0.075775  0  3.605256  0  0  -0.173213  0  3.869205  0  0  -0.166036  0  3.871971  0  0  -0.139874  -0.177799  0  3.867031  0
S  S64  1  0.39772334  0.18531646  0.09671868  1  0  1.301103  0  5.692005  0  0  1.207702  0  6.213443  0  0  1.254892  0  6.189146  0  0  0.484597  1.174917  0  6.22956  0
S  S65  1  0.21309897  0.81492674  0.40333917  1  0  1.299947  0  5.690104  0  0  1.206399  0  6.211842  0  0  1.253689  0  6.18749  0  0  0.485499  1.173955  0  6.227454  0
S  S66  1  0.60227648  0.81468106  0.90327686  1  0  1.300857  0  5.691964  0  0  1.207477  0  6.21342  0  0  1.25466  0  6.189129  0  0  0.484449  1.174691  0  6.229538  0
S  S67  1  0.78690786  0.18507191  0.59666829  1  0  1.299678  0  5.690437  0  0  1.206122  0  6.212176  0  0  1.253412  0  6.18783  0  0  0.485443  1.17368  0  6.227789  0
O  O68  1  0.57381919  0.17284771  0.03816356  1  0  -0.70188  0  1.951277  0  0  -0.660145  0  2.201883  0  0  -0.679936  0  2.187272  0  0  -0.393553  -0.64597  0  2.211342  0
O  O69  1  0.40128575  0.82707440  0.46193846  1  0  -0.70093  0  1.949594  0  0  -0.659221  0  2.200383  0  0  -0.678992  0  2.185756  0  0  -0.39317  -0.645258  0  2.209959  0
O  O70  1  0.42618368  0.82715592  0.96183370  1  0  -0.701821  0  1.951312  0  0  -0.660074  0  2.2019  0  0  -0.679865  0  2.187293  0  0  -0.393542  -0.645901  0  2.211358  0
O  O71  1  0.59870878  0.17292224  0.53807134  1  0  -0.7008  0  1.949548  0  0  -0.659101  0  2.200348  0  0  -0.678864  0  2.185712  0  0  -0.393179  -0.645138  0  2.209924  0
O  O72  1  0.16716463  0.11470110  0.06322169  1  0  -0.720158  0  1.977411  0  0  -0.675346  0  2.235256  0  0  -0.696483  0  2.221424  0  0  -0.448638  -0.66022  0  2.244099  0
O  O73  1  0.05321696  0.88573695  0.43680551  1  0  -0.71955  0  1.976263  0  0  -0.674654  0  2.23417  0  0  -0.695786  0  2.220355  0  0  -0.448689  -0.659717  0  2.242795  0
O  O74  1  0.83283872  0.88530348  0.93676879  1  0  -0.720114  0  1.977389  0  0  -0.67527  0  2.235177  0  0  -0.69643  0  2.221402  0  0  -0.448601  -0.660146  0  2.244021  0
O  O75  1  0.94678228  0.11426264  0.56319392  1  0  -0.719492  0  1.976463  0  0  -0.674595  0  2.234374  0  0  -0.695726  0  2.220553  0  0  -0.448646  -0.659654  0  2.242991  0
O  O76  1  0.43571765  0.14123050  0.17945938  1  0  -0.718529  0  1.999356  0  0  -0.654246  0  2.229626  0  0  -0.675561  0  2.2128  0  0  -0.350844  -0.639458  0  2.24192  0
O  O77  1  0.29559964  0.85909041  0.32063426  1  0  -0.719632  0  1.999929  0  0  -0.655465  0  2.230765  0  0  -0.676793  0  2.213837  0  0  -0.351497  -0.640335  0  2.241852  0
O  O78  1  0.56427962  0.85876193  0.82053327  1  0  -0.718442  0  1.999223  0  0  -0.654199  0  2.229516  0  0  -0.675515  0  2.212686  0  0  -0.350775  -0.639407  0  2.241807  0
O  O79  1  0.70442797  0.14091432  0.67937368  1  0  -0.719599  0  2.000167  0  0  -0.655418  0  2.230998  0  0  -0.676759  0  2.214077  0  0  -0.35147  -0.640285  0  2.24208  0
O  O80  1  0.49301857  0.76742357  0.19296937  1  0  -0.549588  0  2.157874  0  0  -0.504183  0  2.376452  0  0  -0.521294  0  2.364079  0  0  -0.401691  -0.492103  0  2.384901  0
O  O81  1  0.72536870  0.23305447  0.30697602  1  0  -0.54877  0  2.157646  0  0  -0.503207  0  2.377495  0  0  -0.520332  0  2.365414  0  0  -0.401549  -0.491121  0  2.384398  0
O  O82  1  0.50697049  0.23257501  0.80703061  1  0  -0.549559  0  2.157787  0  0  -0.50418  0  2.376343  0  0  -0.521316  0  2.363966  0  0  -0.401724  -0.4921  0  2.384791  0
O  O83  1  0.27462661  0.76695019  0.69302257  1  0  -0.548744  0  2.157538  0  0  -0.503196  0  2.377333  0  0  -0.52032  0  2.365215  0  0  -0.401534  -0.491126  0  2.384276  0
O  O84  1  0.79625767  0.70211729  0.09761163  1  0  -0.258608  0  2.387885  0  0  -0.184835  0  2.63036  0  0  -0.20204  0  2.633419  0  0  -0.219539  -0.172324  0  2.627386  0
O  O85  1  0.09374168  0.29801066  0.40239296  1  0  -0.257875  0  2.38638  0  0  -0.182849  0  2.627751  0  0  -0.200149  0  2.630917  0  0  -0.218487  -0.170503  0  2.624703  0
O  O86  1  0.20374368  0.29788331  0.90238726  1  0  -0.258661  0  2.387765  0  0  -0.184841  0  2.630249  0  0  -0.202053  0  2.63331  0  0  -0.219489  -0.172322  0  2.627274  0
O  O87  1  0.90625281  0.70198590  0.59760748  1  0  -0.257856  0  2.386272  0  0  -0.182838  0  2.627659  0  0  -0.20014  0  2.630828  0  0  -0.218465  -0.170475  0  2.6246  0
O  O88  1  0.03309276  0.99996492  0.25001254  1  0  -0.900531  0  1.749142  0  0  -0.863218  0  1.902464  0  0  -0.8789  0  1.871676  0  0  -0.703822  -0.851907  0  1.923464  0
O  O89  1  0.96691676  0.00003264  0.74998736  1  0  -0.900669  0  1.748992  0  0  -0.863366  0  1.902323  0  0  -0.879048  0  1.871526  0  0  -0.703918  -0.852053  0  1.923324  0
