# generated using pymatgen
data_SrH10C18(N2O)4
_symmetry_space_group_name_H-M   'P 1'
_cell_length_a   7.14051151
_cell_length_b   7.47536136
_cell_length_c   22.31179727
_cell_angle_alpha   90.00054555
_cell_angle_beta   90.00039126
_cell_angle_gamma   117.34992871
_symmetry_Int_Tables_number   1
_chemical_formula_structural   SrH10C18(N2O)4
_chemical_formula_sum   'Sr2 H20 C36 N16 O8'
_cell_volume   1057.82848609
_cell_formula_units_Z   2
loop_
 _symmetry_equiv_pos_site_id
 _symmetry_equiv_pos_as_xyz
  1  'x, y, z'
loop_
 _atom_site_type_symbol
 _atom_site_label
 _atom_site_symmetry_multiplicity
 _atom_site_fract_x
 _atom_site_fract_y
 _atom_site_fract_z
 _atom_site_occupancy
 _atom_site_hle17_bader_spin_density
 _atom_site_hle17_ddec_charge
 _atom_site_hle17_ddec_spin_density
 _atom_site_hle17_ddec_sum_bond_order
 _atom_site_hle17_magmom
 _atom_site_hse06_10hf_bader_spin_density
 _atom_site_hse06_10hf_ddec_charge
 _atom_site_hse06_10hf_ddec_spin_density
 _atom_site_hse06_10hf_ddec_sum_bond_order
 _atom_site_hse06_10hf_magmom
 _atom_site_hse06_bader_spin_density
 _atom_site_hse06_ddec_charge
 _atom_site_hse06_ddec_spin_density
 _atom_site_hse06_ddec_sum_bond_order
 _atom_site_hse06_magmom
 _atom_site_pbe_bader_spin_density
 _atom_site_pbe_cm5_charge
 _atom_site_pbe_ddec_charge
 _atom_site_pbe_ddec_spin_density
 _atom_site_pbe_ddec_sum_bond_order
 _atom_site_pbe_magmom
Sr  Sr0  1  0.40619738  0.95706080  0.25000022  1  0  1.624544  0  1.093675  0  0  1.47942  0  1.476037  0  0  1.512319  0  1.431156  0  0  0.981083  1.455339  0  1.507709  0
Sr  Sr1  1  0.59380237  0.04294078  0.75000035  1  0  1.624581  0  1.09362  0  0  1.479443  0  1.476007  0  0  1.512322  0  1.431162  0  0  0.981083  1.455364  0  1.507678  0
H  H2  1  0.92735136  0.70444419  0.28556676  1  0  0.417469  0  0.884409  0  0  0.385907  0  0.949208  0  0  0.395853  0  0.934408  0  0  0.296341  0.378889  0  0.959655  0
H  H3  1  0.07264786  0.29555756  0.78556793  1  0  0.417434  0  0.884471  0  0  0.385876  0  0.949262  0  0  0.395821  0  0.934463  0  0  0.296306  0.378857  0  0.95971  0
H  H4  1  0.07264345  0.29555583  0.71443516  1  0  0.417456  0  0.884455  0  0  0.385905  0  0.949231  0  0  0.39585  0  0.934432  0  0  0.296329  0.378889  0  0.959676  0
H  H5  1  0.92735612  0.70445006  0.21443533  1  0  0.417424  0  0.884493  0  0  0.38588  0  0.949259  0  0  0.395824  0  0.934461  0  0  0.296329  0.378862  0  0.959705  0
H  H6  1  0.58752502  0.66118825  0.28524766  1  0  0.412075  0  0.889844  0  0  0.380622  0  0.955139  0  0  0.390094  0  0.941154  0  0  0.296856  0.373931  0  0.965023  0
H  H7  1  0.41247841  0.33881354  0.78524253  1  0  0.412025  0  0.889889  0  0  0.380608  0  0.95512  0  0  0.390076  0  0.941137  0  0  0.296871  0.373917  0  0.965005  0
H  H8  1  0.41247190  0.33880731  0.71475202  1  0  0.41198  0  0.88996  0  0  0.380546  0  0.955225  0  0  0.390016  0  0.941238  0  0  0.296821  0.373856  0  0.965107  0
H  H9  1  0.58751852  0.66119398  0.21475894  1  0  0.412002  0  0.889907  0  0  0.380575  0  0.955158  0  0  0.390045  0  0.941173  0  0  0.296864  0.373886  0  0.965039  0
H  H10  1  0.72549943  0.11479321  0.13780161  1  0  0.421765  0  0.880902  0  0  0.387181  0  0.951035  0  0  0.397148  0  0.93648  0  0  0.29448  0.380143  0  0.961301  0
H  H11  1  0.27449884  0.88521653  0.63780198  1  0  0.421762  0  0.880899  0  0  0.387193  0  0.951008  0  0  0.397158  0  0.936452  0  0  0.294497  0.380155  0  0.961271  0
H  H12  1  0.27449891  0.88521733  0.86219941  1  0  0.421734  0  0.880936  0  0  0.387164  0  0.951043  0  0  0.39713  0  0.936486  0  0  0.294479  0.380126  0  0.961308  0
H  H13  1  0.72550301  0.11477759  0.36219814  1  0  0.421809  0  0.880837  0  0  0.387247  0  0.950933  0  0  0.397213  0  0.936373  0  0  0.294511  0.38021  0  0.961196  0
H  H14  1  0.87810784  0.13747167  0.19060302  1  0  0.425352  0  0.833584  0  0  0.407265  0  0.887714  0  0  0.414798  0  0.876806  0  0  0.321869  0.401951  0  0.895426  0
H  H15  1  0.12189632  0.86254213  0.69060299  1  0  0.42535  0  0.833608  0  0  0.407251  0  0.887743  0  0  0.414785  0  0.876834  0  0  0.32185  0.401935  0  0.895459  0
H  H16  1  0.12189191  0.86253290  0.80939754  1  0  0.425329  0  0.833624  0  0  0.407246  0  0.887737  0  0  0.414777  0  0.876833  0  0  0.32187  0.401931  0  0.89545  0
H  H17  1  0.87810767  0.13747447  0.30939579  1  0  0.425376  0  0.833537  0  0  0.407289  0  0.887678  0  0  0.414821  0  0.876773  0  0  0.32188  0.401975  0  0.895392  0
H  H18  1  0.22295201  0.06854956  0.49451318  1  0  0.130988  0  0.969453  0  0  0.137429  0  1.0349  0  0  0.140326  0  1.033844  0  0  0.109084  0.135327  0  1.035731  0
H  H19  1  0.77705793  0.93146218  0.99451478  1  0  0.130948  0  0.969508  0  0  0.137374  0  1.034968  0  0  0.140271  0  1.033913  0  0  0.109028  0.135256  0  1.03582  0
H  H20  1  0.77704984  0.93143858  0.50548739  1  0  0.131062  0  0.96953  0  0  0.137411  0  1.035067  0  0  0.140303  0  1.034023  0  0  0.109083  0.135332  0  1.035874  0
H  H21  1  0.22294534  0.06854394  0.00548489  1  0  0.130967  0  0.969448  0  0  0.137406  0  1.034894  0  0  0.140303  0  1.03384  0  0  0.10907  0.135321  0  1.035708  0
C  C22  1  0.24382496  0.30424962  0.42958425  1  0  -0.044328  0  3.905526  0  0  -0.031954  0  4.15257  0  0  -0.038667  0  4.177495  0  0  -0.016906  -0.027489  0  4.135527  0
C  C23  1  0.75618774  0.69576807  0.92958595  1  0  -0.044285  0  3.905461  0  0  -0.031878  0  4.152412  0  0  -0.038571  0  4.177303  0  0  -0.016875  -0.02741  0  4.135362  0
C  C24  1  0.75618535  0.69573265  0.57041721  1  0  -0.044125  0  3.905291  0  0  -0.031997  0  4.152589  0  0  -0.038715  0  4.177514  0  0  -0.016963  -0.027502  0  4.135516  0
C  C25  1  0.24381273  0.30425596  0.07041552  1  0  -0.044403  0  3.905637  0  0  -0.032103  0  4.152768  0  0  -0.038821  0  4.177695  0  0  -0.016955  -0.027634  0  4.135722  0
C  C26  1  0.25478192  0.49899473  0.43840189  1  0  -0.064277  0  3.897045  0  0  -0.060154  0  4.142084  0  0  -0.063674  0  4.164549  0  0  -0.00878  -0.05753  0  4.126597  0
C  C27  1  0.74524738  0.50102810  0.93840114  1  0  -0.064022  0  3.896948  0  0  -0.059861  0  4.141843  0  0  -0.063375  0  4.164295  0  0  -0.00867  -0.057239  0  4.126354  0
C  C28  1  0.74522556  0.50099050  0.56159599  1  0  -0.06409  0  3.897081  0  0  -0.059839  0  4.141988  0  0  -0.063346  0  4.164435  0  0  -0.00865  -0.057241  0  4.126517  0
C  C29  1  0.25476577  0.49899312  0.06159540  1  0  -0.064166  0  3.896996  0  0  -0.059995  0  4.141992  0  0  -0.063509  0  4.16445  0  0  -0.008786  -0.057377  0  4.126506  0
C  C30  1  0.24810544  0.52762708  0.50082361  1  0  -0.069601  0  3.906867  0  0  -0.064547  0  4.152581  0  0  -0.06808  0  4.175953  0  0  -0.009689  -0.061964  0  4.136385  0
C  C31  1  0.75191353  0.47238847  0.00082221  1  0  -0.069675  0  3.907044  0  0  -0.064603  0  4.152669  0  0  -0.068152  0  4.176065  0  0  -0.009737  -0.062017  0  4.136466  0
C  C32  1  0.75188865  0.47235347  0.49917516  1  0  -0.069875  0  3.907263  0  0  -0.064749  0  4.152802  0  0  -0.068282  0  4.176162  0  0  -0.009764  -0.06216  0  4.136608  0
C  C33  1  0.24809962  0.52762677  0.99917343  1  0  -0.069749  0  3.907117  0  0  -0.064732  0  4.152831  0  0  -0.068269  0  4.176204  0  0  -0.009715  -0.062142  0  4.136625  0
C  C34  1  0.23095718  0.34971616  0.53010154  1  0  -0.047501  0  3.904966  0  0  -0.033655  0  4.151799  0  0  -0.040558  0  4.177065  0  0  -0.017411  -0.029032  0  4.1345  0
C  C35  1  0.76902784  0.65028533  0.03010344  1  0  -0.0476  0  3.90489  0  0  -0.033713  0  4.151658  0  0  -0.040613  0  4.176928  0  0  -0.017499  -0.029092  0  4.13436  0
C  C36  1  0.76904256  0.65027345  0.46989858  1  0  -0.04743  0  3.904825  0  0  -0.033552  0  4.151524  0  0  -0.040454  0  4.176785  0  0  -0.01743  -0.028937  0  4.134237  0
C  C37  1  0.23096274  0.34971163  0.96989847  1  0  -0.047562  0  3.905015  0  0  -0.033657  0  4.151764  0  0  -0.04056  0  4.177028  0  0  -0.017466  -0.029037  0  4.13447  0
C  C38  1  0.22865147  0.21383125  0.48597265  1  0  -0.126357  0  3.673083  0  0  -0.163132  0  3.931569  0  0  -0.163203  0  3.951639  0  0  -0.082526  -0.162634  0  3.917573  0
C  C39  1  0.77134469  0.78617541  0.98597646  1  0  -0.126262  0  3.672895  0  0  -0.163065  0  3.931371  0  0  -0.163142  0  3.951432  0  0  -0.082434  -0.162555  0  3.917394  0
C  C40  1  0.77136306  0.78615707  0.51402703  1  0  -0.126617  0  3.672907  0  0  -0.163267  0  3.931523  0  0  -0.163339  0  3.951596  0  0  -0.082535  -0.162792  0  3.917506  0
C  C41  1  0.22864731  0.21383354  0.01402680  1  0  -0.126309  0  3.673076  0  0  -0.163068  0  3.931553  0  0  -0.163139  0  3.951627  0  0  -0.082483  -0.162583  0  3.917545  0
C  C42  1  0.25891684  0.22480993  0.37383337  1  0  0.325524  0  3.783028  0  0  0.307314  0  4.048783  0  0  0.321962  0  4.065886  0  0  0.209404  0.297253  0  4.037309  0
C  C43  1  0.74108773  0.77519904  0.87383618  1  0  0.325553  0  3.782817  0  0  0.307331  0  4.048555  0  0  0.321973  0  4.065654  0  0  0.20944  0.297268  0  4.037074  0
C  C44  1  0.74108642  0.77517823  0.62616406  1  0  0.32558  0  3.782901  0  0  0.307451  0  4.0487  0  0  0.3221  0  4.065805  0  0  0.209521  0.297381  0  4.037216  0
C  C45  1  0.25891767  0.22482057  0.12616484  1  0  0.32561  0  3.782788  0  0  0.307427  0  4.048554  0  0  0.322079  0  4.065655  0  0  0.209505  0.297363  0  4.037075  0
C  C46  1  0.27606496  0.63883292  0.39378448  1  0  0.311849  0  3.787194  0  0  0.292656  0  4.056061  0  0  0.306172  0  4.07313  0  0  0.203594  0.283305  0  4.044566  0
C  C47  1  0.72395106  0.36117865  0.89378279  1  0  0.311812  0  3.787301  0  0  0.292598  0  4.056157  0  0  0.30611  0  4.073229  0  0  0.203618  0.283245  0  4.044662  0
C  C48  1  0.72393336  0.36115368  0.60621564  1  0  0.311846  0  3.787105  0  0  0.292619  0  4.055953  0  0  0.30613  0  4.073023  0  0  0.203559  0.283272  0  4.044466  0
C  C49  1  0.27605151  0.63883494  0.10621420  1  0  0.311835  0  3.787095  0  0  0.292641  0  4.05595  0  0  0.306156  0  4.073019  0  0  0.203637  0.28329  0  4.044458  0
C  C50  1  0.26671164  0.70048787  0.53028635  1  0  0.306606  0  3.795406  0  0  0.28502  0  4.073403  0  0  0.297882  0  4.090601  0  0  0.198062  0.276229  0  4.061651  0
C  C51  1  0.73330088  0.29952748  0.03028480  1  0  0.306445  0  3.79567  0  0  0.284833  0  4.073666  0  0  0.297698  0  4.090874  0  0  0.198034  0.276042  0  4.061909  0
C  C52  1  0.73328739  0.29950323  0.46971377  1  0  0.306846  0  3.795426  0  0  0.28523  0  4.073379  0  0  0.298091  0  4.090575  0  0  0.198147  0.276438  0  4.06163  0
C  C53  1  0.26671226  0.70048476  0.96971263  1  0  0.306647  0  3.795327  0  0  0.285068  0  4.073323  0  0  0.29793  0  4.090523  0  0  0.198063  0.276275  0  4.061572  0
C  C54  1  0.23125846  0.32817927  0.59256219  1  0  0.322433  0  3.77099  0  0  0.300169  0  4.038912  0  0  0.314076  0  4.056724  0  0  0.206945  0.290637  0  4.026952  0
C  C55  1  0.76872088  0.67181910  0.09256370  1  0  0.322374  0  3.770992  0  0  0.300075  0  4.038929  0  0  0.313983  0  4.056741  0  0  0.206946  0.290543  0  4.026969  0
C  C56  1  0.76873634  0.67180579  0.40743569  1  0  0.322311  0  3.771101  0  0  0.300017  0  4.039021  0  0  0.313924  0  4.056829  0  0  0.206881  0.290487  0  4.027065  0
C  C57  1  0.23125771  0.32817021  0.90743686  1  0  0.322529  0  3.771077  0  0  0.300243  0  4.038987  0  0  0.31415  0  4.056797  0  0  0.207018  0.290709  0  4.027025  0
N  N58  1  0.27518121  0.16098230  0.32734039  1  0  -0.477173  0  2.645615  0  0  -0.43866  0  2.882053  0  0  -0.452894  0  2.890075  0  0  -0.334265  -0.428881  0  2.876817  0
N  N59  1  0.72481564  0.83902138  0.82733934  1  0  -0.47726  0  2.645284  0  0  -0.438765  0  2.881756  0  0  -0.452997  0  2.889784  0  0  -0.334315  -0.428982  0  2.876516  0
N  N60  1  0.72480796  0.83901165  0.67265704  1  0  -0.477256  0  2.645448  0  0  -0.438746  0  2.881873  0  0  -0.452979  0  2.889898  0  0  -0.334307  -0.428966  0  2.876639  0
N  N61  1  0.27520102  0.16098642  0.17265809  1  0  -0.477212  0  2.645316  0  0  -0.438711  0  2.881767  0  0  -0.452947  0  2.889788  0  0  -0.334297  -0.428928  0  2.876529  0
N  N62  1  0.29683980  0.75563300  0.35630811  1  0  -0.435741  0  2.660828  0  0  -0.394615  0  2.899807  0  0  -0.408748  0  2.910897  0  0  -0.327163  -0.384844  0  2.892447  0
N  N63  1  0.70316681  0.24437817  0.85630823  1  0  -0.435762  0  2.66097  0  0  -0.394644  0  2.899964  0  0  -0.408775  0  2.91106  0  0  -0.327206  -0.384872  0  2.892603  0
N  N64  1  0.70316206  0.24436113  0.64369425  1  0  -0.435809  0  2.66082  0  0  -0.394685  0  2.899805  0  0  -0.408815  0  2.910898  0  0  -0.327177  -0.384914  0  2.892446  0
N  N65  1  0.29682942  0.75562785  0.14369278  1  0  -0.435754  0  2.660834  0  0  -0.394637  0  2.89983  0  0  -0.40877  0  2.91092  0  0  -0.327221  -0.384865  0  2.892471  0
N  N66  1  0.28446276  0.84226985  0.55695769  1  0  -0.425236  0  2.650387  0  0  -0.390514  0  2.880133  0  0  -0.402729  0  2.890584  0  0  -0.294797  -0.382162  0  2.873167  0
N  N67  1  0.71554038  0.15774513  0.05695744  1  0  -0.425157  0  2.650488  0  0  -0.390415  0  2.880242  0  0  -0.402631  0  2.890697  0  0  -0.294813  -0.382054  0  2.873252  0
N  N68  1  0.71553979  0.15771382  0.44304243  1  0  -0.425423  0  2.650171  0  0  -0.390712  0  2.879917  0  0  -0.402929  0  2.890368  0  0  -0.294869  -0.382353  0  2.872937  0
N  N69  1  0.28446925  0.84227454  0.94303954  1  0  -0.425278  0  2.650193  0  0  -0.390559  0  2.879939  0  0  -0.402777  0  2.890395  0  0  -0.294797  -0.382198  0  2.872956  0
N  N70  1  0.23660565  0.31925438  0.64483273  1  0  -0.442661  0  2.700524  0  0  -0.398058  0  2.926703  0  0  -0.412422  0  2.935163  0  0  -0.284185  -0.388285  0  2.921263  0
N  N71  1  0.76337602  0.68074947  0.14483606  1  0  -0.442582  0  2.700533  0  0  -0.397978  0  2.926702  0  0  -0.412346  0  2.935174  0  0  -0.284148  -0.388204  0  2.921262  0
N  N72  1  0.76338774  0.68073364  0.35516829  1  0  -0.442533  0  2.700798  0  0  -0.397902  0  2.926977  0  0  -0.412268  0  2.935445  0  0  -0.284119  -0.38813  0  2.92154  0
N  N73  1  0.23660822  0.31925189  0.85516675  1  0  -0.442651  0  2.700616  0  0  -0.398057  0  2.926804  0  0  -0.412413  0  2.935252  0  0  -0.284185  -0.38828  0  2.921364  0
O  O74  1  0.01655455  0.72729168  0.25000077  1  0  -0.895098  0  1.837677  0  0  -0.841777  0  2.011377  0  0  -0.859675  0  1.979433  0  0  -0.642064  -0.828799  0  2.033527  0
O  O75  1  0.98344520  0.27270990  0.75000114  1  0  -0.895104  0  1.83769  0  0  -0.841769  0  2.011392  0  0  -0.859669  0  1.979453  0  0  -0.642035  -0.828791  0  2.033541  0
O  O76  1  0.50972899  0.66985053  0.25000166  1  0  -0.877195  0  1.837487  0  0  -0.824754  0  2.003263  0  0  -0.842702  0  1.974209  0  0  -0.629923  -0.811909  0  2.023541  0
O  O77  1  0.49026511  0.33014798  0.74999891  1  0  -0.877114  0  1.837619  0  0  -0.824687  0  2.003374  0  0  -0.842626  0  1.974333  0  0  -0.62989  -0.811846  0  2.023651  0
O  O78  1  0.73827351  0.12280292  0.18192269  1  0  -0.867249  0  1.787962  0  0  -0.814688  0  1.95226  0  0  -0.832271  0  1.924298  0  0  -0.615464  -0.802135  0  1.971784  0
O  O79  1  0.26172744  0.87720146  0.68192256  1  0  -0.867237  0  1.787994  0  0  -0.814674  0  1.952261  0  0  -0.832253  0  1.924307  0  0  -0.615464  -0.80212  0  1.971786  0
O  O80  1  0.26172483  0.87720164  0.81807833  1  0  -0.867211  0  1.788032  0  0  -0.81465  0  1.952315  0  0  -0.832229  0  1.924361  0  0  -0.615478  -0.802097  0  1.971841  0
O  O81  1  0.73827160  0.12279562  0.31807891  1  0  -0.867303  0  1.78789  0  0  -0.814754  0  1.952198  0  0  -0.832332  0  1.924244  0  0  -0.615502  -0.802203  0  1.971722  0
