# generated using pymatgen
data_HgH16C22N6(Cl2O)2
_symmetry_space_group_name_H-M   'P 1'
_cell_length_a   3.80936721
_cell_length_b   14.84677317
_cell_length_c   20.95500000
_cell_angle_alpha   90.70279407
_cell_angle_beta   90.00000000
_cell_angle_gamma   90.00000000
_symmetry_Int_Tables_number   1
_chemical_formula_structural   HgH16C22N6(Cl2O)2
_chemical_formula_sum   'Hg2 H32 C44 N12 Cl8 O4'
_cell_volume   1185.05881790
_cell_formula_units_Z   2
loop_
 _symmetry_equiv_pos_site_id
 _symmetry_equiv_pos_as_xyz
  1  'x, y, z'
loop_
 _atom_site_type_symbol
 _atom_site_label
 _atom_site_symmetry_multiplicity
 _atom_site_fract_x
 _atom_site_fract_y
 _atom_site_fract_z
 _atom_site_occupancy
 _atom_site_hle17_bader_spin_density
 _atom_site_hle17_ddec_charge
 _atom_site_hle17_ddec_spin_density
 _atom_site_hle17_ddec_sum_bond_order
 _atom_site_hle17_magmom
 _atom_site_hse06_10hf_bader_spin_density
 _atom_site_hse06_10hf_ddec_charge
 _atom_site_hse06_10hf_ddec_spin_density
 _atom_site_hse06_10hf_ddec_sum_bond_order
 _atom_site_hse06_10hf_magmom
 _atom_site_hse06_bader_spin_density
 _atom_site_hse06_ddec_charge
 _atom_site_hse06_ddec_spin_density
 _atom_site_hse06_ddec_sum_bond_order
 _atom_site_hse06_magmom
 _atom_site_pbe_bader_charge
 _atom_site_pbe_bader_spin_density
 _atom_site_pbe_cm5_charge
 _atom_site_pbe_ddec_charge
 _atom_site_pbe_ddec_spin_density
 _atom_site_pbe_ddec_sum_bond_order
 _atom_site_pbe_magmom
Hg  Hg0  1  0.00000000  0.00000000  0.00000000  1  0  0.720005  0  2.171434  0  0  0.570873  0  2.669678  0  0  0.620203  0  2.635405  0  0.857808  0  0.476254  0.536846  0  2.692884  0
Hg  Hg1  1  0.49999380  0.49999743  0.50000635  1  0  0.719978  0  2.171436  0  0  0.570839  0  2.669682  0  0  0.620173  0  2.635406  0  0.857553  0  0.476271  0.536812  0  2.692888  0
H  H2  1  0.37655073  0.17508354  0.76944519  1  0  0.083324  0  0.963804  0  0  0.081252  0  1.042705  0  0  0.085409  0  1.039592  0  0.1119  0  0.107663  0.07823  0  1.045079  0
H  H3  1  0.87655241  0.32491726  0.73055498  1  0  0.083308  0  0.963824  0  0  0.081241  0  1.042727  0  0  0.085395  0  1.039613  0  0.111907  0  0.107666  0.078218  0  1.045101  0
H  H4  1  0.62345000  0.82491604  0.23055466  1  0  0.083339  0  0.963782  0  0  0.081272  0  1.042676  0  0  0.085428  0  1.039565  0  0.111911  0  0.107669  0.07825  0  1.045051  0
H  H5  1  0.12345357  0.67508366  0.26944583  1  0  0.083324  0  0.963792  0  0  0.08128  0  1.042668  0  0  0.085437  0  1.039557  0  0.111928  0  0.107666  0.078257  0  1.045043  0
H  H6  1  0.28141157  0.04697132  0.84745759  1  0  0.082682  0  0.981151  0  0  0.082006  0  1.060447  0  0  0.08568  0  1.057206  0  0.148009  0  0.098833  0.079336  0  1.06283  0
H  H7  1  0.78141587  0.45302814  0.65254209  1  0  0.082716  0  0.981129  0  0  0.082043  0  1.060415  0  0  0.085716  0  1.057177  0  0.148001  0  0.09886  0.079371  0  1.062802  0
H  H8  1  0.71859179  0.95302826  0.15254179  1  0  0.082672  0  0.981174  0  0  0.081993  0  1.060466  0  0  0.085668  0  1.057224  0  0.148002  0  0.09881  0.079326  0  1.062847  0
H  H9  1  0.21859011  0.54697077  0.34745871  1  0  0.082659  0  0.981156  0  0  0.081991  0  1.06045  0  0  0.085664  0  1.05721  0  0.148228  0  0.098822  0.079334  0  1.062826  0
H  H10  1  0.81312717  0.22537973  0.97570715  1  0  0.103921  0  0.942107  0  0  0.105614  0  1.015878  0  0  0.109646  0  1.012266  0  0.157257  0  0.118601  0.102656  0  1.018629  0
H  H11  1  0.31312550  0.27462174  0.52429208  1  0  0.103932  0  0.942083  0  0  0.105626  0  1.015852  0  0  0.109661  0  1.012236  0  0.157244  0  0.118607  0.102667  0  1.018605  0
H  H12  1  0.18687356  0.77462119  0.02429224  1  0  0.103895  0  0.942106  0  0  0.105594  0  1.015886  0  0  0.109626  0  1.012272  0  0.157231  0  0.118601  0.102637  0  1.018637  0
H  H13  1  0.68687524  0.72537783  0.47570777  1  0  0.103896  0  0.94211  0  0  0.105591  0  1.015886  0  0  0.109625  0  1.012271  0  0.157239  0  0.118586  0.102634  0  1.018638  0
H  H14  1  0.10593623  0.71440560  0.76897343  1  0  0.102462  0  0.962485  0  0  0.114634  0  1.022934  0  0  0.117095  0  1.021963  0  0.09175  0  0.100879  0.112903  0  1.023641  0
H  H15  1  0.60593791  0.78559410  0.73102659  1  0  0.102505  0  0.962433  0  0  0.114636  0  1.022925  0  0  0.117097  0  1.021956  0  0.091746  0  0.100894  0.112904  0  1.023632  0
H  H16  1  0.89406188  0.28559532  0.23102596  1  0  0.102498  0  0.962477  0  0  0.114671  0  1.022913  0  0  0.117129  0  1.021946  0  0.091774  0  0.100897  0.112939  0  1.02362  0
H  H17  1  0.39405495  0.21440480  0.26897230  1  0  0.102483  0  0.96247  0  0  0.114609  0  1.022965  0  0  0.117067  0  1.022002  0  0.091857  0  0.100894  0.112878  0  1.023671  0
H  H18  1  0.83000662  0.79564822  0.86121800  1  0  0.091123  0  0.968901  0  0  0.098432  0  1.035428  0  0  0.101172  0  1.034211  0  0.072823  0  0.086534  0.096466  0  1.036437  0
H  H19  1  0.33000232  0.70435350  0.63878109  1  0  0.091088  0  0.968933  0  0  0.098403  0  1.03546  0  0  0.101147  0  1.034242  0  0.072871  0  0.086514  0.096437  0  1.036469  0
H  H20  1  0.16998886  0.20435203  0.13878091  1  0  0.09111  0  0.968916  0  0  0.098432  0  1.035428  0  0  0.101176  0  1.034211  0  0.072836  0  0.086524  0.096466  0  1.036437  0
H  H21  1  0.66998792  0.29564675  0.36121782  1  0  0.091126  0  0.968944  0  0  0.098407  0  1.035498  0  0  0.101149  0  1.034283  0  0.072853  0  0.086529  0.096442  0  1.036507  0
H  H22  1  0.61274744  0.70773429  0.95420154  1  0  0.08689  0  0.964455  0  0  0.094719  0  1.032792  0  0  0.096907  0  1.031661  0  0.059598  0  0.094444  0.093172  0  1.033617  0
H  H23  1  0.11274576  0.79226811  0.54579802  1  0  0.086833  0  0.964475  0  0  0.094667  0  1.032811  0  0  0.096855  0  1.031678  0  0.059652  0  0.094427  0.093121  0  1.033632  0
H  H24  1  0.38725067  0.29226663  0.04579737  1  0  0.086875  0  0.964477  0  0  0.094695  0  1.032824  0  0  0.096885  0  1.031689  0  0.059617  0  0.094426  0.093148  0  1.033649  0
H  H25  1  0.88724447  0.20773349  0.45420137  1  0  0.086802  0  0.964445  0  0  0.09464  0  1.032779  0  0  0.096829  0  1.031647  0  0.059627  0  0.0944  0.093094  0  1.033604  0
H  H26  1  0.67863240  0.54272710  0.95597062  1  0  0.130465  0  0.957675  0  0  0.13712  0  1.018557  0  0  0.14117  0  1.0155  0  0.149991  0  0.11124  0.13422  0  1.020838  0
H  H27  1  0.17862809  0.95727462  0.54402942  1  0  0.130415  0  0.957717  0  0  0.137068  0  1.018592  0  0  0.141119  0  1.015534  0  0.149949  0  0.111222  0.13417  0  1.02087  0
H  H28  1  0.32137096  0.45727315  0.04402924  1  0  0.130431  0  0.957728  0  0  0.137084  0  1.018601  0  0  0.141134  0  1.015546  0  0.149971  0  0.111224  0.134185  0  1.020879  0
H  H29  1  0.82136476  0.04272698  0.45596998  1  0  0.130407  0  0.957584  0  0  0.137074  0  1.018466  0  0  0.141124  0  1.015409  0  0.149983  0  0.111235  0.134174  0  1.020747  0
H  H30  1  0.12194676  0.41576000  0.82510154  1  0  0.271051  0  0.944648  0  0  0.241734  0  1.036183  0  0  0.250046  0  1.028533  0  0.47333  0  0.295208  0.23585  0  1.041621  0
H  H31  1  0.62194582  0.08424148  0.67489912  1  0  0.271036  0  0.944653  0  0  0.241714  0  1.036195  0  0  0.250026  0  1.028548  0  0.473312  0  0.295188  0.23583  0  1.041632  0
H  H32  1  0.87805659  0.58424025  0.17489879  1  0  0.271092  0  0.9446  0  0  0.241774  0  1.036138  0  0  0.250086  0  1.028493  0  0.473334  0  0.295218  0.23589  0  1.041576  0
H  H33  1  0.37805492  0.91575810  0.32510122  1  0  0.271077  0  0.944599  0  0  0.241794  0  1.036126  0  0  0.250107  0  1.028478  0  0.473321  0  0.295216  0.23591  0  1.041564  0
C  C34  1  0.24820395  0.18618914  0.81553073  1  0  0.076784  0  3.691036  0  0  0.054797  0  3.953547  0  0  0.055021  0  3.970551  0  0.533896  0  0.045581  0.054532  0  3.942086  0
C  C35  1  0.74820301  0.31381031  0.68446848  1  0  0.076831  0  3.691328  0  0  0.054827  0  3.953845  0  0  0.05505  0  3.970863  0  0.533904  0  0.045604  0.054564  0  3.942384  0
C  C36  1  0.75179678  0.81380976  0.18446912  1  0  0.076829  0  3.691151  0  0  0.054835  0  3.953668  0  0  0.055058  0  3.970676  0  0.533903  0  0.045584  0.05457  0  3.942208  0
C  C37  1  0.25180035  0.68618859  0.31553136  1  0  0.076869  0  3.691074  0  0  0.054857  0  3.953599  0  0  0.05508  0  3.970605  0  0.533898  0  0.045597  0.054592  0  3.942141  0
C  C38  1  0.19599843  0.11572543  0.85812190  1  0  0.069749  0  3.691916  0  0  0.040585  0  3.948259  0  0  0.044493  0  3.966214  0  0.431648  0  0.043057  0.037748  0  3.936536  0
C  C39  1  0.69600799  0.38427469  0.64187827  1  0  0.069645  0  3.692032  0  0  0.040465  0  3.948425  0  0  0.044385  0  3.966361  0  0.43162  0  0.04297  0.03763  0  3.936699  0
C  C40  1  0.80399442  0.88427347  0.14187795  1  0  0.069681  0  3.692019  0  0  0.040523  0  3.948358  0  0  0.044434  0  3.966309  0  0.431676  0  0.043074  0.037685  0  3.93663  0
C  C41  1  0.30400062  0.61572556  0.35812255  1  0  0.069668  0  3.692018  0  0  0.040477  0  3.9484  0  0  0.044393  0  3.966341  0  0.431401  0  0.043028  0.037628  0  3.936664  0
C  C42  1  0.93695877  0.21397572  0.92936037  1  0  0.078166  0  3.642614  0  0  0.042894  0  3.893674  0  0  0.046993  0  3.910935  0  0.517072  0  0.061751  0.039989  0  3.882457  0
C  C43  1  0.43695709  0.28602508  0.57063933  1  0  0.078193  0  3.642655  0  0  0.042905  0  3.893701  0  0  0.047003  0  3.910965  0  0.517094  0  0.061763  0.04  0  3.882482  0
C  C44  1  0.06304459  0.78602453  0.07063902  1  0  0.078236  0  3.642556  0  0  0.042912  0  3.893634  0  0  0.047012  0  3.9109  0  0.517063  0  0.061758  0.04  0  3.882426  0
C  C45  1  0.56304627  0.71397450  0.42936148  1  0  0.078176  0  3.64255  0  0  0.042877  0  3.893632  0  0  0.046978  0  3.91089  0  0.517049  0  0.061742  0.039966  0  3.882416  0
C  C46  1  0.98839775  0.28433435  0.88638985  1  0  0.067782  0  3.744222  0  0  0.074747  0  3.991146  0  0  0.07289  0  4.0093  0  0.511199  0  0.122573  0.075498  0  3.979188  0
C  C47  1  0.48840133  0.21566578  0.61360984  1  0  0.067715  0  3.744269  0  0  0.074737  0  3.991121  0  0  0.07288  0  4.009275  0  0.511168  0  0.122584  0.07549  0  3.979162  0
C  C48  1  0.01160298  0.71566523  0.11360905  1  0  0.06783  0  3.744196  0  0  0.074883  0  3.991037  0  0  0.073015  0  4.009198  0  0.51118  0  0.122658  0.075636  0  3.979076  0
C  C49  1  0.51160203  0.78433380  0.38639097  1  0  0.06779  0  3.744133  0  0  0.074783  0  3.990995  0  0  0.072922  0  4.009157  0  0.511252  0  0.122619  0.075539  0  3.979033  0
C  C50  1  0.86150004  0.37742959  0.90369041  1  0  0.509116  0  3.843328  0  0  0.462177  0  4.129507  0  0  0.491188  0  4.128352  0  1.445055  0  0.239862  0.442763  0  4.129739  0
C  C51  1  0.36149836  0.12257121  0.59630929  1  0  0.509203  0  3.843233  0  0  0.462233  0  4.129424  0  0  0.491248  0  4.128263  0  1.445036  0  0.239831  0.44282  0  4.129656  0
C  C52  1  0.13849807  0.62257066  0.09630992  1  0  0.509077  0  3.843399  0  0  0.462095  0  4.129608  0  0  0.491115  0  4.128457  0  1.444391  0  0.239779  0.44268  0  4.129837  0
C  C53  1  0.63850762  0.87742904  0.40369153  1  0  0.509225  0  3.843206  0  0  0.462356  0  4.129296  0  0  0.491365  0  4.128151  0  1.444398  0  0.239932  0.44294  0  4.129531  0
C  C54  1  0.92739812  0.53411448  0.86371205  1  0  0.192519  0  3.791082  0  0  0.181374  0  4.040735  0  0  0.187746  0  4.063095  0  0.367719  0  0.090557  0.177159  0  4.025566  0
C  C55  1  0.42739119  0.96588589  0.63628846  1  0  0.192373  0  3.791192  0  0  0.181274  0  4.040772  0  0  0.187646  0  4.063138  0  0.367721  0  0.090524  0.177061  0  4.025602  0
C  C56  1  0.07260523  0.46588577  0.13628733  1  0  0.192537  0  3.791142  0  0  0.181386  0  4.040785  0  0  0.187757  0  4.063158  0  0.367712  0  0.090555  0.177172  0  4.025616  0
C  C57  1  0.57260166  0.03411436  0.36371140  1  0  0.19247  0  3.791038  0  0  0.181378  0  4.040663  0  0  0.187733  0  4.063056  0  0.36771  0  0.090583  0.177175  0  4.025475  0
C  C58  1  0.04440108  0.58454539  0.81118491  1  0  0.033838  0  3.776211  0  0  0.043412  0  4.041706  0  0  0.043134  0  4.064085  0  0.010669  0  0.003543  0.043359  0  4.026721  0
C  C59  1  0.54440013  0.91545633  0.68881561  1  0  0.033861  0  3.776294  0  0  0.043408  0  4.04176  0  0  0.043128  0  4.064142  0  0.010786  0  0.003536  0.043356  0  4.026773  0
C  C60  1  0.95559966  0.41545486  0.18881447  1  0  0.033795  0  3.776298  0  0  0.04338  0  4.04177  0  0  0.0431  0  4.064152  0  0.010773  0  0.00353  0.043329  0  4.026783  0
C  C61  1  0.45559798  0.08454392  0.31118425  1  0  0.033857  0  3.776194  0  0  0.043443  0  4.04163  0  0  0.043167  0  4.064018  0  0.010665  0  0.003546  0.043388  0  4.026642  0
C  C62  1  0.01082595  0.67770934  0.81016586  1  0  -0.126311  0  3.790989  0  0  -0.148648  0  4.041068  0  0  -0.150432  0  4.063203  0  0.047168  0  -0.101392  -0.147265  0  4.026026  0
C  C63  1  0.51081975  0.82229103  0.68983464  1  0  -0.126286  0  3.791011  0  0  -0.148583  0  4.041089  0  0  -0.150368  0  4.063227  0  0.047213  0  -0.101379  -0.147197  0  4.026042  0
C  C64  1  0.98917479  0.32229090  0.18983352  1  0  -0.126304  0  3.790981  0  0  -0.148644  0  4.041058  0  0  -0.150426  0  4.063195  0  0.047181  0  -0.101388  -0.147259  0  4.026015  0
C  C65  1  0.48917573  0.17770922  0.31016474  1  0  -0.126327  0  3.791034  0  0  -0.148629  0  4.041111  0  0  -0.150411  0  4.063244  0  0.047081  0  -0.101396  -0.147246  0  4.02607  0
C  C66  1  0.85722636  0.72266458  0.86190276  1  0  -0.062699  0  3.766166  0  0  -0.078063  0  4.021135  0  0  -0.082333  0  4.045083  0  -0.05374  0  -0.094986  -0.075064  0  4.004704  0
C  C67  1  0.35721943  0.77733781  0.63809681  1  0  -0.062703  0  3.766291  0  0  -0.078082  0  4.021248  0  0  -0.082358  0  4.045201  0  -0.054244  0  -0.094966  -0.075084  0  4.004814  0
C  C68  1  0.14277437  0.27733567  0.13809567  1  0  -0.062722  0  3.766149  0  0  -0.078103  0  4.021103  0  0  -0.082379  0  4.045056  0  -0.054303  0  -0.09499  -0.075103  0  4.004672  0
C  C69  1  0.64277080  0.22266378  0.36190306  1  0  -0.062715  0  3.766279  0  0  -0.078055  0  4.021241  0  0  -0.082328  0  4.04519  0  -0.054082  0  -0.094971  -0.075058  0  4.004811  0
C  C70  1  0.73899675  0.67369672  0.91406036  1  0  -0.039225  0  3.755657  0  0  -0.05741  0  4.012535  0  0  -0.058137  0  4.035854  0  0.013073  0  -0.088439  -0.056657  0  3.996397  0
C  C71  1  0.23898720  0.82630567  0.58593968  1  0  -0.039154  0  3.755707  0  0  -0.057349  0  4.012578  0  0  -0.058075  0  4.035898  0  0.013447  0  -0.088408  -0.056602  0  3.996455  0
C  C72  1  0.26100398  0.32630353  0.08593902  1  0  -0.039201  0  3.755656  0  0  -0.057386  0  4.012529  0  0  -0.058109  0  4.035841  0  0.013588  0  -0.088419  -0.056635  0  3.996397  0
C  C73  1  0.76100041  0.17369525  0.41406018  1  0  -0.039087  0  3.755627  0  0  -0.057285  0  4.012534  0  0  -0.058006  0  4.035838  0  0.013318  0  -0.088359  -0.056531  0  3.996393  0
C  C74  1  0.77234875  0.58041624  0.91533657  1  0  -0.125648  0  3.666698  0  0  -0.147045  0  3.919761  0  0  -0.151292  0  3.939533  0  0.018609  0  -0.086  -0.14423  0  3.906417  0
C  C75  1  0.27233657  0.91958548  0.58466442  1  0  -0.125525  0  3.666793  0  0  -0.146917  0  3.919815  0  0  -0.151164  0  3.939583  0  0.018664  0  -0.085968  -0.144103  0  3.906468  0
C  C76  1  0.22765723  0.41958401  0.08466329  1  0  -0.125581  0  3.666722  0  0  -0.146963  0  3.919761  0  0  -0.151214  0  3.939538  0  0.018591  0  -0.085969  -0.144149  0  3.906416  0
C  C77  1  0.72765366  0.08041611  0.41533545  1  0  -0.125596  0  3.666692  0  0  -0.147016  0  3.919771  0  0  -0.151258  0  3.939545  0  0.018697  0  -0.086051  -0.144205  0  3.906424  0
N  N78  1  0.14662540  0.27042388  0.82980320  1  0  -0.286945  0  3.090534  0  0  -0.253698  0  3.352342  0  0  -0.259921  0  3.36708  0  -1.199293  0  -0.296873  -0.249063  0  3.342422  0
N  N79  1  0.64662446  0.22957692  0.67019697  1  0  -0.286935  0  3.090718  0  0  -0.253691  0  3.352513  0  0  -0.259921  0  3.367256  0  -1.199262  0  -0.296884  -0.249057  0  3.342593  0
N  N80  1  0.85338058  0.72957569  0.17019617  1  0  -0.287048  0  3.090586  0  0  -0.253829  0  3.352393  0  0  -0.260056  0  3.367139  0  -1.199272  0  -0.296949  -0.249194  0  3.342472  0
N  N81  1  0.35337890  0.77042333  0.32980384  1  0  -0.287049  0  3.090524  0  0  -0.253813  0  3.352352  0  0  -0.260038  0  3.367097  0  -1.199243  0  -0.296949  -0.249179  0  3.342432  0
N  N82  1  0.04222224  0.13036136  0.91481125  1  0  -0.251535  0  3.204466  0  0  -0.189802  0  3.468087  0  0  -0.205447  0  3.48877  0  -1.182567  0  -0.293447  -0.178677  0  3.453454  0
N  N83  1  0.54222391  0.36963809  0.58518939  1  0  -0.251482  0  3.204584  0  0  -0.189736  0  3.468183  0  0  -0.205383  0  3.488866  0  -1.182541  0  -0.293416  -0.178608  0  3.453547  0
N  N84  1  0.95777850  0.86963821  0.08518908  1  0  -0.251485  0  3.204463  0  0  -0.189738  0  3.468085  0  0  -0.205384  0  3.488766  0  -1.182553  0  -0.293437  -0.178612  0  3.453451  0
N  N85  1  0.45778207  0.63036014  0.41481141  1  0  -0.251454  0  3.204472  0  0  -0.189699  0  3.468069  0  0  -0.205347  0  3.488762  0  -1.182589  0  -0.293405  -0.178574  0  3.453444  0
N  N86  1  0.97444268  0.44089597  0.86199619  1  0  -0.417769  0  3.418014  0  0  -0.365991  0  3.663474  0  0  -0.3878  0  3.672711  0  -1.291435  0  -0.395884  -0.351028  0  3.656719  0
N  N87  1  0.47444100  0.05910483  0.63800446  1  0  -0.417829  0  3.41798  0  0  -0.366053  0  3.663431  0  0  -0.387849  0  3.672636  0  -1.291408  0  -0.395915  -0.35109  0  3.656675  0
N  N88  1  0.02556068  0.55910361  0.13800366  1  0  -0.417823  0  3.418054  0  0  -0.366035  0  3.663512  0  0  -0.387824  0  3.672691  0  -1.29144  0  -0.395875  -0.351073  0  3.656758  0
N  N89  1  0.52555973  0.94089542  0.36199540  1  0  -0.417834  0  3.417778  0  0  -0.366174  0  3.663269  0  0  -0.387965  0  3.672477  0  -1.291398  0  -0.39595  -0.351216  0  3.656516  0
Cl  Cl90  1  0.40052584  0.91002039  0.93539685  1  0  -0.427534  0  1.078028  0  0  -0.367659  0  1.370715  0  0  -0.38583  0  1.352186  0  -0.493408  0  -0.241596  -0.355347  0  1.383646  0
Cl  Cl91  1  0.90052752  0.58998065  0.56460461  1  0  -0.427532  0  1.078072  0  0  -0.367642  0  1.370739  0  0  -0.385819  0  1.352213  0  -0.493417  0  -0.241599  -0.35533  0  1.383669  0
Cl  Cl92  1  0.59947489  0.08998053  0.06460253  1  0  -0.42753  0  1.078037  0  0  -0.367655  0  1.370726  0  0  -0.385828  0  1.352199  0  -0.49341  0  -0.241589  -0.355343  0  1.383658  0
Cl  Cl93  1  0.09947846  0.41002027  0.43539907  1  0  -0.42751  0  1.078015  0  0  -0.367639  0  1.370699  0  0  -0.385815  0  1.352173  0  -0.493152  0  -0.241593  -0.355328  0  1.383633  0
Cl  Cl94  1  0.23241130  0.52953536  0.74572523  1  0  -0.098573  0  1.418448  0  0  -0.074953  0  1.665318  0  0  -0.080302  0  1.661262  0  -0.241961  0  0.01209  -0.070846  0  1.668147  0
Cl  Cl95  1  0.73241036  0.97046568  0.75427481  1  0  -0.098558  0  1.418492  0  0  -0.074941  0  1.665371  0  0  -0.08029  0  1.661315  0  -0.242074  0  0.012098  -0.070836  0  1.668201  0
Cl  Cl96  1  0.76759468  0.47046489  0.25427416  1  0  -0.098562  0  1.418498  0  0  -0.074946  0  1.665352  0  0  -0.080299  0  1.661296  0  -0.242023  0  0.01209  -0.07084  0  1.668186  0
Cl  Cl97  1  0.26758775  0.02953322  0.24572456  1  0  -0.098588  0  1.418446  0  0  -0.074976  0  1.665321  0  0  -0.080325  0  1.661262  0  -0.241993  0  0.012073  -0.07087  0  1.668153  0
O  O98  1  0.67052606  0.38992618  0.95074198  1  0  -0.503647  0  1.924909  0  0  -0.457666  0  2.137685  0  0  -0.477205  0  2.13393  0  -1.127275  0  -0.271932  -0.444129  0  2.139831  0
O  O99  1  0.17052438  0.11007664  0.54925725  1  0  -0.503627  0  1.924835  0  0  -0.457655  0  2.137647  0  0  -0.477205  0  2.1339  0  -1.127284  0  -0.271875  -0.444125  0  2.139801  0
O  O100  1  0.32947729  0.61007340  0.04925644  1  0  -0.503639  0  1.924854  0  0  -0.45766  0  2.137663  0  0  -0.477194  0  2.133876  0  -1.126635  0  -0.271908  -0.444122  0  2.139805  0
O  O101  1  0.82947897  0.88992495  0.45074214  1  0  -0.503658  0  1.924998  0  0  -0.457711  0  2.13777  0  0  -0.477249  0  2.134012  0  -1.1267  0  -0.271934  -0.444174  0  2.139919  0
