# generated using pymatgen
data_TbH15(C3O4)3
_symmetry_space_group_name_H-M   'P 1'
_cell_length_a   7.11795348
_cell_length_b   9.96993581
_cell_length_c   10.46903057
_cell_angle_alpha   114.63913204
_cell_angle_beta   104.88129358
_cell_angle_gamma   100.05498971
_symmetry_Int_Tables_number   1
_chemical_formula_structural   TbH15(C3O4)3
_chemical_formula_sum   'Tb2 H30 C18 O24'
_cell_volume   618.19093308
_cell_formula_units_Z   2
loop_
 _symmetry_equiv_pos_site_id
 _symmetry_equiv_pos_as_xyz
  1  'x, y, z'
loop_
 _atom_site_type_symbol
 _atom_site_label
 _atom_site_symmetry_multiplicity
 _atom_site_fract_x
 _atom_site_fract_y
 _atom_site_fract_z
 _atom_site_occupancy
 _atom_site_hle17_bader_spin_density
 _atom_site_hle17_ddec_charge
 _atom_site_hle17_ddec_spin_density
 _atom_site_hle17_ddec_sum_bond_order
 _atom_site_hle17_magmom
 _atom_site_hse06_10hf_bader_spin_density
 _atom_site_hse06_10hf_ddec_charge
 _atom_site_hse06_10hf_ddec_spin_density
 _atom_site_hse06_10hf_ddec_sum_bond_order
 _atom_site_hse06_10hf_magmom
 _atom_site_hse06_bader_spin_density
 _atom_site_hse06_ddec_charge
 _atom_site_hse06_ddec_spin_density
 _atom_site_hse06_ddec_sum_bond_order
 _atom_site_hse06_magmom
 _atom_site_pbe_bader_spin_density
 _atom_site_pbe_cm5_charge
 _atom_site_pbe_ddec_charge
 _atom_site_pbe_ddec_spin_density
 _atom_site_pbe_ddec_sum_bond_order
 _atom_site_pbe_magmom
Tb  Tb0  1  0.82084163  0.94917097  0.66515816  1  0  2.361439  0  1.494567  0  0  2.291316  0  1.807854  0  0  2.332755  0  1.768568  0  0  1.476228  2.26139  0  1.835488  0
Tb  Tb1  1  0.65559234  0.28399555  0.33484491  1  0  2.361281  0  1.49373  0  0  2.291398  0  1.806992  0  0  2.3328  0  1.767726  0  0  1.475751  2.261215  0  1.834754  0
H  H2  1  0.82778762  0.60185799  0.73830589  1  0  0.113079  0  0.971569  0  0  0.119055  0  1.041507  0  0  0.123711  0  1.0365  0  0  0.115354  0.115228  0  1.045979  0
H  H3  1  0.58911160  0.86341639  0.26166733  1  0  0.112514  0  0.971515  0  0  0.118486  0  1.041675  0  0  0.123096  0  1.036755  0  0  0.115162  0.114762  0  1.045801  0
H  H4  1  0.04392656  0.37073905  0.98396118  1  0  0.107145  0  0.95308  0  0  0.113576  0  1.022007  0  0  0.118025  0  1.017377  0  0  0.112702  0.110482  0  1.025038  0
H  H5  1  0.56016055  0.38671917  0.01619055  1  0  0.106826  0  0.952687  0  0  0.113716  0  1.021113  0  0  0.118049  0  1.016635  0  0  0.112908  0.110598  0  1.024195  0
H  H6  1  0.07810375  0.85087518  0.22403604  1  0  0.09928  0  0.966327  0  0  0.106123  0  1.035791  0  0  0.11052  0  1.031436  0  0  0.107991  0.102695  0  1.039513  0
H  H7  1  0.35385156  0.62651458  0.77593948  1  0  0.09872  0  0.966579  0  0  0.105653  0  1.035831  0  0  0.110042  0  1.031498  0  0  0.107837  0.102098  0  1.039803  0
H  H8  1  0.55673581  0.08497972  0.49570899  1  0  0.452434  0  0.837977  0  0  0.419994  0  0.904672  0  0  0.430538  0  0.888854  0  0  0.313298  0.41242  0  0.916086  0
H  H9  1  0.56097186  0.58934849  0.50461629  1  0  0.451732  0  0.838849  0  0  0.419602  0  0.904988  0  0  0.430128  0  0.889208  0  0  0.313141  0.411988  0  0.916446  0
H  H10  1  0.42593449  0.91139199  0.44264401  1  0  0.440417  0  0.851659  0  0  0.411154  0  0.913272  0  0  0.421043  0  0.898721  0  0  0.309413  0.404144  0  0.923632  0
H  H11  1  0.48342709  0.46866940  0.55751541  1  0  0.440794  0  0.852208  0  0  0.411349  0  0.913317  0  0  0.421236  0  0.898767  0  0  0.309794  0.404309  0  0.92377  0
H  H12  1  0.36799044  0.76497849  0.54676657  1  0  0.429611  0  0.875444  0  0  0.396941  0  0.941527  0  0  0.408766  0  0.92414  0  0  0.297135  0.388516  0  0.95394  0
H  H13  1  0.32110466  0.21816188  0.45324274  1  0  0.430118  0  0.874829  0  0  0.397455  0  0.940769  0  0  0.409262  0  0.923421  0  0  0.297329  0.389042  0  0.953154  0
H  H14  1  0.46454728  0.82699434  0.72523925  1  0  0.439311  0  0.849145  0  0  0.407603  0  0.917752  0  0  0.417663  0  0.902883  0  0  0.304573  0.400444  0  0.928349  0
H  H15  1  0.23912424  0.10189088  0.27469513  1  0  0.437396  0  0.851028  0  0  0.405682  0  0.920227  0  0  0.415748  0  0.905365  0  0  0.303804  0.398569  0  0.93072  0
H  H16  1  0.13442099  0.79098869  0.73239620  1  0  0.425918  0  0.881024  0  0  0.396973  0  0.942003  0  0  0.406801  0  0.927633  0  0  0.299862  0.390007  0  0.952223  0
H  H17  1  0.90200396  0.05865519  0.26747822  1  0  0.426053  0  0.881015  0  0  0.396981  0  0.942167  0  0  0.406793  0  0.927829  0  0  0.299538  0.390098  0  0.952256  0
H  H18  1  0.98398462  0.65515694  0.57166045  1  0  0.449834  0  0.839133  0  0  0.421538  0  0.899069  0  0  0.431607  0  0.883977  0  0  0.30764  0.414238  0  0.910066  0
H  H19  1  0.91234107  0.08342806  0.42816841  1  0  0.449978  0  0.839228  0  0  0.421648  0  0.899187  0  0  0.431716  0  0.884105  0  0  0.307394  0.414345  0  0.910149  0
H  H20  1  0.25951108  0.02636914  0.87767666  1  0  0.425727  0  0.881486  0  0  0.393981  0  0.945179  0  0  0.405909  0  0.927978  0  0  0.29895  0.385566  0  0.957333  0
H  H21  1  0.88171035  0.14885561  0.12230981  1  0  0.426101  0  0.879298  0  0  0.394132  0  0.944577  0  0  0.406095  0  0.92732  0  0  0.299343  0.385712  0  0.956759  0
H  H22  1  0.25163554  0.15782640  0.82838851  1  0  0.421319  0  0.883448  0  0  0.389276  0  0.951508  0  0  0.399632  0  0.936365  0  0  0.301752  0.382063  0  0.962023  0
H  H23  1  0.92307836  0.32960250  0.17164113  1  0  0.420794  0  0.884213  0  0  0.389188  0  0.951546  0  0  0.399537  0  0.936397  0  0  0.301781  0.381939  0  0.962146  0
H  H24  1  0.16795874  0.06490097  0.58455883  1  0  0.428839  0  0.8752  0  0  0.395409  0  0.942844  0  0  0.407109  0  0.925577  0  0  0.300112  0.387176  0  0.955014  0
H  H25  1  0.08341040  0.48036355  0.41541221  1  0  0.43074  0  0.872343  0  0  0.39697  0  0.940486  0  0  0.408648  0  0.923249  0  0  0.300856  0.388675  0  0.952751  0
H  H26  1  0.07559248  0.88488557  0.46584624  1  0  0.440513  0  0.850929  0  0  0.410314  0  0.912723  0  0  0.420097  0  0.898464  0  0  0.30495  0.403333  0  0.922957  0
H  H27  1  0.10975339  0.41893115  0.53403608  1  0  0.441066  0  0.850557  0  0  0.41042  0  0.91321  0  0  0.420239  0  0.8989  0  0  0.304539  0.40338  0  0.923534  0
H  H28  1  0.71054316  0.15514705  0.93875381  1  0  0.440684  0  0.854125  0  0  0.413596  0  0.911367  0  0  0.423999  0  0.895932  0  0  0.298712  0.405998  0  0.922672  0
H  H29  1  0.27180336  0.21640388  0.06123174  1  0  0.440352  0  0.854584  0  0  0.413599  0  0.911321  0  0  0.424029  0  0.895846  0  0  0.298728  0.406131  0  0.922409  0
H  H30  1  0.57515318  0.15824265  0.79210800  1  0  0.440028  0  0.858479  0  0  0.409227  0  0.921341  0  0  0.419247  0  0.906708  0  0  0.299932  0.402052  0  0.931851  0
H  H31  1  0.28299701  0.36622335  0.20781988  1  0  0.439761  0  0.85904  0  0  0.408547  0  0.922474  0  0  0.418617  0  0.907782  0  0  0.299931  0.401388  0  0.93293  0
C  C32  1  0.95352618  0.74333599  0.98155386  1  0  -0.094261  0  3.751255  0  0  -0.067804  0  3.992342  0  0  -0.079291  0  4.016561  0  0  -0.02059  -0.060509  0  3.975973  0
C  C33  1  0.47175590  0.76162585  0.01842273  1  0  -0.094325  0  3.749864  0  0  -0.067898  0  3.990896  0  0  -0.079402  0  4.015129  0  0  -0.019838  -0.060608  0  3.974668  0
C  C34  1  0.89829418  0.60523661  0.84541692  1  0  -0.031323  0  3.634002  0  0  -0.070539  0  3.883061  0  0  -0.065199  0  3.899806  0  0  -0.061765  -0.073273  0  3.872077  0
C  C35  1  0.55253841  0.75967776  0.15455672  1  0  -0.030196  0  3.632516  0  0  -0.069388  0  3.88125  0  0  -0.064026  0  3.89796  0  0  -0.061882  -0.072291  0  3.870105  0
C  C36  1  0.93305608  0.47158529  0.84664189  1  0  -0.086321  0  3.713603  0  0  -0.061429  0  3.953899  0  0  -0.072856  0  3.977206  0  0  -0.016951  -0.054146  0  3.937989  0
C  C37  1  0.58614319  0.62485129  0.15338029  1  0  -0.087026  0  3.71278  0  0  -0.06194  0  3.952735  0  0  -0.073415  0  3.976041  0  0  -0.016971  -0.054755  0  3.936944  0
C  C38  1  0.01872717  0.47568610  0.98503055  1  0  -0.034473  0  3.665781  0  0  -0.073605  0  3.918356  0  0  -0.068139  0  3.935516  0  0  -0.064157  -0.076542  0  3.905656  0
C  C39  1  0.53369920  0.49051565  0.01503909  1  0  -0.033274  0  3.66366  0  0  -0.072988  0  3.916139  0  0  -0.067357  0  3.933237  0  0  -0.064158  -0.075629  0  3.9033  0
C  C40  1  0.06796307  0.61150418  0.12111405  1  0  -0.098671  0  3.780988  0  0  -0.072783  0  4.026344  0  0  -0.084675  0  4.051056  0  0  -0.022664  -0.065074  0  4.010006  0
C  C41  1  0.44687820  0.49019331  0.87891375  1  0  -0.10059  0  3.781213  0  0  -0.074238  0  4.026545  0  0  -0.086104  0  4.051188  0  0  -0.022929  -0.066673  0  4.010015  0
C  C42  1  0.03734515  0.74488205  0.11813059  1  0  -0.037947  0  3.696503  0  0  -0.079323  0  3.94924  0  0  -0.074492  0  3.967421  0  0  -0.069776  -0.082879  0  3.937897  0
C  C43  1  0.41905405  0.62650672  0.88187156  1  0  -0.036677  0  3.695335  0  0  -0.078102  0  3.94777  0  0  -0.073281  0  3.965964  0  0  -0.069856  -0.081823  0  3.936771  0
C  C44  1  0.92245729  0.88946330  0.98438530  1  0  0.710364  0  3.835253  0  0  0.653152  0  4.135251  0  0  0.687891  0  4.126667  0  0  0.232355  0.62994  0  4.139879  0
C  C45  1  0.43793127  0.90489853  0.01550472  1  0  0.70977  0  3.835953  0  0  0.652897  0  4.135508  0  0  0.687632  0  4.126918  0  0  0.232523  0.629645  0  4.14009  0
C  C46  1  0.87209970  0.32067762  0.70190863  1  0  0.716594  0  3.832776  0  0  0.668213  0  4.122745  0  0  0.703575  0  4.112943  0  0  0.231109  0.644368  0  4.128537  0
C  C47  1  0.66995594  0.61884662  0.29819500  1  0  0.717873  0  3.835032  0  0  0.669659  0  4.124699  0  0  0.705042  0  4.114845  0  0  0.232287  0.645712  0  4.130628  0
C  C48  1  0.14631808  0.61738396  0.27035510  1  0  0.696842  0  3.822283  0  0  0.630246  0  4.12845  0  0  0.664811  0  4.120642  0  0  0.232294  0.606509  0  4.133516  0
C  C49  1  0.37596401  0.34682273  0.72963866  1  0  0.697599  0  3.820377  0  0  0.630609  0  4.12718  0  0  0.665135  0  4.119419  0  0  0.232253  0.607152  0  4.131868  0
O  O50  1  0.84582528  0.88794997  0.86103805  1  0  -0.710257  0  2.080157  0  0  -0.661142  0  2.340114  0  0  -0.686888  0  2.330772  0  0  -0.392875  -0.643372  0  2.345892  0
O  O51  1  0.48463893  0.02679009  0.13882361  1  0  -0.710115  0  2.080979  0  0  -0.661491  0  2.341225  0  0  -0.687123  0  2.331707  0  0  -0.393221  -0.643498  0  2.346907  0
O  O52  1  0.97611149  0.01052887  0.11434863  1  0  -0.668205  0  2.040452  0  0  -0.591575  0  2.253825  0  0  -0.618469  0  2.242749  0  0  -0.30684  -0.572672  0  2.260845  0
O  O53  1  0.36171557  0.89595197  0.88551254  1  0  -0.667519  0  2.039148  0  0  -0.591147  0  2.252023  0  0  -0.61805  0  2.241061  0  0  -0.306453  -0.572183  0  2.259045  0
O  O54  1  0.20582446  0.74878215  0.38993032  1  0  -0.650949  0  2.049624  0  0  -0.575044  0  2.266213  0  0  -0.601673  0  2.255919  0  0  -0.297614  -0.556383  0  2.273261  0
O  O55  1  0.31572332  0.35866738  0.61009016  1  0  -0.650418  0  2.049371  0  0  -0.574035  0  2.266064  0  0  -0.600709  0  2.255887  0  0  -0.297009  -0.555406  0  2.272864  0
O  O56  1  0.14812999  0.49093176  0.27421313  1  0  -0.659174  0  2.064633  0  0  -0.57985  0  2.279911  0  0  -0.60655  0  2.269276  0  0  -0.301249  -0.56132  0  2.287081  0
O  O57  1  0.37399301  0.21650621  0.72572321  1  0  -0.659275  0  2.063044  0  0  -0.580077  0  2.278475  0  0  -0.606748  0  2.267853  0  0  -0.301279  -0.561712  0  2.285656  0
O  O58  1  0.74884439  0.30684062  0.58133057  1  0  -0.73417  0  2.051473  0  0  -0.678417  0  2.297045  0  0  -0.704924  0  2.287693  0  0  -0.38991  -0.65956  0  2.302819  0
O  O59  1  0.66743533  0.72572096  0.41873289  1  0  -0.735508  0  2.055251  0  0  -0.67908  0  2.299939  0  0  -0.705584  0  2.29056  0  0  -0.390918  -0.66018  0  2.305633  0
O  O60  1  0.94249268  0.21456784  0.70933187  1  0  -0.721074  0  2.051946  0  0  -0.670578  0  2.300457  0  0  -0.696706  0  2.292051  0  0  -0.379155  -0.652151  0  2.30551  0
O  O61  1  0.73304539  0.50537265  0.29089335  1  0  -0.720787  0  2.050378  0  0  -0.671244  0  2.299674  0  0  -0.697344  0  2.291198  0  0  -0.379436  -0.652711  0  2.305026  0
O  O62  1  0.56122846  0.99194042  0.50577721  1  0  -0.92624  0  1.943015  0  0  -0.888185  0  2.149073  0  0  -0.905047  0  2.11584  0  0  -0.651386  -0.876117  0  2.172755  0
O  O63  1  0.55556822  0.48621053  0.49442666  1  0  -0.925916  0  1.944626  0  0  -0.888147  0  2.149982  0  0  -0.904959  0  2.11666  0  0  -0.651665  -0.875921  0  2.173638  0
O  O64  1  0.49191330  0.78278559  0.63098819  1  0  -0.909576  0  1.913296  0  0  -0.86473  0  2.112213  0  0  -0.882899  0  2.078235  0  0  -0.635586  -0.851629  0  2.136434  0
O  O65  1  0.36076745  0.15184394  0.36892684  1  0  -0.908466  0  1.91355  0  0  -0.863312  0  2.113567  0  0  -0.88149  0  2.079559  0  0  -0.635165  -0.850301  0  2.13754  0
O  O66  1  0.01718027  0.76650328  0.64240326  1  0  -0.93519  0  1.918006  0  0  -0.901068  0  2.116322  0  0  -0.917772  0  2.084823  0  0  -0.647168  -0.888527  0  2.138841  0
O  O67  1  0.87467835  0.12405836  0.35747208  1  0  -0.935169  0  1.918494  0  0  -0.900809  0  2.117249  0  0  -0.917618  0  2.085672  0  0  -0.646349  -0.888654  0  2.13958  0
O  O68  1  0.17635537  0.09584929  0.86407241  1  0  -0.892518  0  1.912098  0  0  -0.844593  0  2.102478  0  0  -0.864305  0  2.069756  0  0  -0.610015  -0.830846  0  2.125309  0
O  O69  1  0.81213748  0.23191878  0.13595820  1  0  -0.892075  0  1.911007  0  0  -0.844321  0  2.10182  0  0  -0.863905  0  2.068975  0  0  -0.610311  -0.830599  0  2.124912  0
O  O70  1  0.03560904  0.97725047  0.51807604  1  0  -0.907507  0  1.919989  0  0  -0.863021  0  2.112677  0  0  -0.881815  0  2.080158  0  0  -0.62015  -0.849779  0  2.135756  0
O  O71  1  0.01753812  0.45908607  0.48184522  1  0  -0.910193  0  1.918015  0  0  -0.864942  0  2.110557  0  0  -0.883857  0  2.078176  0  0  -0.620323  -0.851554  0  2.133786  0
O  O72  1  0.67742111  0.11442358  0.82887103  1  0  -0.941817  0  1.902763  0  0  -0.904695  0  2.101137  0  0  -0.922634  0  2.069806  0  0  -0.656807  -0.892355  0  2.123537  0
O  O73  1  0.34845644  0.28558061  0.17113945  1  0  -0.941644  0  1.903894  0  0  -0.904138  0  2.101876  0  0  -0.922237  0  2.070569  0  0  -0.656842  -0.891692  0  2.123781  0
