# generated using pymatgen
data_MnH6(C2O3)2
_symmetry_space_group_name_H-M   'P 1'
_cell_length_a   7.59418025
_cell_length_b   9.06400577
_cell_length_c   9.29168221
_cell_angle_alpha   89.99969757
_cell_angle_beta   89.99977838
_cell_angle_gamma   89.99939544
_symmetry_Int_Tables_number   1
_chemical_formula_structural   MnH6(C2O3)2
_chemical_formula_sum   'Mn4 H24 C16 O24'
_cell_volume   639.58080625
_cell_formula_units_Z   4
loop_
 _symmetry_equiv_pos_site_id
 _symmetry_equiv_pos_as_xyz
  1  'x, y, z'
loop_
 _atom_site_type_symbol
 _atom_site_label
 _atom_site_symmetry_multiplicity
 _atom_site_fract_x
 _atom_site_fract_y
 _atom_site_fract_z
 _atom_site_occupancy
 _atom_site_hle17_ddec_charge
 _atom_site_hle17_ddec_spin_density
 _atom_site_hle17_ddec_sum_bond_order
 _atom_site_hle17_magmom
 _atom_site_hse06_10hf_ddec_charge
 _atom_site_hse06_10hf_ddec_spin_density
 _atom_site_hse06_10hf_ddec_sum_bond_order
 _atom_site_hse06_10hf_magmom
 _atom_site_hse06_ddec_charge
 _atom_site_hse06_ddec_spin_density
 _atom_site_hse06_ddec_sum_bond_order
 _atom_site_hse06_magmom
 _atom_site_pbe_cm5_charge
 _atom_site_pbe_ddec_charge
 _atom_site_pbe_ddec_spin_density
 _atom_site_pbe_ddec_sum_bond_order
 _atom_site_pbe_magmom
Mn  Mn0  1  0.85560510  0.77731168  0.75262731  1  1.241396  4.812869  1.608725  4.692  1.077424  4.749466  2.086518  4.562  1.139596  4.785986  2.014171  4.617  0.601518  1.027869  4.713218  2.139859  4.508
Mn  Mn1  1  0.64439436  0.22269301  0.25264416  1  1.241293  4.812787  1.608743  4.692  1.07735  4.749398  2.08656  4.562  1.139523  4.785918  2.014217  4.617  0.601436  1.027783  4.71315  2.139906  4.508
Mn  Mn2  1  0.14440574  0.27731689  0.74736962  1  1.241299  4.812845  1.608619  4.692  1.077431  4.749467  2.086426  4.562  1.139609  4.785987  2.014081  4.617  0.601463  1.027868  4.713219  2.139764  4.508
Mn  Mn3  1  0.35558980  0.72268743  0.24736691  1  1.241252  4.812831  1.608518  4.692  1.077407  4.749468  2.086265  4.562  1.13958  4.785987  2.013925  4.617  0.60144  1.027832  4.713222  2.139602  4.508
H  H4  1  0.83659180  0.56708196  0.52947901  1  0.440818  -0.000349  0.827105  0.001  0.407428  0.000351  0.906126  0.002  0.419134  7e-06  0.888845  0.002  0.308764  0.398895  0.000748  0.918695  0.002
H  H5  1  0.66339425  0.43290721  0.02948576  1  0.440851  -0.000348  0.826999  0.001  0.407434  0.000352  0.906112  0.002  0.419139  7e-06  0.888833  0.002  0.308737  0.398903  0.000748  0.918679  0.002
H  H6  1  0.16340468  0.06709123  0.97050851  1  0.440851  -0.000347  0.827008  0.001  0.407441  0.000352  0.906095  0.002  0.419148  8e-06  0.888812  0.002  0.308749  0.398907  0.000748  0.918666  0.002
H  H7  1  0.33660953  0.93291538  0.47049812  1  0.440916  -0.000349  0.826928  0.001  0.407502  0.000352  0.906021  0.002  0.419209  8e-06  0.888738  0.002  0.308747  0.398971  0.000748  0.918589  0.002
H  H8  1  0.71681102  0.69427364  0.46484376  1  0.433408  -4.1e-05  0.860412  0.002  0.402922  0.000733  0.922333  0.003  0.414114  0.000334  0.906167  0.002  0.301005  0.39481  0.001219  0.934041  0.003
H  H9  1  0.78319130  0.30571735  0.96484386  1  0.433583  -4e-05  0.860159  0.002  0.402996  0.000733  0.922233  0.003  0.414194  0.000334  0.906059  0.002  0.301028  0.394883  0.001219  0.933943  0.003
H  H10  1  0.28318451  0.19427542  0.03515819  1  0.433573  -4e-05  0.860186  0.002  0.40298  0.000734  0.922263  0.003  0.414178  0.000335  0.906091  0.002  0.301024  0.394869  0.001219  0.93397  0.003
H  H11  1  0.21682134  0.80572385  0.53515573  1  0.433464  -4.1e-05  0.860351  0.002  0.402938  0.000734  0.922333  0.003  0.414134  0.000335  0.906162  0.002  0.300986  0.394827  0.001219  0.93404  0.003
H  H12  1  0.54658632  0.13300237  0.82564129  1  0.103746  -0.000822  0.938296  0.0  0.112146  -0.000589  1.004809  0.0  0.114235  -0.000726  1.003145  0.0  0.115707  0.110799  -0.000402  1.00596  0.0
H  H13  1  0.95342770  0.86699271  0.32564357  1  0.103854  -0.000833  0.938187  0.0  0.11221  -0.000589  1.004733  0.0  0.114304  -0.000726  1.003072  0.0  0.115733  0.110864  -0.000402  1.005874  0.0
H  H14  1  0.45341439  0.63301760  0.67435750  1  0.103915  -0.000824  0.938158  0.0  0.112273  -0.000588  1.004687  0.0  0.114369  -0.000725  1.00303  0.0  0.115738  0.110922  -0.000402  1.005844  0.0
H  H15  1  0.04657976  0.36697978  0.17434627  1  0.103794  -0.000819  0.938176  0.0  0.112184  -0.000589  1.004717  0.0  0.114276  -0.000725  1.003055  0.0  0.115704  0.110836  -0.000401  1.005866  0.0
H  H16  1  0.67450848  0.05176810  0.96521102  1  0.105222  -0.000211  0.952099  0.0  0.114926  0.000371  1.018317  0.0  0.117227  0.000122  1.01664  0.0  0.120083  0.113256  0.000598  1.0197  0.001
H  H17  1  0.82551096  0.94823063  0.46521597  1  0.105192  -0.000223  0.952162  0.0  0.114884  0.000372  1.018375  0.0  0.117185  0.000123  1.016697  0.0  0.120107  0.113218  0.000599  1.019759  0.001
H  H18  1  0.32550102  0.55177404  0.53477631  1  0.105303  -0.000206  0.952152  0.0  0.114971  0.000372  1.018355  0.0  0.117274  0.000123  1.016687  0.0  0.120072  0.113303  0.0006  1.019736  0.001
H  H19  1  0.17449298  0.44822632  0.03477564  1  0.10526  -0.000206  0.952116  0.0  0.114975  0.000372  1.018322  0.0  0.117278  0.000123  1.01664  0.0  0.120091  0.113307  0.0006  1.019709  0.001
H  H20  1  0.35520574  0.82354393  0.84089593  1  0.110248  -0.000561  0.930682  0.0  0.119333  -0.000415  0.992292  0.0  0.121875  -0.000558  0.990661  0.0  0.114716  0.117536  -0.000216  0.993631  0.0
H  H21  1  0.14480834  0.17645512  0.34088424  1  0.110176  -0.000573  0.930725  0.0  0.119316  -0.000415  0.992307  0.0  0.121865  -0.000558  0.990667  0.0  0.114699  0.117517  -0.000215  0.993638  0.0
H  H22  1  0.64478580  0.32354928  0.65915322  1  0.110331  -0.000562  0.930557  0.0  0.119431  -0.000415  0.992164  0.0  0.121975  -0.000558  0.990531  0.0  0.11479  0.117641  -0.000215  0.993499  0.0
H  H23  1  0.85519513  0.67645186  0.15913919  1  0.11027  -0.000564  0.930545  0.0  0.11942  -0.000415  0.992112  0.0  0.12197  -0.000558  0.990469  0.0  0.114768  0.117628  -0.000215  0.993451  0.0
H  H24  1  0.45989211  0.90506096  0.99136650  1  0.10846  0.00025  0.974141  0.0  0.114289  0.000819  1.044784  0.0  0.117326  0.000539  1.042065  0.0  0.118284  0.112213  0.001103  1.046745  0.001
H  H25  1  0.04012740  0.09493897  0.49136132  1  0.108488  0.000246  0.974179  0.0  0.114368  0.000819  1.04475  0.0  0.117402  0.000538  1.042037  0.0  0.118339  0.112296  0.001102  1.04671  0.001
H  H26  1  0.54014856  0.40507937  0.50865642  1  0.108569  0.000245  0.974008  0.0  0.114402  0.000819  1.044644  0.0  0.117437  0.000538  1.041934  0.0  0.118341  0.11233  0.001102  1.046608  0.001
H  H27  1  0.95983748  0.59492200  0.00864421  1  0.108525  0.000249  0.974015  0.0  0.114358  0.000819  1.044644  0.0  0.117394  0.000538  1.041931  0.0  0.118366  0.112289  0.001102  1.046609  0.001
C  C28  1  0.82209729  0.09771923  0.77691819  1  0.689771  0.007709  3.847613  0.007  0.631218  0.01419  4.156295  0.011  0.666148  0.01087  4.149533  0.009  0.226012  0.606565  0.017607  4.16024  0.014
C  C29  1  0.67790088  0.90227674  0.27692467  1  0.68976  0.007698  3.847533  0.007  0.631245  0.014189  4.156163  0.011  0.666183  0.010866  4.149404  0.009  0.226039  0.60659  0.017605  4.160111  0.014
C  C30  1  0.17788502  0.59773812  0.72306972  1  0.68961  0.007722  3.848061  0.007  0.631402  0.014192  4.156141  0.011  0.666356  0.010871  4.149378  0.009  0.226051  0.606739  0.017607  4.160091  0.014
C  C31  1  0.32209996  0.40226940  0.22307604  1  0.689792  0.007706  3.847396  0.007  0.631371  0.014189  4.155858  0.011  0.666306  0.010869  4.149103  0.009  0.226071  0.606717  0.017605  4.159795  0.014
C  C32  1  0.65214387  0.05333363  0.84824192  1  -0.099833  0.00106  3.65042  0.001  -0.157034  0.002319  3.909512  0.002  -0.155616  0.001391  3.91153  0.001  -0.071328  -0.158142  0.003326  3.908137  0.002
C  C33  1  0.84786228  0.94666258  0.34824357  1  -0.099933  0.001097  3.650453  0.001  -0.157125  0.00232  3.909534  0.002  -0.155686  0.001393  3.911496  0.001  -0.071409  -0.158248  0.003328  3.908175  0.002
C  C34  1  0.34784971  0.55334950  0.65175177  1  -0.100297  0.001054  3.65061  0.001  -0.157547  0.00232  3.909632  0.002  -0.156137  0.001393  3.911622  0.001  -0.071439  -0.158658  0.003329  3.908271  0.002
C  C35  1  0.15213783  0.44665558  0.15175028  1  -0.100067  0.001045  3.650315  0.001  -0.157401  0.002325  3.909495  0.002  -0.155974  0.001391  3.911477  0.001  -0.071467  -0.158518  0.003329  3.908136  0.002
C  C36  1  0.48264494  0.83743214  0.89542126  1  -0.109236  0.000908  3.622102  0.001  -0.16262  0.002555  3.876411  0.002  -0.161455  0.001592  3.878218  0.001  -0.074951  -0.163571  0.003464  3.875104  0.002
C  C37  1  0.01737051  0.16257183  0.39542096  1  -0.109153  0.000936  3.622046  0.001  -0.162667  0.002557  3.876337  0.002  -0.161509  0.001593  3.878149  0.001  -0.074954  -0.163634  0.003465  3.875046  0.002
C  C38  1  0.51736398  0.33743576  0.60459910  1  -0.10965  0.00092  3.621767  0.001  -0.163157  0.002557  3.876301  0.002  -0.161996  0.001595  3.878093  0.001  -0.07517  -0.164138  0.003467  3.875036  0.002
C  C39  1  0.98261821  0.66256266  0.10458605  1  -0.109358  0.000908  3.621767  0.001  -0.162862  0.002558  3.87623  0.002  -0.161704  0.001592  3.878032  0.001  -0.075075  -0.163855  0.003466  3.874972  0.002
C  C40  1  0.55546689  0.68851807  0.94113500  1  0.676776  0.005554  3.87144  0.006  0.623671  0.011049  4.176993  0.01  0.657853  0.008164  4.171176  0.008  0.215289  0.599845  0.014142  4.180016  0.013
C  C41  1  0.94454989  0.31148387  0.44113171  1  0.676843  0.005543  3.871411  0.006  0.623793  0.011053  4.176885  0.01  0.657974  0.008168  4.171067  0.008  0.215352  0.599976  0.014147  4.179906  0.013
C  C42  1  0.44454410  0.18852014  0.55888103  1  0.67714  0.005567  3.871279  0.006  0.624071  0.011062  4.176791  0.01  0.65826  0.008176  4.170959  0.008  0.215414  0.600251  0.014158  4.179817  0.013
C  C43  1  0.05544334  0.81146597  0.05885810  1  0.677309  0.005558  3.87115  0.006  0.624227  0.011055  4.176691  0.01  0.658416  0.008169  4.170859  0.008  0.215523  0.600412  0.01415  4.17972  0.013
O  O44  1  0.89913988  0.00870820  0.69315848  1  -0.620163  0.030044  2.019194  0.018  -0.553973  0.038703  2.276539  0.023  -0.583665  0.033809  2.263007  0.019  -0.286994  -0.53173  0.043688  2.285346  0.028
O  O45  1  0.60086611  0.99129905  0.19316575  1  -0.620026  0.030036  2.018857  0.018  -0.553969  0.0387  2.27631  0.023  -0.583678  0.033808  2.262793  0.019  -0.286982  -0.531722  0.043684  2.285115  0.028
O  O46  1  0.10084523  0.50872191  0.80682380  1  -0.619821  0.030022  2.01896  0.018  -0.554017  0.038706  2.276458  0.023  -0.583742  0.033812  2.262948  0.019  -0.286873  -0.531765  0.043689  2.285263  0.028
O  O47  1  0.39913589  0.49128317  0.30682768  1  -0.619974  0.030034  2.018884  0.018  -0.553977  0.038701  2.276308  0.023  -0.583672  0.033809  2.262781  0.019  -0.286945  -0.531733  0.043686  2.285112  0.028
O  O48  1  0.69122272  0.63811181  0.87679671  1  -0.653028  0.036396  2.032114  0.026  -0.584281  0.042128  2.296073  0.028  -0.616056  0.036415  2.28189  0.022  -0.309767  -0.560662  0.04779  2.305137  0.033
O  O49  1  0.80878083  0.36188472  0.37680869  1  -0.6529  0.036396  2.031768  0.026  -0.584223  0.042128  2.295749  0.028  -0.615994  0.036411  2.281566  0.022  -0.309777  -0.560607  0.047788  2.304809  0.033
O  O50  1  0.30878419  0.13812771  0.62322008  1  -0.653015  0.0364  2.03193  0.026  -0.584401  0.042142  2.296059  0.028  -0.616179  0.036424  2.281867  0.022  -0.309794  -0.560786  0.047805  2.305124  0.033
O  O51  1  0.19120596  0.86187154  0.12319651  1  -0.653109  0.036399  2.031516  0.026  -0.584514  0.042139  2.295658  0.028  -0.616299  0.036423  2.281468  0.022  -0.309915  -0.560891  0.047801  2.304721  0.033
O  O52  1  0.60367695  0.90940339  0.79931453  1  -0.280456  0.022947  2.364392  0.017  -0.19885  0.02938  2.612078  0.022  -0.217231  0.026098  2.611911  0.019  -0.213534  -0.184951  0.032728  2.611663  0.026
O  O53  1  0.89631467  0.09060473  0.29932001  1  -0.280628  0.022944  2.364422  0.017  -0.198928  0.029385  2.61204  0.022  -0.217304  0.026099  2.611874  0.019  -0.21357  -0.185024  0.032733  2.611635  0.026
O  O54  1  0.39630413  0.40941522  0.70069199  1  -0.280255  0.022954  2.364299  0.017  -0.198522  0.029385  2.611845  0.022  -0.21689  0.026098  2.611683  0.019  -0.213369  -0.184616  0.032733  2.611436  0.026
O  O55  1  0.10368346  0.59059340  0.20068361  1  -0.280534  0.022956  2.364309  0.017  -0.198779  0.029383  2.611896  0.022  -0.21715  0.026096  2.611724  0.019  -0.213471  -0.184871  0.032732  2.611486  0.026
O  O56  1  0.88071365  0.22609147  0.80952087  1  -0.658315  0.032263  2.054367  0.02  -0.581857  0.038309  2.306862  0.022  -0.615103  0.033974  2.293771  0.018  -0.298315  -0.557776  0.04264  2.315664  0.026
O  O57  1  0.61929246  0.77390612  0.30953086  1  -0.658221  0.032261  2.054459  0.02  -0.581812  0.038304  2.306941  0.022  -0.615062  0.033972  2.293854  0.018  -0.298304  -0.557736  0.042634  2.315747  0.026
O  O58  1  0.11928264  0.72611108  0.69044995  1  -0.658236  0.032272  2.054719  0.02  -0.581782  0.038308  2.306979  0.022  -0.615025  0.033975  2.293865  0.018  -0.298391  -0.557707  0.04264  2.315799  0.026
O  O59  1  0.38071416  0.27389703  0.19046327  1  -0.658298  0.032273  2.054412  0.02  -0.581758  0.038305  2.306758  0.022  -0.615011  0.033975  2.293671  0.018  -0.298338  -0.557689  0.042636  2.315574  0.026
O  O60  1  0.47638081  0.62012934  0.04089230  1  -0.649036  0.024116  1.988481  0.017  -0.587258  0.032091  2.24291  0.023  -0.617791  0.027847  2.232227  0.019  -0.303073  -0.56475  0.035848  2.249627  0.026
O  O61  1  0.02365139  0.37986139  0.54088133  1  -0.649075  0.024123  1.988714  0.017  -0.587342  0.03209  2.243167  0.023  -0.617875  0.027851  2.232481  0.019  -0.303133  -0.564841  0.03585  2.249884  0.026
O  O62  1  0.52362825  0.12015856  0.45910424  1  -0.649249  0.02413  1.988711  0.017  -0.587432  0.032108  2.243143  0.023  -0.617969  0.027866  2.232448  0.019  -0.303165  -0.564927  0.035866  2.249861  0.026
O  O63  1  0.97636749  0.87984427  0.95909676  1  -0.649312  0.024129  1.988927  0.017  -0.587483  0.032101  2.243312  0.023  -0.61802  0.027859  2.232621  0.019  -0.303157  -0.564984  0.035861  2.250039  0.026
O  O64  1  0.77419978  0.65868998  0.55468623  1  -0.839857  0.027887  1.848079  0.016  -0.77747  0.038529  2.063484  0.023  -0.800588  0.03413  2.024248  0.019  -0.563413  -0.760161  0.042487  2.091409  0.026
O  O65  1  0.72579420  0.34130044  0.05468599  1  -0.84004  0.027883  1.847751  0.016  -0.777574  0.038525  2.063344  0.023  -0.800697  0.034128  2.024099  0.019  -0.563395  -0.760267  0.042483  2.091272  0.026
O  O66  1  0.22580161  0.15870132  0.94531215  1  -0.84002  0.027887  1.847831  0.016  -0.777538  0.038531  2.063397  0.023  -0.800661  0.034132  2.02415  0.019  -0.563378  -0.760229  0.042488  2.091323  0.026
O  O67  1  0.27421521  0.84130183  0.44531071  1  -0.839962  0.02789  1.847845  0.016  -0.777583  0.038531  2.063395  0.023  -0.800709  0.034133  2.02416  0.019  -0.56334  -0.760276  0.04249  2.091318  0.026
