# generated using pymatgen
data_Mg2H15C28NO9
_symmetry_space_group_name_H-M   'P 1'
_cell_length_a   6.85428686
_cell_length_b   41.49800257
_cell_length_c   41.50891942
_cell_angle_alpha   119.69818574
_cell_angle_beta   93.15455952
_cell_angle_gamma   93.15541587
_symmetry_Int_Tables_number   1
_chemical_formula_structural   Mg2H15C28NO9
_chemical_formula_sum   'Mg6 H45 C84 N3 O27'
_cell_volume   10194.15753419
_cell_formula_units_Z   3
loop_
 _symmetry_equiv_pos_site_id
 _symmetry_equiv_pos_as_xyz
  1  'x, y, z'
loop_
 _atom_site_type_symbol
 _atom_site_label
 _atom_site_symmetry_multiplicity
 _atom_site_fract_x
 _atom_site_fract_y
 _atom_site_fract_z
 _atom_site_occupancy
 _atom_site_pbe_bader_charge
 _atom_site_pbe_bader_spin_density
 _atom_site_pbe_cm5_charge
 _atom_site_pbe_ddec_charge
 _atom_site_pbe_ddec_spin_density
 _atom_site_pbe_ddec_sum_bond_order
 _atom_site_pbe_magmom
Mg  Mg0  1  0.14593476  0.66939648  0.30938284  1  1.683247  0  0.909911  1.410542  0  1.329611  0
Mg  Mg1  1  0.83641639  0.69055127  0.35990906  1  1.682272  0  0.909789  1.410707  0  1.32868  0
Mg  Mg2  1  0.47647628  0.64001685  0.33052315  1  1.683396  0  0.909793  1.410602  0  1.329129  0
Mg  Mg3  1  0.68797374  0.33107144  0.69075355  1  1.683194  0  0.907564  1.41043  0  1.327395  0
Mg  Mg4  1  0.99722775  0.30928559  0.64033191  1  1.682703  0  0.907738  1.410459  0  1.3275  0
Mg  Mg5  1  0.35700992  0.35973687  0.66896314  1  1.684415  0  0.907555  1.410281  0  1.328006  0
H  H6  1  0.07354320  0.10457284  0.54676056  1  0.090137  0  0.10966  0.115051  0  0.999428  0
H  H7  1  0.52691476  0.45333177  0.55791264  1  0.112871  0  0.109596  0.11484  0  0.999684  0
H  H8  1  0.96941980  0.44212923  0.89528758  1  0.114719  0  0.109552  0.1147  0  0.999182  0
H  H9  1  0.85056402  0.04725061  0.51475808  1  0.081309  0  0.100389  0.099822  0  1.036296  0
H  H10  1  0.33621221  0.48531422  0.53252388  1  0.051396  0  0.100461  0.100032  0  1.036456  0
H  H11  1  0.80311889  0.46735251  0.95250228  1  0.084185  0  0.100302  0.099689  0  1.036796  0
H  H12  1  0.76137073  0.98956193  0.51080673  1  0.063544  0  0.104334  0.104933  0  0.998051  0
H  H13  1  0.25115473  0.48922505  0.47883899  1  0.065423  0  0.104239  0.1048  0  0.997924  0
H  H14  1  0.77046707  0.52095314  0.01026942  1  0.04219  0  0.10431  0.105044  0  0.997606  0
H  H15  1  0.57088618  0.92828501  0.48014773  1  0.046668  0  0.103915  0.099376  0  1.003616  0
H  H16  1  0.09103190  0.51987141  0.44824533  1  0.06441  0  0.103678  0.09879  0  1.003368  0
H  H17  1  0.64234514  0.55168751  0.07162519  1  0.050721  0  0.103534  0.098419  0  1.003525  0
H  H18  1  0.90433363  0.89175459  0.38512838  1  0.108074  0  0.111496  0.116104  0  0.991647  0
H  H19  1  0.51926620  0.61495023  0.50671248  1  0.108075  0  0.111538  0.116085  0  0.991722  0
H  H20  1  0.01365733  0.49334425  0.10813801  1  0.105734  0  0.111506  0.116744  0  0.99162  0
H  H21  1  0.09396572  0.95406668  0.41552828  1  0.049051  0  0.104899  0.106009  0  0.998272  0
H  H22  1  0.67868263  0.58457545  0.53862239  1  0.071335  0  0.104922  0.105951  0  0.998412  0
H  H23  1  0.13987954  0.46131632  0.04576131  1  0.074974  0  0.104573  0.105858  0  0.998349  0
H  H24  1  0.37960952  0.88147789  0.43569612  1  0.439532  0  0.318733  0.269715  0  0.942001  0
H  H25  1  0.94406151  0.56441698  0.44582573  1  0.442884  0  0.318398  0.269448  0  0.942014  0
H  H26  1  0.49895589  0.55417542  0.11854251  1  0.445053  0  0.318676  0.270052  0  0.941449  0
H  H27  1  0.60905135  0.79494945  0.40420688  1  0.094945  0  0.111315  0.126636  0  1.013531  0
H  H28  1  0.20537263  0.59590652  0.39079358  1  0.11557  0  0.111321  0.126865  0  1.0138  0
H  H29  1  0.81504158  0.60918042  0.20512452  1  0.127762  0  0.111062  0.126856  0  1.01312  0
H  H30  1  0.89187554  0.78058085  0.37020658  1  0.085801  0  0.109847  0.133817  0  1.003286  0
H  H31  1  0.52187362  0.62981698  0.41036943  1  0.099478  0  0.109958  0.133782  0  1.002748  0
H  H32  1  0.11166675  0.58960704  0.21924775  1  0.113171  0  0.110191  0.134129  0  1.003154  0
H  H33  1  0.06798445  0.84282095  0.40173691  1  0.091276  0  0.099422  0.107337  0  1.035876  0
H  H34  1  0.66696036  0.59842904  0.44117851  1  0.097614  0  0.099201  0.106357  0  1.036543  0
H  H35  1  0.22624102  0.55892908  0.15709201  1  0.101881  0  0.099002  0.1062  0  1.035581  0
H  H36  1  0.33291415  0.98477080  0.46063292  1  0.056248  0  0.098812  0.096011  0  1.022759  0
H  H37  1  0.87286841  0.53956159  0.52439321  1  0.071059  0  0.098825  0.096312  0  1.021975  0
H  H38  1  0.34716552  0.47556982  0.01511171  1  0.074025  0  0.098788  0.096207  0  1.023091  0
H  H39  1  0.55467722  0.04311846  0.49205900  1  0.062213  0  0.104499  0.10316  0  1.02513  0
H  H40  1  0.06292496  0.50813115  0.55135413  1  0.056474  0  0.10457  0.103535  0  1.024296  0
H  H41  1  0.51126695  0.44877869  0.95687893  1  0.094304  0  0.104517  0.103005  0  1.025143  0
H  H42  1  0.24062229  0.20330463  0.58724888  1  0.122899  0  0.114416  0.134636  0  0.99153  0
H  H43  1  0.65363556  0.41286188  0.61620321  1  0.129933  0  0.114204  0.134383  0  0.991438  0
H  H44  1  0.03769329  0.38391488  0.79669858  1  0.12391  0  0.114266  0.134625  0  0.99114  0
H  H45  1  0.94610537  0.22138809  0.63149656  1  0.0938  0  0.108298  0.124496  0  0.995304  0
H  H46  1  0.31447446  0.36848470  0.58977402  1  0.08636  0  0.108219  0.124686  0  0.995123  0
H  H47  1  0.72517719  0.41007103  0.77860533  1  0.082008  0  0.108283  0.124673  0  0.995013  0
H  H48  1  0.78266744  0.15736503  0.59195099  1  0.11572  0  0.112206  0.13094  0  1.000524  0
H  H49  1  0.19008161  0.40799260  0.56528782  1  0.117686  0  0.111947  0.12994  0  1.000142  0
H  H50  1  0.62579175  0.43447858  0.84261362  1  0.105484  0  0.11204  0.130379  0  1.00085  0
C  C51  1  0.47592783  0.11072248  0.54048552  1  1.448654  0  0.236217  0.515419  0  4.099714  0
C  C52  1  0.93543720  0.45966333  0.57043977  1  1.443654  0  0.236029  0.51498  0  4.099105  0
C  C53  1  0.36569979  0.42974094  0.88926447  1  1.448364  0  0.23615  0.515816  0  4.096975  0
C  C54  1  0.33074212  0.07750326  0.52197060  1  -0.031797  0  -0.021724  -0.056945  0  4.027586  0
C  C55  1  0.80894866  0.47817696  0.55572151  1  -0.056318  0  -0.021588  -0.055698  0  4.027435  0
C  C56  1  0.25334196  0.44435091  0.92242509  1  -0.058926  0  -0.021527  -0.056598  0  4.026759  0
C  C57  1  0.13128641  0.07834297  0.52817561  1  0.018767  0  -0.077432  -0.076737  0  3.96157  0
C  C58  1  0.60331524  0.47193090  0.55029268  1  -0.007039  0  -0.077682  -0.077565  0  3.962655  0
C  C59  1  0.05306392  0.44971336  0.92152352  1  -0.050002  0  -0.077843  -0.077484  0  3.960521  0
C  C60  1  0.00542385  0.04566878  0.51002307  1  -0.051004  0  -0.086537  -0.12663  0  3.956313  0
C  C61  1  0.49576210  0.49007159  0.53573944  1  0.002114  0  -0.086357  -0.126533  0  3.957199  0
C  C62  1  0.95945429  0.46417972  0.95414743  1  -0.092257  0  -0.086046  -0.125096  0  3.95486  0
C  C63  1  0.07419907  0.01141725  0.48522771  1  0.008333  0  -0.000901  0.076841  0  3.989786  0
C  C64  1  0.58943554  0.51488643  0.52632237  1  -0.021121  0  -0.00018  0.0782  0  3.990259  0
C  C65  1  0.06210149  0.47356886  0.98840424  1  0.037685  0  -0.000226  0.077519  0  3.989123  0
C  C66  1  0.94516900  0.97622639  0.46587049  1  -0.055498  0  -0.005281  0.070217  0  3.998653  0
C  C67  1  0.47975160  0.53420360  0.51044636  1  0.0428  0  -0.005741  0.068915  0  4.000982  0
C  C68  1  0.96822559  0.48940253  0.02358473  1  -0.058899  0  -0.006107  0.068006  0  4.000016  0
C  C69  1  0.79107004  0.96860615  0.48284434  1  -0.030002  0  -0.088813  -0.124461  0  3.973161  0
C  C70  1  0.30871416  0.51719799  0.48584551  1  -0.038952  0  -0.089407  -0.125685  0  3.973797  0
C  C71  1  0.82160305  0.51398419  0.03122713  1  -0.012753  0  -0.089412  -0.125277  0  3.972765  0
C  C72  1  0.68255560  0.93380298  0.46527604  1  -0.045467  0  -0.092263  -0.117891  0  4.018489  0
C  C73  1  0.21762077  0.53475982  0.46861327  1  -0.067987  0  -0.091451  -0.1159  0  4.016217  0
C  C74  1  0.74852357  0.53129689  0.06608265  1  -0.01697  0  -0.09085  -0.114849  0  4.01571  0
C  C75  1  0.72502986  0.90566810  0.43018021  1  -0.023169  0  -0.018253  -0.035553  0  4.012141  0
C  C76  1  0.29499959  0.56986684  0.47556419  1  -0.011602  0  -0.018151  -0.035207  0  4.009086  0
C  C77  1  0.81984031  0.52443192  0.09424407  1  -0.069998  0  -0.018706  -0.036371  0  4.012559  0
C  C78  1  0.87374315  0.91367468  0.41255113  1  -0.027556  0  -0.083223  -0.09221  0  3.99504  0
C  C79  1  0.46135994  0.58750943  0.50120420  1  -0.045187  0  -0.08375  -0.093527  0  3.994265  0
C  C80  1  0.96061789  0.49879798  0.08621183  1  -0.032765  0  -0.0834  -0.094165  0  3.997272  0
C  C81  1  0.98070758  0.94831151  0.42993759  1  -0.044181  0  -0.090532  -0.133824  0  3.990435  0
C  C82  1  0.55108487  0.57014742  0.51845884  1  -0.115579  0  -0.090211  -0.132353  0  3.989956  0
C  C83  1  0.03229062  0.48146754  0.05153012  1  -0.045891  0  -0.089582  -0.131557  0  3.989555  0
C  C84  1  0.63534882  0.86614996  0.41083667  1  1.374219  0  0.233266  0.46071  0  4.151509  0
C  C85  1  0.22477528  0.58924652  0.45542028  1  1.36914  0  0.233616  0.461822  0  4.149017  0
C  C86  1  0.77020643  0.54464827  0.13378539  1  1.417242  0  0.233351  0.461282  0  4.151806  0
C  C87  1  0.35406360  0.82346103  0.40472466  1  0.334714  0  0.071244  0.199495  0  4.078618  0
C  C88  1  0.94986206  0.59539509  0.41880004  1  0.295097  0  0.071314  0.198829  0  4.07754  0
C  C89  1  0.53158824  0.58120411  0.17652083  1  0.326033  0  0.071476  0.199948  0  4.07779  0
C  C90  1  0.45234081  0.79229357  0.39667650  1  -0.021081  0  -0.08487  -0.149435  0  3.95981  0
C  C91  1  0.05616063  0.60342306  0.39566404  1  0.017262  0  -0.084932  -0.149695  0  3.959801  0
C  C92  1  0.66084525  0.60431096  0.20771288  1  -0.008414  0  -0.084675  -0.150391  0  3.959918  0
C  C93  1  0.35334197  0.75631389  0.37783224  1  -0.004296  0  -0.040216  -0.196096  0  3.970274  0
C  C94  1  0.97573877  0.62219565  0.37846572  1  -0.006269  0  -0.040612  -0.196171  0  3.96984  0
C  C95  1  0.59735939  0.62150090  0.24364799  1  0.012233  0  -0.0402  -0.194731  0  3.969928  0
C  C96  1  0.14679517  0.75138323  0.36713155  1  0.592641  0  0.092861  0.359891  0  4.08584  0
C  C97  1  0.77978858  0.63284994  0.38419356  1  0.581566  0  0.093384  0.360224  0  4.08461  0
C  C98  1  0.39565039  0.61576179  0.24854132  1  0.567331  0  0.093014  0.359848  0  4.086313  0
C  C99  1  0.04925728  0.78373513  0.37771156  1  0.013072  0  -0.103901  -0.196897  0  3.962927  0
C  C100  1  0.67178780  0.62231542  0.40600644  1  0.001503  0  -0.10431  -0.196952  0  3.962094  0
C  C101  1  0.26600150  0.59398969  0.21616318  1  -0.06814  0  -0.104333  -0.197623  0  3.962058  0
C  C102  1  0.15018618  0.81895296  0.39570942  1  -0.029064  0  -0.091093  -0.142684  0  3.994573  0
C  C103  1  0.75495052  0.60440191  0.42328885  1  -0.046819  0  -0.090551  -0.140691  0  3.993782  0
C  C104  1  0.33209633  0.57675424  0.18098750  1  -0.025141  0  -0.090556  -0.140722  0  3.991698  0
C  C105  1  0.47228743  0.72494633  0.36935648  1  1.511401  0  0.238709  0.679428  0  4.117646  0
C  C106  1  0.10301733  0.63061317  0.35552059  1  1.502752  0  0.238903  0.678646  0  4.118475  0
C  C107  1  0.74743769  0.64445274  0.27502448  1  1.507419  0  0.238849  0.678527  0  4.118734  0
C  C108  1  0.27446589  0.01103039  0.47910291  1  -0.041334  0  -0.090577  -0.132028  0  3.981844  0
C  C109  1  0.79584164  0.52106612  0.53214192  1  -0.078754  0  -0.090827  -0.132813  0  3.982558  0
C  C110  1  0.26277994  0.46782270  0.98884453  1  -0.040707  0  -0.090868  -0.132845  0  3.983327  0
C  C111  1  0.40022984  0.04350395  0.49702218  1  -0.011207  0  -0.082338  -0.084448  0  3.990596  0
C  C112  1  0.90352246  0.50315423  0.54672197  1  0.011627  0  -0.082232  -0.085041  0  3.991099  0
C  C113  1  0.35644520  0.45333838  0.95643259  1  -0.003458  0  -0.082434  -0.084315  0  3.992373  0
C  C114  1  0.50086252  0.17643758  0.58665101  1  0.346718  0  0.069656  0.235612  0  4.045902  0
C  C115  1  0.91410994  0.41341288  0.58984560  1  0.430803  0  0.069318  0.234492  0  4.04663  0
C  C116  1  0.32489344  0.41012645  0.82353841  1  0.352432  0  0.069553  0.235987  0  4.04484  0
C  C117  1  0.39574807  0.20710987  0.59691259  1  0.040076  0  -0.090058  -0.177518  0  3.974132  0
C  C118  1  0.79901760  0.40317922  0.61029632  1  -0.011196  0  -0.089642  -0.1762  0  3.975126  0
C  C119  1  0.18902262  0.38975738  0.79288567  1  -0.003305  0  -0.089917  -0.177064  0  3.974342  0
C  C120  1  0.48566311  0.24359746  0.61993980  1  -0.036078  0  -0.039995  -0.188794  0  3.96947  0
C  C121  1  0.86600510  0.38014638  0.62372836  1  -0.050381  0  -0.039753  -0.190088  0  3.970011  0
C  C122  1  0.24240550  0.37632896  0.75641196  1  -0.003171  0  -0.040178  -0.19058  0  3.970737  0
C  C123  1  0.69004785  0.24904572  0.63242018  1  0.594653  0  0.092099  0.356445  0  4.087506  0
C  C124  1  0.05788911  0.36763656  0.61664368  1  0.583379  0  0.091809  0.356654  0  4.085904  0
C  C125  1  0.44131068  0.38336208  0.75096006  1  0.578021  0  0.092429  0.357768  0  4.085472  0
C  C126  1  0.79106801  0.21707593  0.62162135  1  -0.019867  0  -0.104526  -0.195591  0  3.984956  0
C  C127  1  0.16942101  0.37838783  0.59540381  1  -0.020617  0  -0.104246  -0.196785  0  3.986255  0
C  C128  1  0.57445635  0.40449993  0.78291358  1  -0.092354  0  -0.105093  -0.196989  0  3.98489  0
C  C129  1  0.70006586  0.18128275  0.59944037  1  0.002723  0  -0.088702  -0.15125  0  4.002663  0
C  C130  1  0.10033183  0.40056123  0.58179883  1  -0.013352  0  -0.087915  -0.148274  0  4.001467  0
C  C131  1  0.51927845  0.41807055  0.81869716  1  0.094907  0  -0.087657  -0.149339  0  4.001886  0
C  C132  1  0.36216154  0.27469925  0.63016839  1  1.504047  0  0.237948  0.674575  0  4.120746  0
C  C133  1  0.73230126  0.36991021  0.64458990  1  1.50988  0  0.238604  0.676218  0  4.120843  0
C  C134  1  0.08772287  0.35547283  0.72531917  1  1.514649  0  0.238064  0.676076  0  4.119217  0
N  N135  1  0.45705663  0.85938105  0.42099038  1  -1.235063  0  -0.402488  -0.382465  0  3.584291  0
N  N136  1  0.03642101  0.57911424  0.43846027  1  -1.229923  0  -0.40245  -0.383034  0  3.583211  0
N  N137  1  0.59866375  0.56156227  0.14060922  1  -1.244626  0  -0.402604  -0.383794  0  3.586023  0
O  O138  1  0.65084520  0.73052110  0.38252733  1  -1.242801  0  -0.355385  -0.642434  0  2.14373  0
O  O139  1  0.26838110  0.61743228  0.34791637  1  -1.241631  0  -0.355761  -0.64216  0  2.144151  0
O  O140  1  0.92041024  0.65206393  0.26945610  1  -1.242861  0  -0.356117  -0.642299  0  2.144265  0
O  O141  1  0.39069205  0.69147624  0.34747044  1  -1.29886  0  -0.401582  -0.766064  0  2.417016  0
O  O142  1  0.04318552  0.65245051  0.34389060  1  -1.28722  0  -0.401202  -0.764949  0  2.415979  0
O  O143  1  0.69915192  0.65606582  0.30847922  1  -1.291093  0  -0.401387  -0.76554  0  2.41787  0
O  O144  1  0.04341630  0.71791128  0.34743766  1  -1.312477  0  -0.449449  -0.780374  0  2.318041  0
O  O145  1  0.69592323  0.65247368  0.37034605  1  -1.311512  0  -0.449822  -0.781138  0  2.317621  0
O  O146  1  0.32553330  0.62955480  0.28199213  1  -1.31039  0  -0.449464  -0.7808  0  2.31845  0
O  O147  1  0.18243918  0.26893379  0.61757182  1  -1.244598  0  -0.35337  -0.641195  0  2.14381  0
O  O148  1  0.56532506  0.38255610  0.65147086  1  -1.243257  0  -0.353517  -0.64159  0  2.144492  0
O  O149  1  0.91381124  0.34859419  0.73107531  1  -1.239095  0  -0.353303  -0.641895  0  2.143568  0
O  O150  1  0.44118536  0.30819294  0.65292124  1  -1.29672  0  -0.400197  -0.765995  0  2.410771  0
O  O151  1  0.78836596  0.34708587  0.65525329  1  -1.291183  0  -0.400866  -0.766729  0  2.41137  0
O  O152  1  0.13315154  0.34478946  0.69183657  1  -1.29254  0  -0.400307  -0.766407  0  2.411089  0
O  O153  1  0.79059114  0.28261810  0.65386502  1  -1.317018  0  -0.453352  -0.783892  0  2.319089  0
O  O154  1  0.13706360  0.34619988  0.62877647  1  -1.314779  0  -0.453327  -0.784095  0  2.318534  0
O  O155  1  0.50822170  0.37126351  0.71739638  1  -1.315382  0  -0.453488  -0.784518  0  2.31896  0
O  O156  1  0.39200135  0.14177302  0.56545550  1  -1.085093  0  -0.14162  -0.247904  0  2.555976  0
O  O157  1  0.82639048  0.43463513  0.57642589  1  -1.090846  0  -0.142107  -0.248308  0  2.555365  0
O  O158  1  0.25068460  0.42354619  0.85818303  1  -1.079589  0  -0.141643  -0.248545  0  2.556093  0
O  O159  1  0.64878849  0.11050482  0.53453151  1  -1.131521  0  -0.275876  -0.460077  0  2.136459  0
O  O160  1  0.11421021  0.46565033  0.57626258  1  -1.115507  0  -0.27578  -0.459914  0  2.135287  0
O  O161  1  0.53900208  0.42415566  0.88954742  1  -1.130962  0  -0.275805  -0.460299  0  2.13527  0
O  O162  1  0.72390423  0.84107404  0.38726407  1  -1.124901  0  -0.287083  -0.468295  0  2.133757  0
O  O163  1  0.33696500  0.61284569  0.45396808  1  -1.128825  0  -0.287156  -0.468612  0  2.132724  0
O  O164  1  0.88416679  0.54616590  0.15882139  1  -1.132841  0  -0.287244  -0.468359  0  2.134241  0
