# generated using pymatgen
data_SmAgH12C14N2O13
_symmetry_space_group_name_H-M   'P 1'
_cell_length_a   6.53803344
_cell_length_b   6.53800609
_cell_length_c   20.28904605
_cell_angle_alpha   96.05664656
_cell_angle_beta   96.05665053
_cell_angle_gamma   103.11689312
_symmetry_Int_Tables_number   1
_chemical_formula_structural   SmAgH12C14N2O13
_chemical_formula_sum   'Sm2 Ag2 H24 C28 N4 O26'
_cell_volume   832.38928478
_cell_formula_units_Z   2
loop_
 _symmetry_equiv_pos_site_id
 _symmetry_equiv_pos_as_xyz
  1  'x, y, z'
loop_
 _atom_site_type_symbol
 _atom_site_label
 _atom_site_symmetry_multiplicity
 _atom_site_fract_x
 _atom_site_fract_y
 _atom_site_fract_z
 _atom_site_occupancy
 _atom_site_hle17_bader_spin_density
 _atom_site_hle17_ddec_charge
 _atom_site_hle17_ddec_spin_density
 _atom_site_hle17_ddec_sum_bond_order
 _atom_site_hle17_magmom
 _atom_site_hse06_10hf_bader_spin_density
 _atom_site_hse06_10hf_ddec_charge
 _atom_site_hse06_10hf_ddec_spin_density
 _atom_site_hse06_10hf_ddec_sum_bond_order
 _atom_site_hse06_10hf_magmom
 _atom_site_hse06_bader_spin_density
 _atom_site_hse06_ddec_charge
 _atom_site_hse06_ddec_spin_density
 _atom_site_hse06_ddec_sum_bond_order
 _atom_site_hse06_magmom
 _atom_site_pbe_bader_spin_density
 _atom_site_pbe_cm5_charge
 _atom_site_pbe_ddec_charge
 _atom_site_pbe_ddec_spin_density
 _atom_site_pbe_ddec_sum_bond_order
 _atom_site_pbe_magmom
Sm  Sm0  1  0.96559245  0.03440741  0.75000125  1  0  2.238562  0  1.591081  0  0  2.052943  0  2.074272  0  0  2.097495  0  2.034343  0  0  1.464762  2.019948  0  2.103723  0
Sm  Sm1  1  0.03440790  0.96559433  0.25000027  1  0  2.238577  0  1.591101  0  0  2.053  0  2.07423  0  0  2.097554  0  2.034298  0  0  1.464796  2.020008  0  2.103679  0
Ag  Ag2  1  0.38114667  0.61885116  0.75000015  1  0  0.743099  0  1.096891  0  0  0.635637  0  1.479233  0  0  0.672001  0  1.425398  0  0  0.48002  0.608904  0  1.517318  0
Ag  Ag3  1  0.61884594  0.38114431  0.24999943  1  0  0.743053  0  1.096969  0  0  0.635606  0  1.479283  0  0  0.671971  0  1.425448  0  0  0.480022  0.608873  0  1.517369  0
H  H4  1  0.57303613  0.62860723  0.49964375  1  0  0.134198  0  0.995947  0  0  0.142073  0  1.056316  0  0  0.14665  0  1.053018  0  0  0.11384  0.13881  0  1.058694  0
H  H5  1  0.37139162  0.42697385  0.00035504  1  0  0.134227  0  0.995877  0  0  0.142097  0  1.056257  0  0  0.146675  0  1.052953  0  0  0.113851  0.138829  0  1.058632  0
H  H6  1  0.42696035  0.37139138  0.50035655  1  0  0.134217  0  0.995944  0  0  0.142088  0  1.056317  0  0  0.146666  0  1.053018  0  0  0.113863  0.138824  0  1.058698  0
H  H7  1  0.62860872  0.57302788  0.99964500  1  0  0.134246  0  0.995865  0  0  0.142112  0  1.05624  0  0  0.146692  0  1.052938  0  0  0.113864  0.138848  0  1.058615  0
H  H8  1  0.87786826  0.28442340  0.49452684  1  0  0.155474  0  0.927491  0  0  0.16108  0  0.991281  0  0  0.166056  0  0.987981  0  0  0.118681  0.157514  0  0.99377  0
H  H9  1  0.71557707  0.12213471  0.00547527  1  0  0.155489  0  0.927531  0  0  0.161108  0  0.991312  0  0  0.166086  0  0.988012  0  0  0.118697  0.157542  0  0.993801  0
H  H10  1  0.12213587  0.71557510  0.50547273  1  0  0.155484  0  0.927546  0  0  0.161086  0  0.991328  0  0  0.166064  0  0.988028  0  0  0.118697  0.157522  0  0.993818  0
H  H11  1  0.28441829  0.87786551  0.99452702  1  0  0.15547  0  0.927538  0  0  0.161104  0  0.991292  0  0  0.166084  0  0.987995  0  0  0.118688  0.157539  0  0.993779  0
H  H12  1  0.56383681  0.77283087  0.40581469  1  0  0.417129  0  0.874015  0  0  0.38522  0  0.953469  0  0  0.396815  0  0.938058  0  0  0.314826  0.377123  0  0.962551  0
H  H13  1  0.22717253  0.43616838  0.09418655  1  0  0.417134  0  0.874022  0  0  0.385223  0  0.953456  0  0  0.396829  0  0.938025  0  0  0.314839  0.37714  0  0.962525  0
H  H14  1  0.43615886  0.22716456  0.59418548  1  0  0.416968  0  0.874286  0  0  0.385113  0  0.953615  0  0  0.396716  0  0.938188  0  0  0.314798  0.377021  0  0.962694  0
H  H15  1  0.77283663  0.56383167  0.90581620  1  0  0.417017  0  0.874178  0  0  0.38518  0  0.953486  0  0  0.396775  0  0.938094  0  0  0.314823  0.37709  0  0.962559  0
H  H16  1  0.27863865  0.97218397  0.65231554  1  0  0.435243  0  0.858279  0  0  0.407295  0  0.915275  0  0  0.417753  0  0.900114  0  0  0.306771  0.399942  0  0.92592  0
H  H17  1  0.02781495  0.72136179  0.84768632  1  0  0.435186  0  0.858351  0  0  0.407246  0  0.915335  0  0  0.417698  0  0.900183  0  0  0.306742  0.399895  0  0.925976  0
H  H18  1  0.72135469  0.02780831  0.34768493  1  0  0.435158  0  0.858388  0  0  0.407223  0  0.915361  0  0  0.417673  0  0.900213  0  0  0.306747  0.399867  0  0.926009  0
H  H19  1  0.97219273  0.27864462  0.15231511  1  0  0.435198  0  0.858317  0  0  0.407251  0  0.91531  0  0  0.41771  0  0.90015  0  0  0.306747  0.399907  0  0.925942  0
H  H20  1  0.15025699  0.74410763  0.65537059  1  0  0.418223  0  0.897774  0  0  0.384157  0  0.968131  0  0  0.396108  0  0.950809  0  0  0.287392  0.375741  0  0.9803  0
H  H21  1  0.25588735  0.84974493  0.84463119  1  0  0.418225  0  0.897763  0  0  0.384154  0  0.968129  0  0  0.396104  0  0.950808  0  0  0.287392  0.375738  0  0.980299  0
H  H22  1  0.84973975  0.25587983  0.34462885  1  0  0.41826  0  0.897744  0  0  0.384183  0  0.968115  0  0  0.396134  0  0.950796  0  0  0.287407  0.375765  0  0.980289  0
H  H23  1  0.74411733  0.15026788  0.15537084  1  0  0.418288  0  0.897686  0  0  0.384224  0  0.968039  0  0  0.396174  0  0.950722  0  0  0.287429  0.375809  0  0.980208  0
H  H24  1  0.58618597  0.25777369  0.76850768  1  0  0.441739  0  0.847125  0  0  0.410923  0  0.911396  0  0  0.422065  0  0.894623  0  0  0.301088  0.402941  0  0.923426  0
H  H25  1  0.74222641  0.41381741  0.73149390  1  0  0.441734  0  0.847126  0  0  0.410916  0  0.911408  0  0  0.422059  0  0.894634  0  0  0.30108  0.402933  0  0.923439  0
H  H26  1  0.41381591  0.74222801  0.23149241  1  0  0.441726  0  0.847145  0  0  0.410908  0  0.911419  0  0  0.42205  0  0.894646  0  0  0.301082  0.402926  0  0.923449  0
H  H27  1  0.25777086  0.58618435  0.26850554  1  0  0.441692  0  0.847166  0  0  0.410895  0  0.911414  0  0  0.422034  0  0.894648  0  0  0.301091  0.402914  0  0.923443  0
C  C28  1  0.67155121  0.63802402  0.63536297  1  0  0.642802  0  3.908205  0  0  0.588532  0  4.210277  0  0  0.622203  0  4.199816  0  0  0.221573  0.56558  0  4.216911  0
C  C29  1  0.36197391  0.32844355  0.86463873  1  0  0.642868  0  3.908072  0  0  0.588572  0  4.210108  0  0  0.622241  0  4.199651  0  0  0.221615  0.565622  0  4.216736  0
C  C30  1  0.32844521  0.36196823  0.36463810  1  0  0.64287  0  3.908097  0  0  0.588615  0  4.210083  0  0  0.622286  0  4.19962  0  0  0.221626  0.565662  0  4.216715  0
C  C31  1  0.63802877  0.67156133  0.13536248  1  0  0.642985  0  3.908066  0  0  0.588662  0  4.210138  0  0  0.622332  0  4.19968  0  0  0.221664  0.565713  0  4.216769  0
C  C32  1  0.72233567  0.81557005  0.59344983  1  0  0.147072  0  3.782312  0  0  0.150303  0  4.029403  0  0  0.153815  0  4.045294  0  0  0.116672  0.147776  0  4.01884  0
C  C33  1  0.18442714  0.27766635  0.90655109  1  0  0.146999  0  3.782434  0  0  0.150381  0  4.0293  0  0  0.153896  0  4.045196  0  0  0.116648  0.147847  0  4.018726  0
C  C34  1  0.27765879  0.18442061  0.40654866  1  0  0.147089  0  3.782405  0  0  0.150425  0  4.029318  0  0  0.153939  0  4.04521  0  0  0.116681  0.147898  0  4.018749  0
C  C35  1  0.81557713  0.72234487  0.09344989  1  0  0.147005  0  3.782333  0  0  0.150355  0  4.029266  0  0  0.153869  0  4.04516  0  0  0.116666  0.147828  0  4.018698  0
C  C36  1  0.66025437  0.78254439  0.52505059  1  0  -0.222289  0  3.652965  0  0  -0.255828  0  3.904977  0  0  -0.262687  0  3.920885  0  0  -0.087822  -0.251139  0  3.894422  0
C  C37  1  0.21745596  0.33975657  0.97494974  1  0  -0.222277  0  3.652871  0  0  -0.255914  0  3.904838  0  0  -0.262769  0  3.920731  0  0  -0.087817  -0.251217  0  3.89428  0
C  C38  1  0.33974557  0.21745575  0.47494938  1  0  -0.222243  0  3.652994  0  0  -0.255826  0  3.90498  0  0  -0.262686  0  3.920882  0  0  -0.087793  -0.251137  0  3.894423  0
C  C39  1  0.78254597  0.66025149  0.02505007  1  0  -0.22224  0  3.652929  0  0  -0.255812  0  3.904884  0  0  -0.262679  0  3.920798  0  0  -0.087768  -0.251115  0  3.894314  0
C  C40  1  0.71238296  0.95116330  0.48789409  1  0  0.390909  0  3.787607  0  0  0.376075  0  4.052515  0  0  0.391015  0  4.066432  0  0  0.104201  0.365801  0  4.04315  0
C  C41  1  0.04882911  0.28762492  0.01210490  1  0  0.390829  0  3.787723  0  0  0.376089  0  4.052487  0  0  0.391051  0  4.066411  0  0  0.10419  0.365832  0  4.043112  0
C  C42  1  0.28761697  0.04883683  0.51210490  1  0  0.390928  0  3.787562  0  0  0.376073  0  4.052483  0  0  0.391033  0  4.066392  0  0  0.104209  0.365802  0  4.043121  0
C  C43  1  0.95116396  0.71237849  0.98789545  1  0  0.39083  0  3.787691  0  0  0.376009  0  4.05259  0  0  0.390959  0  4.066517  0  0  0.104129  0.365747  0  4.043217  0
C  C44  1  0.82990921  0.14881044  0.52123352  1  0  -0.212525  0  3.595521  0  0  -0.244054  0  3.852658  0  0  -0.250907  0  3.868809  0  0  -0.081343  -0.239357  0  3.842059  0
C  C45  1  0.85118653  0.17009355  0.97876550  1  0  -0.212501  0  3.595565  0  0  -0.244089  0  3.852708  0  0  -0.250936  0  3.868837  0  0  -0.081349  -0.239387  0  3.842094  0
C  C46  1  0.17008839  0.85118655  0.47876627  1  0  -0.21247  0  3.595556  0  0  -0.244024  0  3.852706  0  0  -0.250868  0  3.868826  0  0  -0.081342  -0.239336  0  3.842111  0
C  C47  1  0.14881654  0.82991291  0.02123478  1  0  -0.212424  0  3.595492  0  0  -0.244046  0  3.852694  0  0  -0.250874  0  3.868764  0  0  -0.081329  -0.239351  0  3.842087  0
C  C48  1  0.88950685  0.16499000  0.59004064  1  0  0.140961  0  3.755661  0  0  0.140947  0  4.009873  0  0  0.14453  0  4.025425  0  0  0.116204  0.138362  0  3.99957  0
C  C49  1  0.83500816  0.11048998  0.90995872  1  0  0.141034  0  3.755552  0  0  0.140994  0  4.009811  0  0  0.144578  0  4.025367  0  0  0.116228  0.138407  0  3.999504  0
C  C50  1  0.11048842  0.83500385  0.40995897  1  0  0.140884  0  3.755836  0  0  0.140888  0  4.009966  0  0  0.144476  0  4.025525  0  0  0.116176  0.13831  0  3.99966  0
C  C51  1  0.16499184  0.88951652  0.09004147  1  0  0.140872  0  3.755798  0  0  0.140919  0  4.009956  0  0  0.144512  0  4.025516  0  0  0.116219  0.138338  0  3.999649  0
C  C52  1  0.03060372  0.36429578  0.62993468  1  0  0.645169  0  3.866273  0  0  0.590788  0  4.162223  0  0  0.62506  0  4.153941  0  0  0.222985  0.567449  0  4.167095  0
C  C53  1  0.63570390  0.96939047  0.87006604  1  0  0.645141  0  3.866294  0  0  0.590775  0  4.162223  0  0  0.625046  0  4.153942  0  0  0.222959  0.567438  0  4.167089  0
C  C54  1  0.96939075  0.63569489  0.37006430  1  0  0.645142  0  3.866245  0  0  0.590812  0  4.162086  0  0  0.625079  0  4.153813  0  0  0.223029  0.56747  0  4.166954  0
C  C55  1  0.36430377  0.03061593  0.12993391  1  0  0.645329  0  3.866165  0  0  0.590895  0  4.162177  0  0  0.625164  0  4.153903  0  0  0.223027  0.567557  0  4.167047  0
N  N56  1  0.83498696  0.00350342  0.62575790  1  0  -0.474598  0  3.321697  0  0  -0.430928  0  3.580857  0  0  -0.443489  0  3.597283  0  0  -0.409197  -0.422429  0  3.569949  0
N  N57  1  0.99650112  0.16501103  0.87424320  1  0  -0.474638  0  3.32176  0  0  -0.431012  0  3.580889  0  0  -0.443578  0  3.597319  0  0  -0.409256  -0.422509  0  3.569976  0
N  N58  1  0.16501252  0.99648878  0.37424179  1  0  -0.474696  0  3.32186  0  0  -0.431078  0  3.580976  0  0  -0.443646  0  3.597406  0  0  -0.409266  -0.422581  0  3.570064  0
N  N59  1  0.00350922  0.83499376  0.12575777  1  0  -0.474678  0  3.321836  0  0  -0.43106  0  3.580943  0  0  -0.443629  0  3.597371  0  0  -0.409289  -0.422562  0  3.570036  0
O  O60  1  0.75095243  0.67896591  0.69769743  1  0  -0.735722  0  2.079182  0  0  -0.666302  0  2.332114  0  0  -0.692848  0  2.319569  0  0  -0.371664  -0.647503  0  2.340248  0
O  O61  1  0.32102968  0.24904692  0.80230385  1  0  -0.735778  0  2.079123  0  0  -0.66636  0  2.332059  0  0  -0.692906  0  2.319514  0  0  -0.3717  -0.647565  0  2.340194  0
O  O62  1  0.24904245  0.32102636  0.30230408  1  0  -0.735759  0  2.079181  0  0  -0.666357  0  2.332094  0  0  -0.692902  0  2.31955  0  0  -0.371718  -0.64756  0  2.340228  0
O  O63  1  0.67896840  0.75095802  0.19769672  1  0  -0.735754  0  2.079079  0  0  -0.666334  0  2.332022  0  0  -0.692878  0  2.319474  0  0  -0.371715  -0.647538  0  2.34016  0
O  O64  1  0.55626657  0.46400639  0.60760998  1  0  -0.60474  0  2.059954  0  0  -0.557583  0  2.303684  0  0  -0.581187  0  2.293695  0  0  -0.301812  -0.541156  0  2.309878  0
O  O65  1  0.53599444  0.44372346  0.89239116  1  0  -0.604822  0  2.059923  0  0  -0.557682  0  2.303661  0  0  -0.581289  0  2.293683  0  0  -0.301881  -0.541261  0  2.309862  0
O  O66  1  0.44373258  0.53599059  0.39239084  1  0  -0.604845  0  2.059845  0  0  -0.557706  0  2.303603  0  0  -0.581313  0  2.293618  0  0  -0.301858  -0.541287  0  2.309816  0
O  O67  1  0.46400709  0.55628302  0.10760858  1  0  -0.604901  0  2.059875  0  0  -0.55771  0  2.303636  0  0  -0.581317  0  2.293643  0  0  -0.301891  -0.541281  0  2.309831  0
O  O68  1  0.65010141  0.92324201  0.42133870  1  0  -0.534287  0  2.162275  0  0  -0.464402  0  2.364698  0  0  -0.487446  0  2.355626  0  0  -0.325776  -0.448282  0  2.369637  0
O  O69  1  0.07676070  0.34990366  0.07865905  1  0  -0.534249  0  2.162433  0  0  -0.464332  0  2.364766  0  0  -0.487445  0  2.355731  0  0  -0.325742  -0.448286  0  2.369762  0
O  O70  1  0.34989198  0.07675661  0.57865953  1  0  -0.53419  0  2.162418  0  0  -0.464287  0  2.36476  0  0  -0.487377  0  2.355705  0  0  -0.325751  -0.448182  0  2.36971  0
O  O71  1  0.92324390  0.65010277  0.92134030  1  0  -0.534176  0  2.162448  0  0  -0.464311  0  2.364788  0  0  -0.487376  0  2.355739  0  0  -0.32571  -0.448228  0  2.369753  0
O  O72  1  0.06953454  0.53132927  0.60336046  1  0  -0.579083  0  1.973375  0  0  -0.520389  0  2.190842  0  0  -0.54541  0  2.182608  0  0  -0.293289  -0.503  0  2.196134  0
O  O73  1  0.46867264  0.93046152  0.89663940  1  0  -0.579056  0  1.97339  0  0  -0.520355  0  2.190839  0  0  -0.545378  0  2.182607  0  0  -0.293263  -0.502967  0  2.196125  0
O  O74  1  0.93046492  0.46866292  0.39663677  1  0  -0.579037  0  1.973317  0  0  -0.520372  0  2.190768  0  0  -0.545392  0  2.182539  0  0  -0.2933  -0.502982  0  2.196059  0
O  O75  1  0.53133315  0.06954966  0.10335916  1  0  -0.579131  0  1.973221  0  0  -0.520452  0  2.190751  0  0  -0.545476  0  2.182521  0  0  -0.293311  -0.503061  0  2.19604  0
O  O76  1  0.10372438  0.34513353  0.69012730  1  0  -0.726023  0  2.108278  0  0  -0.648937  0  2.378297  0  0  -0.679992  0  2.367011  0  0  -0.370774  -0.626752  0  2.385227  0
O  O77  1  0.65486695  0.89627166  0.80987302  1  0  -0.72603  0  2.108245  0  0  -0.648961  0  2.37829  0  0  -0.680016  0  2.367005  0  0  -0.370768  -0.626779  0  2.385217  0
O  O78  1  0.89626895  0.65485873  0.30987071  1  0  -0.72603  0  2.108227  0  0  -0.64898  0  2.378239  0  0  -0.680033  0  2.366954  0  0  -0.370809  -0.626796  0  2.385169  0
O  O79  1  0.34513991  0.10373157  0.19012630  1  0  -0.726049  0  2.108288  0  0  -0.648969  0  2.378384  0  0  -0.680023  0  2.367099  0  0  -0.370794  -0.626786  0  2.385315  0
O  O80  1  0.21222928  0.88525474  0.68479211  1  0  -0.915998  0  1.916945  0  0  -0.861576  0  2.134017  0  0  -0.882981  0  2.099346  0  0  -0.637651  -0.846004  0  2.157984  0
O  O81  1  0.11474269  0.78776828  0.81520961  1  0  -0.915931  0  1.91697  0  0  -0.861508  0  2.134026  0  0  -0.882913  0  2.099365  0  0  -0.637625  -0.845937  0  2.157985  0
O  O82  1  0.78777013  0.11473111  0.31520786  1  0  -0.915965  0  1.917016  0  0  -0.861538  0  2.134074  0  0  -0.882946  0  2.09941  0  0  -0.637687  -0.845968  0  2.158047  0
O  O83  1  0.88526266  0.21223499  0.18479213  1  0  -0.916019  0  1.916905  0  0  -0.861598  0  2.133971  0  0  -0.883002  0  2.099293  0  0  -0.637681  -0.846025  0  2.157923  0
O  O84  1  0.72230432  0.27769430  0.74999971  1  0  -0.908817  0  1.846087  0  0  -0.863258  0  2.043106  0  0  -0.879608  0  2.008572  0  0  -0.6345  -0.851544  0  2.067498  0
O  O85  1  0.27769642  0.72230901  0.25000040  1  0  -0.908763  0  1.846161  0  0  -0.86322  0  2.043185  0  0  -0.879569  0  2.008652  0  0  -0.634495  -0.851505  0  2.067575  0
