# generated using pymatgen
data_ErH6C5O8
_symmetry_space_group_name_H-M   'P 1'
_cell_length_a   9.65254017
_cell_length_b   9.65261665
_cell_length_c   13.38689309
_cell_angle_alpha   100.12270718
_cell_angle_beta   100.12329506
_cell_angle_gamma   120.91909491
_symmetry_Int_Tables_number   1
_chemical_formula_structural   ErH6C5O8
_chemical_formula_sum   'Er4 H24 C20 O32'
_cell_volume   999.73827560
_cell_formula_units_Z   4
loop_
 _symmetry_equiv_pos_site_id
 _symmetry_equiv_pos_as_xyz
  1  'x, y, z'
loop_
 _atom_site_type_symbol
 _atom_site_label
 _atom_site_symmetry_multiplicity
 _atom_site_fract_x
 _atom_site_fract_y
 _atom_site_fract_z
 _atom_site_occupancy
 _atom_site_hle17_bader_spin_density
 _atom_site_hle17_ddec_charge
 _atom_site_hle17_ddec_spin_density
 _atom_site_hle17_ddec_sum_bond_order
 _atom_site_hle17_magmom
 _atom_site_hse06_10hf_bader_spin_density
 _atom_site_hse06_10hf_ddec_charge
 _atom_site_hse06_10hf_ddec_spin_density
 _atom_site_hse06_10hf_ddec_sum_bond_order
 _atom_site_hse06_10hf_magmom
 _atom_site_hse06_bader_spin_density
 _atom_site_hse06_ddec_charge
 _atom_site_hse06_ddec_spin_density
 _atom_site_hse06_ddec_sum_bond_order
 _atom_site_hse06_magmom
 _atom_site_pbe_bader_spin_density
 _atom_site_pbe_cm5_charge
 _atom_site_pbe_ddec_charge
 _atom_site_pbe_ddec_spin_density
 _atom_site_pbe_ddec_sum_bond_order
 _atom_site_pbe_magmom
Er  Er0  1  0.25004240  0.99998584  0.99978509  1  0  2.282829  0  1.626461  0  0  2.218712  0  1.949329  0  0  2.266854  0  1.907473  0  0  1.50007  2.095326  0  2.144544  0
Er  Er1  1  0.50002531  0.24995550  0.50021748  1  0  2.282916  0  1.62626  0  0  2.218819  0  1.949103  0  0  2.26695  0  1.907263  0  0  1.500158  2.095478  0  2.144243  0
Er  Er2  1  0.74995075  0.00001580  0.00021058  1  0  2.282846  0  1.626472  0  0  2.218742  0  1.949333  0  0  2.266873  0  1.907491  0  0  1.500116  2.095321  0  2.144592  0
Er  Er3  1  0.49998243  0.75004568  0.49978661  1  0  2.282857  0  1.626371  0  0  2.218767  0  1.949219  0  0  2.266887  0  1.907382  0  0  1.500151  2.09534  0  2.144481  0
H  H4  1  0.08570449  0.51298745  0.93409168  1  0  0.12468  0  0.934676  0  0  0.132012  0  0.995032  0  0  0.136675  0  0.991877  0  0  0.113173  0.128452  0  0.998213  0
H  H5  1  0.34798350  0.42090164  0.93420873  1  0  0.12494  0  0.933242  0  0  0.132059  0  0.994117  0  0  0.136621  0  0.99103  0  0  0.113207  0.128533  0  0.997229  0
H  H6  1  0.98700740  0.41427150  0.56590850  1  0  0.124609  0  0.935011  0  0  0.132038  0  0.995249  0  0  0.136699  0  0.992093  0  0  0.113167  0.128473  0  0.998433  0
H  H7  1  0.07909356  0.15199953  0.56578542  1  0  0.125044  0  0.933245  0  0  0.132156  0  0.994113  0  0  0.136723  0  0.991019  0  0  0.113214  0.128634  0  0.997223  0
H  H8  1  0.91428503  0.48701143  0.06589874  1  0  0.124658  0  0.93481  0  0  0.131984  0  0.995162  0  0  0.136646  0  0.992009  0  0  0.113148  0.128421  0  0.998344  0
H  H9  1  0.65201358  0.57909921  0.06579778  1  0  0.125135  0  0.933129  0  0  0.132227  0  0.994026  0  0  0.136801  0  0.99093  0  0  0.113222  0.128704  0  0.997135  0
H  H10  1  0.01299439  0.58573052  0.43408900  1  0  0.124642  0  0.935084  0  0  0.132048  0  0.995336  0  0  0.136711  0  0.992175  0  0  0.113161  0.128483  0  0.998517  0
H  H11  1  0.92090534  0.84800106  0.43420932  1  0  0.124921  0  0.933158  0  0  0.132052  0  0.994034  0  0  0.136619  0  0.99094  0  0  0.113157  0.128531  0  0.997145  0
H  H12  1  0.95393817  0.67386736  0.84816506  1  0  0.430096  0  0.818094  0  0  0.414591  0  0.871211  0  0  0.422383  0  0.862289  0  0  0.326487  0.408416  0  0.877209  0
H  H13  1  0.39452763  0.17469428  0.84837112  1  0  0.429256  0  0.819678  0  0  0.413934  0  0.872452  0  0  0.42168  0  0.863629  0  0  0.326358  0.407782  0  0.878399  0
H  H14  1  0.82612048  0.54604510  0.65186314  1  0  0.430212  0  0.81813  0  0  0.414724  0  0.8712  0  0  0.42251  0  0.862286  0  0  0.326578  0.408551  0  0.877204  0
H  H15  1  0.32533550  0.10550568  0.65165257  1  0  0.429402  0  0.819669  0  0  0.414097  0  0.872373  0  0  0.42184  0  0.863554  0  0  0.32651  0.407949  0  0.878319  0
H  H16  1  0.04604918  0.32611928  0.15183409  1  0  0.430108  0  0.818158  0  0  0.414594  0  0.871289  0  0  0.422385  0  0.862368  0  0  0.326504  0.408421  0  0.877286  0
H  H17  1  0.60548907  0.82532581  0.15163185  1  0  0.42933  0  0.819689  0  0  0.414012  0  0.872428  0  0  0.421759  0  0.863606  0  0  0.326455  0.407867  0  0.87837  0
H  H18  1  0.17389593  0.45396257  0.34813904  1  0  0.43014  0  0.818283  0  0  0.41465  0  0.871361  0  0  0.422439  0  0.862439  0  0  0.326503  0.408479  0  0.877366  0
H  H19  1  0.67466045  0.89448515  0.34835185  1  0  0.429414  0  0.819775  0  0  0.414109  0  0.872468  0  0  0.421852  0  0.86365  0  0  0.326554  0.407964  0  0.878409  0
H  H20  1  0.90799125  0.80654369  0.84112701  1  0  0.439732  0  0.858216  0  0  0.407697  0  0.923325  0  0  0.419379  0  0.906147  0  0  0.300528  0.398755  0  0.936235  0
H  H21  1  0.43292753  0.03458405  0.84106545  1  0  0.440907  0  0.856202  0  0  0.409333  0  0.920612  0  0  0.421002  0  0.903452  0  0  0.301349  0.400387  0  0.933543  0
H  H22  1  0.69345382  0.59197072  0.65888296  1  0  0.439628  0  0.858407  0  0  0.407724  0  0.923326  0  0  0.419399  0  0.906156  0  0  0.300638  0.398794  0  0.936215  0
H  H23  1  0.46539771  0.06707635  0.65893213  1  0  0.440972  0  0.856159  0  0  0.409396  0  0.920548  0  0  0.421048  0  0.903416  0  0  0.301414  0.40046  0  0.933466  0
H  H24  1  0.09198291  0.19344984  0.15887063  1  0  0.439607  0  0.858437  0  0  0.407684  0  0.923383  0  0  0.419365  0  0.906205  0  0  0.300555  0.398745  0  0.936287  0
H  H25  1  0.56708176  0.96540833  0.15893180  1  0  0.440801  0  0.856395  0  0  0.409294  0  0.920704  0  0  0.420951  0  0.903563  0  0  0.301363  0.400351  0  0.933633  0
H  H26  1  0.30655345  0.40803547  0.34112318  1  0  0.43963  0  0.858449  0  0  0.407723  0  0.923355  0  0  0.419395  0  0.906188  0  0  0.30068  0.398797  0  0.936241  0
H  H27  1  0.53460491  0.93291333  0.34106623  1  0  0.440896  0  0.856297  0  0  0.409348  0  0.920649  0  0  0.421001  0  0.903513  0  0  0.30139  0.400409  0  0.93357  0
C  C28  1  0.34666474  0.70272593  0.93891159  1  0  0.751428  0  3.870631  0  0  0.712916  0  4.159452  0  0  0.748995  0  4.14605  0  0  0.228727  0.687283  0  4.16277  0
C  C29  1  0.09201457  0.23601539  0.93912726  1  0  0.753222  0  3.87137  0  0  0.715261  0  4.159113  0  0  0.751322  0  4.145647  0  0  0.22933  0.689624  0  4.162514  0
C  C30  1  0.79726888  0.15332227  0.56109232  1  0  0.75149  0  3.870416  0  0  0.713034  0  4.159175  0  0  0.749115  0  4.145771  0  0  0.228845  0.687399  0  4.162496  0
C  C31  1  0.26398640  0.40797456  0.56086751  1  0  0.753228  0  3.871697  0  0  0.715354  0  4.159286  0  0  0.751414  0  4.145823  0  0  0.229431  0.689716  0  4.16269  0
C  C32  1  0.65332780  0.29727451  0.06108611  1  0  0.751291  0  3.870871  0  0  0.71277  0  4.159728  0  0  0.748854  0  4.146323  0  0  0.228631  0.687142  0  4.163036  0
C  C33  1  0.90797696  0.76398506  0.06087256  1  0  0.753251  0  3.871408  0  0  0.715408  0  4.158987  0  0  0.751431  0  4.145573  0  0  0.229402  0.689761  0  4.162405  0
C  C34  1  0.20273335  0.84667857  0.43890659  1  0  0.751549  0  3.870396  0  0  0.712992  0  4.159324  0  0  0.749068  0  4.14592  0  0  0.228761  0.687358  0  4.162638  0
C  C35  1  0.73601767  0.59202767  0.43913477  1  0  0.753216  0  3.871747  0  0  0.715312  0  4.159406  0  0  0.751368  0  4.145947  0  0  0.22945  0.689668  0  4.162819  0
C  C36  1  0.20634993  0.53014912  0.93305838  1  0  -0.156525  0  3.625315  0  0  -0.174131  0  3.869689  0  0  -0.180238  0  3.884369  0  0  -0.074361  -0.171134  0  3.86298  0
C  C37  1  0.22632319  0.40264253  0.93314227  1  0  -0.154825  0  3.62458  0  0  -0.172456  0  3.869231  0  0  -0.178452  0  3.883941  0  0  -0.073602  -0.169468  0  3.862465  0
C  C38  1  0.96985329  0.29365122  0.56694074  1  0  -0.156348  0  3.62552  0  0  -0.17407  0  3.869877  0  0  -0.180178  0  3.884562  0  0  -0.074367  -0.171066  0  3.863165  0
C  C39  1  0.09734861  0.27366347  0.56685160  1  0  -0.155  0  3.624799  0  0  -0.172662  0  3.869468  0  0  -0.178657  0  3.884177  0  0  -0.073628  -0.169673  0  3.862696  0
C  C40  1  0.79364830  0.46985022  0.06693688  1  0  -0.156402  0  3.625247  0  0  -0.173996  0  3.869625  0  0  -0.180104  0  3.884306  0  0  -0.074334  -0.171001  0  3.862914  0
C  C41  1  0.77367026  0.59735555  0.06685899  1  0  -0.155111  0  3.624554  0  0  -0.172766  0  3.869185  0  0  -0.17876  0  3.883906  0  0  -0.07365  -0.169774  0  3.86242  0
C  C42  1  0.03015074  0.70634712  0.43305510  1  0  -0.156368  0  3.625471  0  0  -0.174021  0  3.869838  0  0  -0.180125  0  3.884518  0  0  -0.074337  -0.171015  0  3.863121  0
C  C43  1  0.90265652  0.72633494  0.43314512  1  0  -0.154907  0  3.624473  0  0  -0.172593  0  3.869161  0  0  -0.178591  0  3.883874  0  0  -0.073564  -0.169606  0  3.862394  0
C  C44  1  0.32915332  0.17084955  0.24999959  1  0  0.591761  0  3.859708  0  0  0.546936  0  4.155741  0  0  0.577528  0  4.14561  0  0  0.236485  0.525646  0  4.1555  0
C  C45  1  0.42094079  0.07909214  0.25000043  1  0  0.593914  0  3.857747  0  0  0.547279  0  4.155914  0  0  0.578179  0  4.145393  0  0  0.236528  0.525919  0  4.155765  0
C  C46  1  0.67085263  0.82915028  0.75000263  1  0  0.591706  0  3.859903  0  0  0.546872  0  4.155928  0  0  0.577471  0  4.145784  0  0  0.236387  0.525569  0  4.155704  0
C  C47  1  0.57906421  0.92090999  0.74999673  1  0  0.593733  0  3.857891  0  0  0.547082  0  4.15605  0  0  0.577988  0  4.145534  0  0  0.236521  0.525724  0  4.155899  0
O  O48  1  0.31299171  0.81488121  0.94404283  1  0  -0.760103  0  2.064032  0  0  -0.72303  0  2.325455  0  0  -0.748582  0  2.310676  0  0  -0.418843  -0.689117  0  2.337031  0
O  O49  1  0.13105222  0.12922187  0.94444518  1  0  -0.76057  0  2.064693  0  0  -0.723804  0  2.326099  0  0  -0.749312  0  2.311229  0  0  -0.418978  -0.689948  0  2.337745  0
O  O50  1  0.68510938  0.18699227  0.55596063  1  0  -0.760166  0  2.064018  0  0  -0.723094  0  2.325399  0  0  -0.748653  0  2.310637  0  0  -0.41893  -0.689189  0  2.33698  0
O  O51  1  0.37078844  0.36894599  0.55556623  1  0  -0.760553  0  2.064776  0  0  -0.723847  0  2.326178  0  0  -0.749356  0  2.311315  0  0  -0.418954  -0.690001  0  2.337836  0
O  O52  1  0.68700702  0.18512307  0.05595084  1  0  -0.760098  0  2.064098  0  0  -0.723007  0  2.325499  0  0  -0.748568  0  2.310741  0  0  -0.418818  -0.689088  0  2.337075  0
O  O53  1  0.86895159  0.87079164  0.05556217  1  0  -0.760547  0  2.064624  0  0  -0.723847  0  2.32601  0  0  -0.749342  0  2.311163  0  0  -0.418919  -0.689981  0  2.337672  0
O  O54  1  0.31488615  0.81299977  0.44404314  1  0  -0.760208  0  2.063994  0  0  -0.723108  0  2.325421  0  0  -0.748666  0  2.310661  0  0  -0.418893  -0.689188  0  2.337  0
O  O55  1  0.62921307  0.63105131  0.44444039  1  0  -0.760557  0  2.064852  0  0  -0.723845  0  2.326291  0  0  -0.749349  0  2.311424  0  0  -0.418988  -0.68998  0  2.337953  0
O  O56  1  0.49165717  0.73176447  0.94182751  1  0  -0.736847  0  2.014959  0  0  -0.702766  0  2.254983  0  0  -0.7284  0  2.243839  0  0  -0.386644  -0.67301  0  2.265778  0
O  O57  1  0.94987362  0.20975112  0.94195677  1  0  -0.738842  0  2.016067  0  0  -0.705111  0  2.256181  0  0  -0.730747  0  2.245006  0  0  -0.387687  -0.675352  0  2.267002  0
O  O58  1  0.76823373  0.00833279  0.55817742  1  0  -0.736968  0  2.0151  0  0  -0.702913  0  2.255095  0  0  -0.728543  0  2.243947  0  0  -0.386739  -0.673154  0  2.265892  0
O  O59  1  0.29024384  0.55010961  0.55803196  1  0  -0.738842  0  2.016278  0  0  -0.705129  0  2.256344  0  0  -0.73076  0  2.245171  0  0  -0.387743  -0.675368  0  2.267168  0
O  O60  1  0.50834217  0.26823880  0.05817359  1  0  -0.736781  0  2.015205  0  0  -0.702691  0  2.255225  0  0  -0.728329  0  2.244084  0  0  -0.386614  -0.672945  0  2.266015  0
O  O61  1  0.05011825  0.79024804  0.05804068  1  0  -0.738892  0  2.016157  0  0  -0.705197  0  2.256233  0  0  -0.730817  0  2.245068  0  0  -0.387775  -0.675435  0  2.267057  0
O  O62  1  0.23176968  0.99166434  0.44182044  1  0  -0.736924  0  2.015073  0  0  -0.702825  0  2.255113  0  0  -0.728458  0  2.243968  0  0  -0.386673  -0.673084  0  2.265908  0
O  O63  1  0.70976769  0.44989671  0.44197321  1  0  -0.738843  0  2.016345  0  0  -0.705133  0  2.256449  0  0  -0.730762  0  2.245272  0  0  -0.387746  -0.675383  0  2.267274  0
O  O64  1  0.24733976  0.15732821  0.15979266  1  0  -0.650557  0  2.114722  0  0  -0.604976  0  2.345611  0  0  -0.629979  0  2.336271  0  0  -0.335475  -0.577727  0  2.354092  0
O  O65  1  0.41293153  0.00280319  0.15980162  1  0  -0.651424  0  2.114147  0  0  -0.605287  0  2.345731  0  0  -0.63035  0  2.336209  0  0  -0.335426  -0.578015  0  2.354274  0
O  O66  1  0.34268039  0.25266387  0.34020417  1  0  -0.650423  0  2.114583  0  0  -0.60485  0  2.345457  0  0  -0.629845  0  2.33612  0  0  -0.335409  -0.577611  0  2.353937  0
O  O67  1  0.49722746  0.08709884  0.34019881  1  0  -0.651494  0  2.114026  0  0  -0.605318  0  2.345586  0  0  -0.630386  0  2.336075  0  0  -0.33545  -0.578055  0  2.354129  0
O  O68  1  0.75265857  0.84267507  0.84021055  1  0  -0.650445  0  2.114797  0  0  -0.604819  0  2.34568  0  0  -0.629823  0  2.336338  0  0  -0.335374  -0.577562  0  2.354175  0
O  O69  1  0.58707286  0.99719773  0.84019756  1  0  -0.651379  0  2.114221  0  0  -0.605204  0  2.345817  0  0  -0.63028  0  2.336298  0  0  -0.3354  -0.577924  0  2.35436  0
O  O70  1  0.65732655  0.74733977  0.65980013  1  0  -0.650411  0  2.114835  0  0  -0.604842  0  2.345729  0  0  -0.629841  0  2.336391  0  0  -0.335368  -0.577584  0  2.354217  0
O  O71  1  0.50277628  0.91289701  0.65979669  1  0  -0.651404  0  2.114186  0  0  -0.605214  0  2.345741  0  0  -0.630276  0  2.336232  0  0  -0.335485  -0.577937  0  2.354283  0
O  O72  1  0.00286567  0.78974391  0.84618456  1  0  -0.880077  0  1.859275  0  0  -0.845726  0  2.038715  0  0  -0.863062  0  2.010201  0  0  -0.62222  -0.822963  0  2.065189  0
O  O73  1  0.34333316  0.05673980  0.84623375  1  0  -0.880254  0  1.858181  0  0  -0.846508  0  2.037307  0  0  -0.863796  0  2.008789  0  0  -0.622602  -0.823771  0  2.063782  0
O  O74  1  0.71026584  0.49715487  0.65383394  1  0  -0.880077  0  1.859568  0  0  -0.845854  0  2.038813  0  0  -0.863184  0  2.010298  0  0  -0.622414  -0.823106  0  2.065289  0
O  O75  1  0.44325600  0.15662997  0.65376932  1  0  -0.880382  0  1.858296  0  0  -0.84662  0  2.037489  0  0  -0.863898  0  2.008972  0  0  -0.622771  -0.823901  0  2.063964  0
O  O76  1  0.99714301  0.21026103  0.15381936  1  0  -0.879957  0  1.859548  0  0  -0.845677  0  2.038837  0  0  -0.863017  0  2.010322  0  0  -0.622267  -0.82292  0  2.065313  0
O  O77  1  0.65664205  0.94325759  0.15376746  1  0  -0.880192  0  1.858392  0  0  -0.846485  0  2.037444  0  0  -0.86377  0  2.008932  0  0  -0.622705  -0.823754  0  2.06392  0
O  O78  1  0.28973867  0.50283243  0.34616511  1  0  -0.879988  0  1.859772  0  0  -0.845759  0  2.039013  0  0  -0.863083  0  2.010495  0  0  -0.622363  -0.823009  0  2.065485  0
O  O79  1  0.55674761  0.84337343  0.34623081  1  0  -0.880301  0  1.858502  0  0  -0.846563  0  2.037655  0  0  -0.86384  0  2.009134  0  0  -0.622793  -0.823835  0  2.064132  0
