# generated using pymatgen
data_CuPH4C2O3
_symmetry_space_group_name_H-M   'P 1'
_cell_length_a   4.22937002
_cell_length_b   6.65045240
_cell_length_c   10.55353591
_cell_angle_alpha   108.31443851
_cell_angle_beta   92.70534552
_cell_angle_gamma   89.99364073
_symmetry_Int_Tables_number   1
_chemical_formula_structural   CuPH4C2O3
_chemical_formula_sum   'Cu2 P2 H8 C4 O6'
_cell_volume   281.45754879
_cell_formula_units_Z   2
loop_
 _symmetry_equiv_pos_site_id
 _symmetry_equiv_pos_as_xyz
  1  'x, y, z'
loop_
 _atom_site_type_symbol
 _atom_site_label
 _atom_site_symmetry_multiplicity
 _atom_site_fract_x
 _atom_site_fract_y
 _atom_site_fract_z
 _atom_site_occupancy
 _atom_site_pbe_bader_charge
 _atom_site_pbe_bader_spin_density
 _atom_site_pbe_cm5_charge
 _atom_site_pbe_ddec_charge
 _atom_site_pbe_ddec_spin_density
 _atom_site_pbe_ddec_sum_bond_order
 _atom_site_pbe_magmom
Cu  Cu0  1  0.50001438  0.99999749  0.49999902  1  1.127331  0.601327  0.760091  1.03601  0.74927  2.050109  0.603
Cu  Cu1  1  0.49999455  0.49998835  0.50000015  1  1.128863  0.601358  0.759933  1.036462  0.749424  2.049027  0.603
P  P2  1  0.97557624  0.17412227  0.34807173  1  3.241721  0.008249  0.320707  1.284192  0.013855  5.355291  0.004
P  P3  1  0.02441988  0.82586276  0.65192899  1  3.241529  0.00825  0.320722  1.284314  0.013854  5.355037  0.004
H  H4  1  0.30428439  0.96158955  0.18742877  1  0.048693  0.002717  0.109275  0.146005  0.00127  0.9883  0.002
H  H5  1  0.76108967  0.90224023  0.06955942  1  0.016717  0.000424  0.093013  0.086265  0.000215  0.98117  0.0
H  H6  1  0.69620050  0.77340453  0.81276389  1  0.057074  0.002698  0.109074  0.146073  0.001269  0.987866  0.002
H  H7  1  0.23913289  0.83252107  0.93080845  1  0.019121  0.000422  0.092823  0.085772  0.000214  0.980983  0.0
H  H8  1  0.69572108  0.03841080  0.81257303  1  0.048684  0.002716  0.109279  0.146019  0.001269  0.988332  0.002
H  H9  1  0.23890635  0.09775652  0.93044192  1  0.016728  0.000424  0.093011  0.086278  0.000215  0.98119  0.0
H  H10  1  0.30379308  0.22659378  0.18723584  1  0.057062  0.002696  0.109083  0.146078  0.001268  0.987915  0.002
H  H11  1  0.76086068  0.16747724  0.06919128  1  0.019079  0.000422  0.09281  0.085762  0.000214  0.980979  0.0
C  C12  1  0.14825537  0.09392615  0.18717545  1  -0.456322  0.020406  -0.164852  -0.43587  0.012578  3.907949  0.013
C  C13  1  0.91566234  0.03303300  0.06581121  1  0.017646  0.000474  -0.158126  -0.090379  0.000208  3.93137  0.0
C  C14  1  0.85174293  0.90608014  0.81282592  1  -0.456207  0.020406  -0.164842  -0.435912  0.012578  3.907858  0.013
C  C15  1  0.08433612  0.96697233  0.93419396  1  -0.006153  0.000491  -0.158089  -0.090333  0.000208  3.931298  0.0
O  O16  1  0.78813046  0.98402725  0.36070604  1  -1.37222  0.09935  -0.385073  -0.736944  0.05995  2.314733  0.085
O  O17  1  0.21213580  0.62319112  0.63941425  1  -1.374656  0.099556  -0.384792  -0.737146  0.060141  2.313276  0.085
O  O18  1  0.21187735  0.01598896  0.63929895  1  -1.372063  0.099424  -0.385073  -0.736948  0.059994  2.314263  0.085
O  O19  1  0.78786213  0.37682058  0.36057986  1  -1.374442  0.099625  -0.384744  -0.737019  0.060183  2.312845  0.085
O  O20  1  0.26055987  0.22850676  0.45685582  1  -1.314167  0.16428  -0.392152  -0.784385  0.10091  2.591744  0.147
O  O21  1  0.73943596  0.77149445  0.54314205  1  -1.314022  0.164283  -0.392078  -0.784294  0.100913  2.591547  0.147
