# generated using pymatgen
data_ZnH20C26(NO2)2
_symmetry_space_group_name_H-M   'P 1'
_cell_length_a   10.70954152
_cell_length_b   10.72922146
_cell_length_c   12.17500000
_cell_angle_alpha   96.68292775
_cell_angle_beta   106.48608947
_cell_angle_gamma   105.00785251
_symmetry_Int_Tables_number   1
_chemical_formula_structural   ZnH20C26(NO2)2
_chemical_formula_sum   'Zn2 H40 C52 N4 O8'
_cell_volume   1268.18263998
_cell_formula_units_Z   2
loop_
 _symmetry_equiv_pos_site_id
 _symmetry_equiv_pos_as_xyz
  1  'x, y, z'
loop_
 _atom_site_type_symbol
 _atom_site_label
 _atom_site_symmetry_multiplicity
 _atom_site_fract_x
 _atom_site_fract_y
 _atom_site_fract_z
 _atom_site_occupancy
 _atom_site_hle17_bader_spin_density
 _atom_site_hle17_ddec_charge
 _atom_site_hle17_ddec_spin_density
 _atom_site_hle17_ddec_sum_bond_order
 _atom_site_hle17_magmom
 _atom_site_hse06_10hf_bader_spin_density
 _atom_site_hse06_10hf_ddec_charge
 _atom_site_hse06_10hf_ddec_spin_density
 _atom_site_hse06_10hf_ddec_sum_bond_order
 _atom_site_hse06_10hf_magmom
 _atom_site_hse06_bader_spin_density
 _atom_site_hse06_ddec_charge
 _atom_site_hse06_ddec_spin_density
 _atom_site_hse06_ddec_sum_bond_order
 _atom_site_hse06_magmom
 _atom_site_pbe_bader_charge
 _atom_site_pbe_bader_spin_density
 _atom_site_pbe_cm5_charge
 _atom_site_pbe_ddec_charge
 _atom_site_pbe_ddec_spin_density
 _atom_site_pbe_ddec_sum_bond_order
 _atom_site_pbe_magmom
Zn  Zn0  1  0.89051932  0.88704011  0.56871190  1  0  1.054997  0  1.811437  0  0  0.864321  0  2.290069  0  0  0.915948  0  2.228977  0  1.313451  0  0.687472  0.828051  0  2.331542  0
Zn  Zn1  1  0.10947713  0.11295678  0.43128870  1  0  1.055031  0  1.811401  0  0  0.864365  0  2.290031  0  0  0.915996  0  2.228936  0  1.313474  0  0.687471  0.828096  0  2.331504  0
H  H2  1  0.99833732  0.00259978  0.82836418  1  0  0.098131  0  0.946084  0  0  0.106499  0  1.005824  0  0  0.109569  0  1.00278  0  0.128364  0  0.118715  0.104078  0  1.008298  0
H  H3  1  0.00166584  0.99740598  0.17163572  1  0  0.098121  0  0.946132  0  0  0.106479  0  1.005884  0  0  0.109544  0  1.002838  0  0.128648  0  0.118711  0.104058  0  1.008358  0
H  H4  1  0.18047347  0.00389917  0.01075730  1  0  0.119794  0  0.956204  0  0  0.130285  0  1.014025  0  0  0.133884  0  1.01246  0  0.112517  0  0.110357  0.127618  0  1.015402  0
H  H5  1  0.81953098  0.99610757  0.98924221  1  0  0.119874  0  0.956109  0  0  0.130291  0  1.014013  0  0  0.133891  0  1.012444  0  0.112468  0  0.110374  0.127625  0  1.015392  0
H  H6  1  0.31364471  0.75145234  0.79449566  1  0  0.10344  0  0.972786  0  0  0.113146  0  1.034087  0  0  0.115067  0  1.035929  0  0.093909  0  0.102883  0.111529  0  1.033408  0
H  H7  1  0.68635782  0.24855145  0.20550552  1  0  0.103437  0  0.972839  0  0  0.113133  0  1.034151  0  0  0.115053  0  1.035996  0  0.094206  0  0.102866  0.111529  0  1.03346  0
H  H8  1  0.12463602  0.75971405  0.62338552  1  0  0.080095  0  0.956759  0  0  0.089291  0  1.019385  0  0  0.090941  0  1.018592  0  0.116962  0  0.115315  0.087976  0  1.020058  0
H  H9  1  0.87536269  0.24028382  0.37661656  1  0  0.080192  0  0.95658  0  0  0.089348  0  1.019251  0  0  0.091007  0  1.018457  0  0.116917  0  0.115332  0.088033  0  1.019923  0
H  H10  1  0.43853056  0.81409251  0.99383808  1  0  0.080293  0  0.972383  0  0  0.090655  0  1.037988  0  0  0.092994  0  1.037379  0  0.062437  0  0.098528  0.088905  0  1.038605  0
H  H11  1  0.56147358  0.18591325  0.00616125  1  0  0.080379  0  0.972269  0  0  0.09069  0  1.03793  0  0  0.093033  0  1.037321  0  0.062564  0  0.098533  0.08894  0  1.03855  0
H  H12  1  0.78412243  0.79320851  0.30055843  1  0  0.076479  0  0.965186  0  0  0.086262  0  1.026741  0  0  0.087992  0  1.025312  0  0.09613  0  0.115849  0.08489  0  1.028001  0
H  H13  1  0.21587596  0.20678838  0.69943855  1  0  0.076516  0  0.965125  0  0  0.086286  0  1.026684  0  0  0.088017  0  1.025256  0  0.096026  0  0.11587  0.084916  0  1.027941  0
H  H14  1  0.59698407  0.79524338  0.12761661  1  0  0.098623  0  0.955531  0  0  0.112356  0  1.011289  0  0  0.115016  0  1.011005  0  0.060067  0  0.106373  0.110482  0  1.011643  0
H  H15  1  0.40301714  0.20476238  0.87237952  1  0  0.09861  0  0.955577  0  0  0.112335  0  1.011343  0  0  0.114992  0  1.011066  0  0.060088  0  0.106379  0.110464  0  1.011692  0
H  H16  1  0.47818022  0.04550549  0.35740081  1  0  0.112309  0  0.954799  0  0  0.121857  0  1.015117  0  0  0.124415  0  1.015476  0  0.076719  0  0.109778  0.11981  0  1.015377  0
H  H17  1  0.52182137  0.95449534  0.64259901  1  0  0.112287  0  0.95482  0  0  0.121841  0  1.015131  0  0  0.124402  0  1.015488  0  0.076694  0  0.109767  0.119793  0  1.015392  0
H  H18  1  0.67219804  0.03131171  0.52230864  1  0  0.076799  0  0.952351  0  0  0.084921  0  1.019037  0  0  0.0868  0  1.017769  0  0.12886  0  0.116028  0.08353  0  1.019892  0
H  H19  1  0.32779878  0.96868025  0.47769155  1  0  0.076754  0  0.952388  0  0  0.084918  0  1.019033  0  0  0.086794  0  1.017768  0  0.12884  0  0.116034  0.083528  0  1.019886  0
H  H20  1  0.34470061  0.98864639  0.15491189  1  0  0.113616  0  0.994635  0  0  0.12157  0  1.059195  0  0  0.125438  0  1.056969  0  0.146086  0  0.104672  0.118697  0  1.060955  0
H  H21  1  0.65530579  0.01136035  0.84508645  1  0  0.113695  0  0.994624  0  0  0.121644  0  1.059147  0  0  0.12549  0  1.056948  0  0.146089  0  0.104681  0.118772  0  1.060907  0
H  H22  1  0.79631320  0.15804623  0.72193086  1  0  0.104269  0  0.958132  0  0  0.111464  0  1.025105  0  0  0.115089  0  1.022267  0  0.110329  0  0.100999  0.108899  0  1.027133  0
H  H23  1  0.20367667  0.84195756  0.27806881  1  0  0.104254  0  0.958186  0  0  0.111444  0  1.025157  0  0  0.115068  0  1.022322  0  0.11025  0  0.10097  0.108864  0  1.027201  0
H  H24  1  0.67694755  0.31488573  0.77816229  1  0  0.08122  0  0.970114  0  0  0.090889  0  1.030647  0  0  0.093436  0  1.030913  0  0.04875  0  0.092158  0.089099  0  1.030571  0
H  H25  1  0.32304549  0.68512496  0.22183148  1  0  0.08123  0  0.970175  0  0  0.090909  0  1.030696  0  0  0.093457  0  1.030962  0  0.048697  0  0.09214  0.08912  0  1.030619  0
H  H26  1  0.72509061  0.53648210  0.72803442  1  0  0.084604  0  0.983084  0  0  0.093859  0  1.044807  0  0  0.09582  0  1.044973  0  0.095979  0  0.096003  0.092649  0  1.04442  0
H  H27  1  0.27491283  0.46352760  0.27196021  1  0  0.084603  0  0.982975  0  0  0.093848  0  1.044722  0  0  0.09581  0  1.044888  0  0.096533  0  0.095973  0.092637  0  1.044336  0
H  H28  1  0.89214266  0.60386536  0.62472575  1  0  0.094689  0  0.970972  0  0  0.10119  0  1.039477  0  0  0.104422  0  1.03785  0  0.096322  0  0.098386  0.099006  0  1.040573  0
H  H29  1  0.10786381  0.39613547  0.37526790  1  0  0.094698  0  0.971058  0  0  0.101242  0  1.039506  0  0  0.104474  0  1.037878  0  0.096427  0  0.098427  0.099056  0  1.040604  0
H  H30  1  0.01231046  0.44659109  0.56948355  1  0  0.093552  0  0.969524  0  0  0.102928  0  1.034264  0  0  0.105891  0  1.032378  0  0.081786  0  0.10045  0.100824  0  1.03556  0
H  H31  1  0.98768960  0.55340186  0.43051344  1  0  0.093526  0  0.969532  0  0  0.102923  0  1.034261  0  0  0.105888  0  1.032372  0  0.081766  0  0.100439  0.100819  0  1.035555  0
H  H32  1  0.49318753  0.61333183  0.53506686  1  0  0.099098  0  0.953146  0  0  0.108662  0  1.015431  0  0  0.111695  0  1.014277  0  0.099271  0  0.103514  0.106511  0  1.016222  0
H  H33  1  0.50681837  0.38666111  0.46493898  1  0  0.099062  0  0.953176  0  0  0.108578  0  1.015515  0  0  0.111597  0  1.014375  0  0.099303  0  0.103486  0.106431  0  1.016296  0
H  H34  1  0.30647465  0.44254699  0.56695285  1  0  0.10355  0  0.955519  0  0  0.112266  0  1.018911  0  0  0.115523  0  1.017336  0  0.113785  0  0.102259  0.109854  0  1.020216  0
H  H35  1  0.69352666  0.55744990  0.43305061  1  0  0.103554  0  0.955537  0  0  0.112318  0  1.018873  0  0  0.115579  0  1.017287  0  0.113782  0  0.102287  0.10991  0  1.020171  0
H  H36  1  0.30041662  0.43595634  0.76932323  1  0  0.083977  0  0.953078  0  0  0.097166  0  1.008447  0  0  0.099937  0  1.007144  0  0.073269  0  0.098709  0.095209  0  1.009441  0
H  H37  1  0.69957980  0.56404350  0.23067766  1  0  0.083945  0  0.953066  0  0  0.097152  0  1.008427  0  0  0.099925  0  1.007122  0  0.073315  0  0.098686  0.095194  0  1.009421  0
H  H38  1  0.48237241  0.59649883  0.93901208  1  0  0.077402  0  0.958394  0  0  0.089457  0  1.016797  0  0  0.092568  0  1.015175  0  0.053146  0  0.094049  0.08734  0  1.017919  0
H  H39  1  0.51762143  0.40349904  0.06099044  1  0  0.077307  0  0.958337  0  0  0.089356  0  1.016757  0  0  0.092463  0  1.015136  0  0.053276  0  0.094037  0.087239  0  1.017878  0
H  H40  1  0.66692658  0.77021964  0.90501153  1  0  0.088765  0  0.960076  0  0  0.097594  0  1.024398  0  0  0.10101  0  1.022439  0  0.01767  0  0.098281  0.0952  0  1.025814  0
H  H41  1  0.33307055  0.22977330  0.09499295  1  0  0.088733  0  0.960149  0  0  0.097599  0  1.024437  0  0  0.101017  0  1.022476  0  0.017691  0  0.098255  0.095204  0  1.025854  0
C  C42  1  0.07184909  0.94948113  0.82598480  1  0  0.132132  0  3.697003  0  0  0.100235  0  3.947026  0  0  0.107113  0  3.966109  0  0.455217  0  0.044752  0.095843  0  3.93409  0
C  C43  1  0.92815633  0.05052562  0.17401494  1  0  0.132194  0  3.696925  0  0  0.100304  0  3.946931  0  0  0.107195  0  3.966006  0  0.456053  0  0.044792  0.095912  0  3.933995  0
C  C44  1  0.17333437  0.94926029  0.92661202  1  0  -0.170065  0  3.674381  0  0  -0.182784  0  3.911865  0  0  -0.191739  0  3.933641  0  -0.020481  0  -0.082143  -0.177011  0  3.897236  0
C  C45  1  0.82667265  0.05074843  0.07338750  1  0  -0.170092  0  3.674324  0  0  -0.182803  0  3.911825  0  0  -0.191755  0  3.933595  0  -0.021251  0  -0.082162  -0.177031  0  3.897199  0
C  C46  1  0.26480487  0.87765744  0.91846018  1  0  0.137762  0  3.804089  0  0  0.152987  0  4.031629  0  0  0.158416  0  4.054388  0  -0.0741  0  0.007371  0.149676  0  4.015873  0
C  C47  1  0.73520087  0.12235029  0.08153975  1  0  0.137634  0  3.804239  0  0  0.152974  0  4.031624  0  0  0.158401  0  4.054392  0  -0.074733  0  0.007324  0.149662  0  4.015872  0
C  C48  1  0.24638806  0.80878155  0.80663503  1  0  -0.165316  0  3.700865  0  0  -0.179203  0  3.940438  0  0  -0.187816  0  3.962753  0  0.025169  0  -0.08283  -0.173774  0  3.92572  0
C  C49  1  0.75361608  0.19122421  0.19336512  1  0  -0.165313  0  3.700951  0  0  -0.179222  0  3.940501  0  0  -0.187836  0  3.962823  0  0.025007  0  -0.082799  -0.173805  0  3.925778  0
C  C50  1  0.14148191  0.81315000  0.71066917  1  0  0.128454  0  3.725229  0  0  0.097166  0  3.976789  0  0  0.104399  0  3.996252  0  0.439501  0  0.044636  0.092711  0  3.963219  0
C  C51  1  0.85852031  0.18685280  0.28933101  1  0  0.128403  0  3.725121  0  0  0.097125  0  3.976676  0  0  0.104351  0  3.996152  0  0.439543  0  0.04462  0.092672  0  3.963109  0
C  C52  1  0.37604869  0.87174114  0.01742716  1  0  -0.093722  0  3.719008  0  0  -0.111462  0  3.966169  0  0  -0.114191  0  3.987017  0  -0.04961  0  -0.078398  -0.10942  0  3.951821  0
C  C53  1  0.62395642  0.12826462  0.98257159  1  0  -0.09364  0  3.718991  0  0  -0.111401  0  3.966118  0  0  -0.114134  0  3.986963  0  -0.049459  0  -0.078381  -0.109361  0  3.951772  0
C  C54  1  0.71340218  0.84728134  0.30933250  1  0  0.135697  0  3.728614  0  0  0.102534  0  3.983997  0  0  0.109698  0  4.0036  0  0.470484  0  0.045654  0.097855  0  3.971144  0
C  C55  1  0.28659750  0.15271653  0.69066655  1  0  0.135713  0  3.728581  0  0  0.102579  0  3.983949  0  0  0.109742  0  4.00355  0  0.470623  0  0.045679  0.097899  0  3.971099  0
C  C56  1  0.60815321  0.84937536  0.21299689  1  0  -0.16619  0  3.71425  0  0  -0.183395  0  3.96108  0  0  -0.191872  0  3.983139  0  -0.012362  0  -0.082004  -0.178317  0  3.946764  0
C  C57  1  0.39184773  0.15062646  0.78700123  1  0  -0.166193  0  3.714303  0  0  -0.183432  0  3.961125  0  0  -0.191908  0  3.983186  0  -0.012384  0  -0.082055  -0.178357  0  3.946809  0
C  C58  1  0.51905822  0.92140510  0.22665449  1  0  0.139035  0  3.805505  0  0  0.153464  0  4.038512  0  0  0.159781  0  4.060313  0  -0.024048  0  0.009997  0.149372  0  4.023815  0
C  C59  1  0.48094498  0.07859770  0.77334512  1  0  0.139034  0  3.805635  0  0  0.15351  0  4.03855  0  0  0.159829  0  4.060348  0  -0.024236  0  0.009976  0.14942  0  4.023852  0
C  C60  1  0.54332326  0.98758953  0.34119613  1  0  -0.164845  0  3.684738  0  0  -0.1803  0  3.9277  0  0  -0.189021  0  3.9495  0  -0.043697  0  -0.079061  -0.174673  0  3.913223  0
C  C61  1  0.45667771  0.01240933  0.65880334  1  0  -0.164684  0  3.684605  0  0  -0.18017  0  3.927557  0  0  -0.18889  0  3.949354  0  -0.043663  0  -0.078987  -0.174542  0  3.913079  0
C  C62  1  0.65107955  0.97989962  0.43317553  1  0  0.13019  0  3.714885  0  0  0.100978  0  3.961078  0  0  0.108269  0  3.980149  0  0.450037  0  0.046083  0.096562  0  3.947701  0
C  C63  1  0.34891822  0.02009529  0.56682438  1  0  0.130148  0  3.714988  0  0  0.100905  0  3.961189  0  0  0.108196  0  3.980263  0  0.450134  0  0.046024  0.096489  0  3.947813  0
C  C64  1  0.40627848  0.93012131  0.13034279  1  0  -0.105254  0  3.6802  0  0  -0.126263  0  3.929977  0  0  -0.130495  0  3.949928  0  -0.025778  0  -0.080913  -0.123517  0  3.91663  0
C  C65  1  0.59372566  0.06988445  0.86965653  1  0  -0.105461  0  3.680471  0  0  -0.126426  0  3.930162  0  0  -0.130644  0  3.95013  0  -0.025643  0  -0.080891  -0.123679  0  3.916811  0
C  C66  1  0.97203094  0.19532845  0.59908314  1  0  0.660227  0  3.900042  0  0  0.604811  0  4.197806  0  0  0.641026  0  4.188001  0  1.553319  0  0.215247  0.580301  0  4.203613  0
C  C67  1  0.02796001  0.80466646  0.40091753  1  0  0.660193  0  3.899896  0  0  0.604831  0  4.197623  0  0  0.641039  0  4.18782  0  1.553185  0  0.215241  0.580321  0  4.203433  0
C  C68  1  0.90929633  0.29291430  0.64054063  1  0  -0.091103  0  3.796236  0  0  -0.065397  0  4.026123  0  0  -0.076007  0  4.052035  0  -0.085238  0  -0.02943  -0.058567  0  4.00865  0
C  C69  1  0.09069751  0.70708357  0.35945942  1  0  -0.091124  0  3.796233  0  0  -0.06548  0  4.026197  0  0  -0.07608  0  4.052105  0  -0.085261  0  -0.029412  -0.058647  0  4.008722  0
C  C70  1  0.81604905  0.25589235  0.70083949  1  0  -0.078381  0  3.740382  0  0  -0.100539  0  3.981858  0  0  -0.0999  0  4.00266  0  -0.024507  0  -0.090088  -0.100976  0  3.967969  0
C  C71  1  0.18394375  0.74411144  0.29915927  1  0  -0.078372  0  3.740307  0  0  -0.100503  0  3.9818  0  0  -0.099868  0  4.002603  0  -0.024286  0  -0.090063  -0.100932  0  3.96792  0
C  C72  1  0.75045464  0.34378793  0.73245872  1  0  -0.081201  0  3.783226  0  0  -0.089011  0  4.02568  0  0  -0.092888  0  4.047185  0  -0.082116  0  -0.095879  -0.086461  0  4.011139  0
C  C73  1  0.24953972  0.65622078  0.26753683  1  0  -0.081177  0  3.783123  0  0  -0.088989  0  4.025539  0  0  -0.092868  0  4.047045  0  -0.082266  0  -0.095877  -0.086438  0  4.010993  0
C  C74  1  0.77781741  0.46866899  0.70472716  1  0  -0.04572  0  3.740134  0  0  -0.059652  0  3.981465  0  0  -0.058792  0  4.001154  0  -0.053973  0  -0.086422  -0.060143  0  3.967835  0
C  C75  1  0.22218345  0.53133874  0.29526662  1  0  -0.045697  0  3.740096  0  0  -0.059629  0  3.981428  0  0  -0.058766  0  4.001116  0  -0.054378  0  -0.086345  -0.060116  0  3.967796  0
C  C76  1  0.87214305  0.50659204  0.64636936  1  0  -0.076262  0  3.767618  0  0  -0.087995  0  4.017796  0  0  -0.091898  0  4.039423  0  -0.030622  0  -0.093512  -0.085341  0  4.002733  0
C  C77  1  0.12786115  0.49340780  0.35362773  1  0  -0.076358  0  3.767761  0  0  -0.08812  0  4.017938  0  0  -0.092025  0  4.039566  0  -0.030786  0  -0.093584  -0.085469  0  4.002874  0
C  C78  1  0.93805640  0.41911743  0.61469140  1  0  -0.080187  0  3.757646  0  0  -0.103607  0  4.001472  0  0  -0.10321  0  4.023049  0  -0.064703  0  -0.090784  -0.103414  0  3.986293  0
C  C79  1  0.06194133  0.58088044  0.38530634  1  0  -0.080073  0  3.757481  0  0  -0.103503  0  4.00134  0  0  -0.103108  0  4.022913  0  -0.064668  0  -0.090749  -0.103308  0  3.98616  0
C  C80  1  0.70670810  0.80294905  0.69967761  1  0  0.633715  0  3.931941  0  0  0.585347  0  4.228398  0  0  0.619525  0  4.2205  0  1.575549  0  0.199761  0.561976  0  4.23312  0
C  C81  1  0.29329453  0.19704586  0.30032926  1  0  0.633599  0  3.93206  0  0  0.58518  0  4.228565  0  0  0.619356  0  4.220673  0  1.575569  0  0.199756  0.561808  0  4.233283  0
C  C82  1  0.59087039  0.70234048  0.71805520  1  0  -0.06749  0  3.767047  0  0  -0.041854  0  3.995403  0  0  -0.049046  0  4.017709  0  -0.038605  0  -0.020229  -0.037046  0  3.980416  0
C  C83  1  0.40913388  0.29765345  0.28195115  1  0  -0.067444  0  3.766974  0  0  -0.041718  0  3.995205  0  0  -0.048912  0  4.017512  0  -0.038462  0  -0.020221  -0.036902  0  3.980203  0
C  C84  1  0.48894994  0.60994433  0.62308998  1  0  -0.072038  0  3.725978  0  0  -0.094643  0  3.968695  0  0  -0.094447  0  3.988501  0  -0.069976  0  -0.082811  -0.094644  0  3.955192  0
C  C85  1  0.51105433  0.39004960  0.37691227  1  0  -0.071998  0  3.726087  0  0  -0.094582  0  3.968801  0  0  -0.094373  0  3.988613  0  -0.070299  0  -0.082849  -0.094587  0  3.955299  0
C  C86  1  0.38448059  0.51458363  0.64126496  1  0  -0.070296  0  3.751025  0  0  -0.081699  0  3.998451  0  0  -0.084627  0  4.01983  0  -0.011805  0  -0.089871  -0.079677  0  3.98395  0
C  C87  1  0.61551947  0.48540932  0.35873696  1  0  -0.070255  0  3.751185  0  0  -0.081703  0  3.99861  0  0  -0.084624  0  4.01998  0  -0.011415  0  -0.089823  -0.079684  0  3.984122  0
C  C88  1  0.38210661  0.51013334  0.75500774  1  0  -0.071783  0  3.786411  0  0  -0.087095  0  4.034796  0  0  -0.087761  0  4.055909  0  -0.134104  0  -0.094255  -0.086537  0  4.020385  0
C  C89  1  0.61789112  0.48986453  0.24499492  1  0  -0.071866  0  3.786486  0  0  -0.087209  0  4.034901  0  0  -0.087877  0  4.056016  0  -0.134507  0  -0.094299  -0.086653  0  4.020491  0
C  C90  1  0.48389909  0.60136812  0.85028269  1  0  -0.099208  0  3.828161  0  0  -0.108887  0  4.078052  0  0  -0.112009  0  4.099494  0  -0.044329  0  -0.102915  -0.106638  0  4.063271  0
C  C91  1  0.51609867  0.39862680  0.14972050  1  0  -0.099022  0  3.828068  0  0  -0.108681  0  4.077948  0  0  -0.111799  0  4.099389  0  -0.044275  0  -0.102837  -0.106432  0  4.063166  0
C  C92  1  0.58692154  0.69811892  0.83179875  1  0  -0.09172  0  3.771527  0  0  -0.113421  0  4.017433  0  0  -0.113807  0  4.037858  0  -0.036369  0  -0.092852  -0.112939  0  4.003485  0
C  C93  1  0.41307950  0.30187402  0.16820588  1  0  -0.091808  0  3.771619  0  0  -0.113571  0  4.017495  0  0  -0.113961  0  4.037925  0  -0.036359  0  -0.092898  -0.113089  0  4.003544  0
N  N94  1  0.05509414  0.88236405  0.71904399  1  0  -0.330252  0  3.256402  0  0  -0.25123  0  3.525168  0  0  -0.271112  0  3.542657  0  -1.223483  0  -0.320376  -0.237853  0  3.512866  0
N  N95  1  0.94490711  0.11763875  0.28095596  1  0  -0.33035  0  3.256508  0  0  -0.251281  0  3.525222  0  0  -0.271173  0  3.542723  0  -1.22348  0  -0.320407  -0.237903  0  3.512918  0
N  N96  1  0.73602143  0.91116668  0.41839960  1  0  -0.326787  0  3.255389  0  0  -0.248891  0  3.521163  0  0  -0.268113  0  3.537806  0  -1.200046  0  -0.319361  -0.235988  0  3.509649  0
N  N97  1  0.26397602  0.08882725  0.58159931  1  0  -0.326836  0  3.255467  0  0  -0.248953  0  3.521246  0  0  -0.268173  0  3.537887  0  -1.200154  0  -0.319372  -0.23605  0  3.509733  0
O  O98  1  0.94737588  0.08494582  0.62981857  1  0  -0.65716  0  2.155583  0  0  -0.594669  0  2.452809  0  0  -0.621468  0  2.434626  0  -1.199363  0  -0.318671  -0.575732  0  2.464522  0
O  O99  1  0.05260794  0.91504811  0.37018186  1  0  -0.657178  0  2.155506  0  0  -0.594778  0  2.452836  0  0  -0.621581  0  2.434665  0  -1.199246  0  -0.318732  -0.575837  0  2.46454  0
O  O100  1  0.04638136  0.22973189  0.53511927  1  0  -0.644502  0  2.079956  0  0  -0.571464  0  2.354453  0  0  -0.598668  0  2.337646  0  -1.184895  0  -0.316582  -0.552531  0  2.365358  0
O  O101  1  0.95361286  0.77026105  0.46488365  1  0  -0.644485  0  2.079767  0  0  -0.571451  0  2.354257  0  0  -0.598651  0  2.337446  0  -1.18497  0  -0.316598  -0.55252  0  2.365161  0
O  O102  1  0.73845242  0.76708749  0.60874205  1  0  -0.650551  0  2.045094  0  0  -0.581725  0  2.317697  0  0  -0.61145  0  2.304094  0  -1.172034  0  -0.330884  -0.560423  0  2.325656  0
O  O103  1  0.26154531  0.23291039  0.39126062  1  0  -0.650506  0  2.045053  0  0  -0.581665  0  2.317667  0  0  -0.611387  0  2.304059  0  -1.17208  0  -0.330888  -0.560363  0  2.325627  0
O  O104  1  0.76379619  0.91134611  0.77113936  1  0  -0.6229  0  1.936704  0  0  -0.578964  0  2.163598  0  0  -0.601342  0  2.153273  0  -1.188885  0  -0.323983  -0.562827  0  2.170117  0
O  O105  1  0.23620582  0.08864683  0.22886962  1  0  -0.622775  0  1.93685  0  0  -0.578847  0  2.163816  0  0  -0.601215  0  2.15346  0  -1.188858  0  -0.323923  -0.562709  0  2.170329  0
