# generated using pymatgen
data_LiH3C2O3
_symmetry_space_group_name_H-M   'P 1'
_cell_length_a   4.91998123
_cell_length_b   10.99394755
_cell_length_c   15.73160624
_cell_angle_alpha   90.00102685
_cell_angle_beta   90.00136457
_cell_angle_gamma   90.00065722
_symmetry_Int_Tables_number   1
_chemical_formula_structural   LiH3C2O3
_chemical_formula_sum   'Li8 H24 C16 O24'
_cell_volume   850.92282631
_cell_formula_units_Z   8
loop_
 _symmetry_equiv_pos_site_id
 _symmetry_equiv_pos_as_xyz
  1  'x, y, z'
loop_
 _atom_site_type_symbol
 _atom_site_label
 _atom_site_symmetry_multiplicity
 _atom_site_fract_x
 _atom_site_fract_y
 _atom_site_fract_z
 _atom_site_occupancy
 _atom_site_hle17_bader_spin_density
 _atom_site_hle17_ddec_charge
 _atom_site_hle17_ddec_spin_density
 _atom_site_hle17_ddec_sum_bond_order
 _atom_site_hle17_magmom
 _atom_site_hse06_10hf_bader_spin_density
 _atom_site_hse06_10hf_ddec_charge
 _atom_site_hse06_10hf_ddec_spin_density
 _atom_site_hse06_10hf_ddec_sum_bond_order
 _atom_site_hse06_10hf_magmom
 _atom_site_hse06_bader_spin_density
 _atom_site_hse06_ddec_charge
 _atom_site_hse06_ddec_spin_density
 _atom_site_hse06_ddec_sum_bond_order
 _atom_site_hse06_magmom
 _atom_site_pbe_bader_spin_density
 _atom_site_pbe_cm5_charge
 _atom_site_pbe_ddec_charge
 _atom_site_pbe_ddec_spin_density
 _atom_site_pbe_ddec_sum_bond_order
 _atom_site_pbe_magmom
Li  Li0  1  0.97529515  0.26554068  0.44811225  1  0  0.857144  0  0.402606  0  0  0.820168  0  0.50414  0  0  0.829087  0  0.48778  0  0  0.525443  0.813632  0  0.51607  0
Li  Li1  1  0.52469619  0.23446120  0.94811779  1  0  0.857148  0  0.402615  0  0  0.820207  0  0.504086  0  0  0.829125  0  0.487728  0  0  0.525486  0.813674  0  0.516011  0
Li  Li2  1  0.47529470  0.23445646  0.55188661  1  0  0.857121  0  0.402633  0  0  0.820215  0  0.504035  0  0  0.82913  0  0.487683  0  0  0.525464  0.813681  0  0.515962  0
Li  Li3  1  0.02470526  0.26554586  0.05188726  1  0  0.857144  0  0.402626  0  0  0.820233  0  0.504029  0  0  0.829147  0  0.487681  0  0  0.525466  0.813699  0  0.515956  0
Li  Li4  1  0.02469279  0.73446062  0.55188580  1  0  0.857135  0  0.402624  0  0  0.820206  0  0.504079  0  0  0.829123  0  0.487722  0  0  0.525487  0.813672  0  0.516006  0
Li  Li5  1  0.47529581  0.76553737  0.05188725  1  0  0.857123  0  0.402607  0  0  0.820171  0  0.504095  0  0  0.82909  0  0.487738  0  0  0.525446  0.813637  0  0.516023  0
Li  Li6  1  0.52470543  0.76554393  0.44811398  1  0  0.857121  0  0.402603  0  0  0.820199  0  0.504028  0  0  0.829117  0  0.487673  0  0  0.525442  0.813664  0  0.515957  0
Li  Li7  1  0.97530706  0.73445544  0.94811461  1  0  0.857139  0  0.402626  0  0  0.820228  0  0.504041  0  0  0.829144  0  0.487688  0  0  0.525496  0.813694  0  0.515969  0
H  H8  1  0.15011266  0.49404772  0.39877566  1  0  0.440775  0  0.844686  0  0  0.416272  0  0.896008  0  0  0.424916  0  0.88328  0  0  0.314963  0.410185  0  0.904982  0
H  H9  1  0.34987923  0.00595634  0.89877860  1  0  0.440839  0  0.844597  0  0  0.416316  0  0.895959  0  0  0.424962  0  0.883229  0  0  0.314952  0.410229  0  0.904934  0
H  H10  1  0.65010479  0.00595987  0.60122078  1  0  0.440808  0  0.844642  0  0  0.416291  0  0.89599  0  0  0.424934  0  0.883263  0  0  0.314942  0.410205  0  0.904964  0
H  H11  1  0.84989056  0.49404482  0.10122251  1  0  0.440819  0  0.844632  0  0  0.41631  0  0.895967  0  0  0.424954  0  0.883239  0  0  0.314979  0.410224  0  0.90494  0
H  H12  1  0.84988340  0.50595449  0.60122239  1  0  0.440799  0  0.844656  0  0  0.416298  0  0.895983  0  0  0.424939  0  0.883255  0  0  0.314959  0.41021  0  0.904957  0
H  H13  1  0.65013513  0.99404314  0.10121945  1  0  0.440831  0  0.844597  0  0  0.416318  0  0.895939  0  0  0.424963  0  0.88321  0  0  0.314941  0.410232  0  0.904912  0
H  H14  1  0.34989128  0.99403962  0.39878045  1  0  0.440805  0  0.844638  0  0  0.416289  0  0.895984  0  0  0.424933  0  0.883257  0  0  0.314964  0.410204  0  0.904957  0
H  H15  1  0.15011160  0.50595467  0.89877872  1  0  0.440778  0  0.844689  0  0  0.416266  0  0.896028  0  0  0.424911  0  0.883299  0  0  0.314972  0.410181  0  0.905001  0
H  H16  1  0.84578097  0.46184041  0.38503436  1  0  0.431677  0  0.819926  0  0  0.418702  0  0.868223  0  0  0.425442  0  0.858397  0  0  0.337176  0.413944  0  0.874692  0
H  H17  1  0.65423197  0.03816728  0.88503374  1  0  0.431717  0  0.819906  0  0  0.418748  0  0.868161  0  0  0.425489  0  0.858332  0  0  0.337207  0.413991  0  0.87465  0
H  H18  1  0.34576317  0.03816619  0.61496481  1  0  0.431824  0  0.819752  0  0  0.418834  0  0.868051  0  0  0.425578  0  0.858214  0  0  0.337208  0.414073  0  0.874551  0
H  H19  1  0.15423754  0.46184124  0.11496464  1  0  0.431703  0  0.81982  0  0  0.418713  0  0.868201  0  0  0.425457  0  0.858366  0  0  0.337157  0.413953  0  0.87463  0
H  H20  1  0.15422525  0.53816272  0.61496115  1  0  0.431702  0  0.819941  0  0  0.418725  0  0.868206  0  0  0.425465  0  0.858378  0  0  0.337144  0.413967  0  0.874714  0
H  H21  1  0.34578238  0.96183039  0.11496495  1  0  0.43163  0  0.81986  0  0  0.418659  0  0.86826  0  0  0.425399  0  0.858433  0  0  0.337104  0.413902  0  0.874633  0
H  H22  1  0.65424305  0.96183693  0.38503578  1  0  0.431726  0  0.8198  0  0  0.418736  0  0.86817  0  0  0.425479  0  0.858334  0  0  0.33715  0.413974  0  0.874611  0
H  H23  1  0.84577275  0.53815461  0.88503341  1  0  0.431608  0  0.819966  0  0  0.418629  0  0.868312  0  0  0.425368  0  0.858488  0  0  0.337126  0.413871  0  0.874744  0
H  H24  1  0.79556561  0.19715075  0.28362124  1  0  0.124037  0  0.957023  0  0  0.129  0  1.024295  0  0  0.133646  0  1.02104  0  0  0.117703  0.125647  0  1.026827  0
H  H25  1  0.70441317  0.30285092  0.78362015  1  0  0.124079  0  0.956957  0  0  0.128973  0  1.024293  0  0  0.133618  0  1.021043  0  0  0.117707  0.125622  0  1.026823  0
H  H26  1  0.29558994  0.30285655  0.71637820  1  0  0.124032  0  0.957014  0  0  0.128939  0  1.024307  0  0  0.133588  0  1.021049  0  0  0.117682  0.125588  0  1.026837  0
H  H27  1  0.20441038  0.19713507  0.21637543  1  0  0.123989  0  0.956982  0  0  0.128896  0  1.024304  0  0  0.133543  0  1.021048  0  0  0.117663  0.125546  0  1.026833  0
H  H28  1  0.20443655  0.80285601  0.71638317  1  0  0.124077  0  0.957058  0  0  0.128984  0  1.024371  0  0  0.13363  0  1.021117  0  0  0.117721  0.125633  0  1.026903  0
H  H29  1  0.29559102  0.69714856  0.21637790  1  0  0.124055  0  0.957027  0  0  0.128949  0  1.024342  0  0  0.133596  0  1.021084  0  0  0.117679  0.125597  0  1.026873  0
H  H30  1  0.70441222  0.69715112  0.28362113  1  0  0.124037  0  0.957062  0  0  0.128924  0  1.024402  0  0  0.133571  0  1.021148  0  0  0.117656  0.125574  0  1.026932  0
H  H31  1  0.79557552  0.80285532  0.78362199  1  0  0.124065  0  0.957036  0  0  0.128984  0  1.02434  0  0  0.133634  0  1.021081  0  0  0.117681  0.125633  0  1.026871  0
C  C32  1  0.44611441  0.19860002  0.37178895  1  0  0.71583  0  3.928491  0  0  0.674681  0  4.221525  0  0  0.707749  0  4.211213  0  0  0.225167  0.652331  0  4.227842  0
C  C33  1  0.05386932  0.30139978  0.87178545  1  0  0.715679  0  3.928175  0  0  0.674558  0  4.221173  0  0  0.707629  0  4.210865  0  0  0.225185  0.652206  0  4.227487  0
C  C34  1  0.94612969  0.30139882  0.62821478  1  0  0.715827  0  3.92818  0  0  0.674668  0  4.221217  0  0  0.707737  0  4.210905  0  0  0.225227  0.652317  0  4.227534  0
C  C35  1  0.55384536  0.19861104  0.12821155  1  0  0.715986  0  3.927873  0  0  0.674732  0  4.221063  0  0  0.707796  0  4.210755  0  0  0.225344  0.652381  0  4.22738  0
C  C36  1  0.55387759  0.80139492  0.62821800  1  0  0.715801  0  3.928168  0  0  0.674594  0  4.2213  0  0  0.707663  0  4.210988  0  0  0.225215  0.652244  0  4.227617  0
C  C37  1  0.94613691  0.69860334  0.12821514  1  0  0.715878  0  3.928  0  0  0.674637  0  4.221157  0  0  0.707706  0  4.210846  0  0  0.225193  0.652287  0  4.227473  0
C  C38  1  0.05386231  0.69860339  0.37178454  1  0  0.715817  0  3.928128  0  0  0.674605  0  4.221267  0  0  0.707678  0  4.210951  0  0  0.225178  0.652255  0  4.227583  0
C  C39  1  0.44612834  0.80139117  0.87178396  1  0  0.715891  0  3.927994  0  0  0.674692  0  4.221102  0  0  0.707761  0  4.210792  0  0  0.225247  0.652342  0  4.22742  0
C  C40  1  0.57373758  0.19498730  0.28586429  1  0  -0.171885  0  3.644873  0  0  -0.189574  0  3.89477  0  0  -0.195435  0  3.909919  0  0  -0.071855  -0.185726  0  3.884624  0
C  C41  1  0.92624950  0.30500715  0.78586234  1  0  -0.171841  0  3.644927  0  0  -0.189436  0  3.894778  0  0  -0.195296  0  3.909927  0  0  -0.071832  -0.185586  0  3.884628  0
C  C42  1  0.07375774  0.30500633  0.71413604  1  0  -0.171784  0  3.644872  0  0  -0.189326  0  3.894694  0  0  -0.195186  0  3.909846  0  0  -0.071741  -0.185474  0  3.884536  0
C  C43  1  0.42625257  0.19500434  0.21413998  1  0  -0.171757  0  3.644804  0  0  -0.189243  0  3.894658  0  0  -0.195103  0  3.909812  0  0  -0.071799  -0.185388  0  3.884493  0
C  C44  1  0.42625442  0.80499581  0.71413821  1  0  -0.171824  0  3.644886  0  0  -0.18939  0  3.894765  0  0  -0.195249  0  3.909915  0  0  -0.07181  -0.185536  0  3.884605  0
C  C45  1  0.07376282  0.69499233  0.21413572  1  0  -0.171889  0  3.64493  0  0  -0.189394  0  3.894732  0  0  -0.195257  0  3.909887  0  0  -0.071749  -0.185547  0  3.884589  0
C  C46  1  0.92624442  0.69499680  0.28586011  1  0  -0.171857  0  3.644925  0  0  -0.189407  0  3.894742  0  0  -0.195269  0  3.909894  0  0  -0.071786  -0.185558  0  3.884589  0
C  C47  1  0.57375569  0.80499697  0.78586697  1  0  -0.171934  0  3.644885  0  0  -0.189513  0  3.894746  0  0  -0.195377  0  3.909896  0  0  -0.071858  -0.185656  0  3.884582  0
O  O48  1  0.02043027  0.42605004  0.39937606  1  0  -0.875918  0  1.762988  0  0  -0.839292  0  1.910219  0  0  -0.85351  0  1.883908  0  0  -0.627454  -0.829308  0  1.928101  0
O  O49  1  0.47957792  0.07395040  0.89937644  1  0  -0.876028  0  1.762922  0  0  -0.839396  0  1.910091  0  0  -0.853612  0  1.88377  0  0  -0.627476  -0.82942  0  1.928011  0
O  O50  1  0.52042033  0.07395518  0.60062515  1  0  -0.876093  0  1.762845  0  0  -0.839455  0  1.910005  0  0  -0.853683  0  1.883717  0  0  -0.627462  -0.829471  0  1.927912  0
O  O51  1  0.97958107  0.42605040  0.10062310  1  0  -0.875996  0  1.762876  0  0  -0.839366  0  1.910117  0  0  -0.853583  0  1.883808  0  0  -0.627457  -0.82938  0  1.927953  0
O  O52  1  0.97956782  0.57395217  0.60062263  1  0  -0.875963  0  1.762992  0  0  -0.839344  0  1.910151  0  0  -0.853568  0  1.883867  0  0  -0.627417  -0.829361  0  1.928072  0
O  O53  1  0.52043847  0.92604908  0.10061907  1  0  -0.875906  0  1.762869  0  0  -0.839275  0  1.910174  0  0  -0.853502  0  1.883874  0  0  -0.627365  -0.829291  0  1.927959  0
O  O54  1  0.47958386  0.92604703  0.39937481  1  0  -0.875985  0  1.762871  0  0  -0.839348  0  1.910104  0  0  -0.853579  0  1.883826  0  0  -0.627419  -0.829363  0  1.927951  0
O  O55  1  0.02042313  0.57394817  0.89937750  1  0  -0.875855  0  1.763037  0  0  -0.839224  0  1.910291  0  0  -0.853442  0  1.883977  0  0  -0.627426  -0.829242  0  1.928133  0
O  O56  1  0.20646285  0.15705404  0.38176769  1  0  -0.730042  0  1.906865  0  0  -0.682903  0  2.124683  0  0  -0.704301  0  2.110897  0  0  -0.381676  -0.668017  0  2.133876  0
O  O57  1  0.29353994  0.34295327  0.88176145  1  0  -0.729936  0  1.906627  0  0  -0.682827  0  2.124427  0  0  -0.704229  0  2.110648  0  0  -0.38167  -0.667939  0  2.133618  0
O  O58  1  0.70647658  0.34295197  0.61823872  1  0  -0.729993  0  1.906838  0  0  -0.682882  0  2.124632  0  0  -0.704277  0  2.110846  0  0  -0.381686  -0.667995  0  2.133824  0
O  O59  1  0.79351397  0.15705038  0.11824306  1  0  -0.730215  0  1.906633  0  0  -0.683058  0  2.124461  0  0  -0.704456  0  2.110674  0  0  -0.381769  -0.668169  0  2.133653  0
O  O60  1  0.79353932  0.84294999  0.61823800  1  0  -0.730052  0  1.906601  0  0  -0.682899  0  2.124423  0  0  -0.704297  0  2.110638  0  0  -0.381712  -0.668014  0  2.133616  0
O  O61  1  0.70648051  0.65704986  0.11823724  1  0  -0.729953  0  1.906735  0  0  -0.682802  0  2.124579  0  0  -0.704203  0  2.110797  0  0  -0.381625  -0.667915  0  2.133771  0
O  O62  1  0.29352152  0.65705024  0.38175934  1  0  -0.729937  0  1.906799  0  0  -0.682796  0  2.124614  0  0  -0.704195  0  2.11083  0  0  -0.381615  -0.667909  0  2.133806  0
O  O63  1  0.20646583  0.84294546  0.88176517  1  0  -0.730086  0  1.90662  0  0  -0.682941  0  2.124436  0  0  -0.704345  0  2.110653  0  0  -0.381662  -0.668054  0  2.133627  0
O  O64  1  0.58967078  0.24235602  0.43243394  1  0  -0.791626  0  1.939014  0  0  -0.747124  0  2.173735  0  0  -0.767661  0  2.15752  0  0  -0.439481  -0.73276  0  2.18458  0
O  O65  1  0.91029497  0.25764641  0.93243758  1  0  -0.791678  0  1.938542  0  0  -0.747196  0  2.173234  0  0  -0.767741  0  2.157034  0  0  -0.439579  -0.732836  0  2.184094  0
O  O66  1  0.08969458  0.25764222  0.56756397  1  0  -0.791715  0  1.938467  0  0  -0.747223  0  2.173199  0  0  -0.767757  0  2.156981  0  0  -0.43958  -0.732863  0  2.184055  0
O  O67  1  0.41030454  0.24235592  0.06755635  1  0  -0.791687  0  1.93863  0  0  -0.747178  0  2.173423  0  0  -0.767709  0  2.157211  0  0  -0.439613  -0.732825  0  2.184289  0
O  O68  1  0.41029683  0.75764165  0.56757238  1  0  -0.791634  0  1.938729  0  0  -0.747124  0  2.173472  0  0  -0.76766  0  2.157261  0  0  -0.439527  -0.732764  0  2.184323  0
O  O69  1  0.08969499  0.74235853  0.06756302  1  0  -0.791751  0  1.938416  0  0  -0.747241  0  2.173183  0  0  -0.767777  0  2.156966  0  0  -0.439622  -0.732877  0  2.184032  0
O  O70  1  0.91030554  0.74235908  0.43243726  1  0  -0.791736  0  1.938491  0  0  -0.747234  0  2.173249  0  0  -0.767767  0  2.157029  0  0  -0.439621  -0.732872  0  2.184098  0
O  O71  1  0.58970372  0.75763538  0.93243026  1  0  -0.791643  0  1.938513  0  0  -0.747138  0  2.173271  0  0  -0.767672  0  2.157052  0  0  -0.439578  -0.732781  0  2.184129  0
