# generated using pymatgen
data_CuH17C23(N3O2)2
_symmetry_space_group_name_H-M   'P 1'
_cell_length_a   11.50947922
_cell_length_b   15.37733850
_cell_length_c   17.73395213
_cell_angle_alpha   116.28845107
_cell_angle_beta   90.01949562
_cell_angle_gamma   111.95209793
_symmetry_Int_Tables_number   1
_chemical_formula_structural   CuH17C23(N3O2)2
_chemical_formula_sum   'Cu4 H68 C92 N24 O16'
_cell_volume   2557.53534632
_cell_formula_units_Z   4
loop_
 _symmetry_equiv_pos_site_id
 _symmetry_equiv_pos_as_xyz
  1  'x, y, z'
loop_
 _atom_site_type_symbol
 _atom_site_label
 _atom_site_symmetry_multiplicity
 _atom_site_fract_x
 _atom_site_fract_y
 _atom_site_fract_z
 _atom_site_occupancy
 _atom_site_pbe_bader_charge
 _atom_site_pbe_bader_spin_density
 _atom_site_pbe_cm5_charge
 _atom_site_pbe_ddec_charge
 _atom_site_pbe_ddec_spin_density
 _atom_site_pbe_ddec_sum_bond_order
 _atom_site_pbe_magmom
Cu  Cu0  1  0.84011456  0.60173136  0.77127333  1  1.054063  0.560519  0.735936  0.766295  0.733872  2.250066  0.56
Cu  Cu1  1  0.23844359  0.39852807  0.72876421  1  1.050874  -0.559657  0.735172  0.76648  -0.772718  2.248289  -0.559
Cu  Cu2  1  0.15988711  0.39826950  0.22872555  1  1.054034  0.560272  0.735876  0.766208  0.733559  2.250056  0.56
Cu  Cu3  1  0.76156312  0.60147591  0.27123300  1  1.050852  0.559877  0.735177  0.76655  0.732979  2.248296  0.559
H  H4  1  0.88384753  0.52173531  0.56822782  1  0.159684  0.000214  0.137332  0.105349  7.3e-05  0.997322  0.0
H  H5  1  0.13912295  0.67050384  0.80378108  1  0.198327  0.000316  0.146588  0.129959  4.3e-05  1.014957  0.0
H  H6  1  0.34100228  0.67943915  0.74473952  1  0.079815  5.4e-05  0.119878  0.112619  1.7e-05  0.981779  0.0
H  H7  1  0.31900603  0.58412351  0.63642869  1  0.125229  0.000143  0.114477  0.109515  -8e-06  1.002873  0.0
H  H8  1  0.21674418  0.80756759  0.69642093  1  0.049484  1e-06  0.100366  0.101022  -4e-06  1.004594  0.0
H  H9  1  0.32318339  0.95944061  0.67001510  1  0.055303  7e-06  0.102195  0.10058  6e-06  1.010599  0.0
H  H10  1  0.61121369  0.84487122  0.57667509  1  0.093931  -1e-05  0.100921  0.105276  -3e-06  1.023461  0.0
H  H11  1  0.50679677  0.69540579  0.60570899  1  0.051574  5e-05  0.095591  0.099702  3.4e-05  1.037857  0.0
H  H12  1  0.38541810  0.04597081  0.59928144  1  0.038275  0.0  0.101618  0.100852  0.0  1.003641  0.0
H  H13  1  0.50506116  0.20032402  0.57762536  1  0.078466  -2e-05  0.103906  0.116117  -2.3e-05  1.002753  0.0
H  H14  1  0.85008639  0.15808589  0.60408370  1  0.05757  2.3e-05  0.101223  0.10136  2.4e-05  1.026498  0.0
H  H15  1  0.73235805  0.00769824  0.62866882  1  0.042213  -1e-06  0.104707  0.105684  -0.0  0.998336  0.0
H  H16  1  0.74188021  0.35478088  0.61559003  1  0.1363  -7.6e-05  0.114515  0.117169  -6.9e-05  1.019601  0.0
H  H17  1  0.72649807  0.26404782  0.50653655  1  0.13695  -0.000271  0.120335  0.118108  -0.000169  1.004372  0.0
H  H18  1  0.95852246  0.40937281  0.72125962  1  0.213877  -0.000195  0.144829  0.127665  5.2e-05  1.001385  0.0
H  H19  1  0.13276408  0.26583416  0.52213309  1  0.157056  -0.000103  0.138087  0.11655  1.3e-05  0.99797  0.0
H  H20  1  0.72950308  0.62496673  0.54679558  1  0.112281  0.00063  0.10873  0.117875  0.000439  0.998335  0.0
H  H21  1  0.36240957  0.47844027  0.93173497  1  0.15365  -6.8e-05  0.137641  0.106977  7.6e-05  0.996586  0.0
H  H22  1  0.46887784  0.32963911  0.69622226  1  0.225516  -0.000313  0.146402  0.129318  -5.1e-05  1.015671  0.0
H  H23  1  0.66183713  0.32068936  0.75522492  1  0.113485  -5.6e-05  0.119444  0.112096  -2.1e-05  0.982243  0.0
H  H24  1  0.73515786  0.41595944  0.86355495  1  0.135392  -0.000145  0.115004  0.111233  -2.3e-05  1.002026  0.0
H  H25  1  0.40961807  0.19259827  0.80330525  1  0.066057  1.3e-05  0.100187  0.100637  1.8e-05  1.005406  0.0
H  H26  1  0.36408245  0.04076320  0.82977296  1  0.053307  9e-06  0.101294  0.099728  7e-06  1.010039  0.0
H  H27  1  0.76648736  0.15522625  0.92354725  1  0.062995  -1.7e-05  0.101346  0.106418  -7e-06  1.021957  0.0
H  H28  1  0.81162936  0.30469110  0.89444067  1  0.085247  2.7e-05  0.096075  0.099891  2.1e-05  1.036922  0.0
H  H29  1  0.33985129  0.95429741  0.90074950  1  0.044381  2e-06  0.102309  0.101856  1e-06  1.003369  0.0
H  H30  1  0.30514100  0.79982980  0.92233755  1  0.090973  2.1e-05  0.104111  0.116266  2.2e-05  1.001824  0.0
H  H31  1  0.69235715  0.84200301  0.89594254  1  0.055103  -2.2e-05  0.101652  0.101897  -2.4e-05  1.025883  0.0
H  H32  1  0.72492972  0.99240305  0.87139105  1  0.063005  4e-06  0.104212  0.104781  3e-06  0.998762  0.0
H  H33  1  0.38754050  0.64538317  0.88449108  1  0.131946  8.3e-05  0.114339  0.116179  6.8e-05  1.020063  0.0
H  H34  1  0.46291618  0.73615351  0.99354799  1  0.113021  0.000299  0.120356  0.117601  0.000174  1.004396  0.0
H  H35  1  0.54941497  0.59079127  0.77882114  1  0.193319  0.000194  0.144849  0.127348  -6.4e-05  1.000122  0.0
H  H36  1  0.86739827  0.73436359  0.97786515  1  0.175524  0.000108  0.138382  0.117417  -3e-05  0.998762  0.0
H  H37  1  0.10522057  0.37542683  0.95339693  1  0.09579  2e-05  0.108578  0.117844  -0.000154  0.996682  0.0
H  H38  1  0.11615473  0.47826325  0.43177359  1  0.159627  0.000218  0.137316  0.105331  7.2e-05  0.997282  0.0
H  H39  1  0.86088145  0.32949552  0.19622063  1  0.198397  0.000337  0.14654  0.129885  8.4e-05  1.014955  0.0
H  H40  1  0.65899504  0.32055300  0.25525839  1  0.079905  3.3e-05  0.119892  0.112634  9e-06  0.981807  0.0
H  H41  1  0.68099331  0.41587094  0.36356669  1  0.125359  0.000334  0.114435  0.109495  0.000266  1.002881  0.0
H  H42  1  0.78325346  0.19242868  0.30358302  1  0.049567  -1.5e-05  0.100366  0.101051  -2e-05  1.004667  0.0
H  H43  1  0.67681037  0.04055484  0.32998797  1  0.055277  -5e-06  0.102173  0.10052  -8e-06  1.01063  0.0
H  H44  1  0.38878332  0.15512727  0.42332347  1  0.093936  1.7e-05  0.100943  0.105267  5e-06  1.023452  0.0
H  H45  1  0.49319943  0.30459108  0.39428841  1  0.051674  -9e-06  0.095633  0.099763  -2.1e-05  1.037837  0.0
H  H46  1  0.61457472  0.95402625  0.40072279  1  0.038373  -0.0  0.101606  0.100761  -2e-06  1.003857  0.0
H  H47  1  0.49493255  0.79967307  0.42238002  1  0.078272  3.2e-05  0.103913  0.116139  3.7e-05  1.002766  0.0
H  H48  1  0.14990818  0.84190947  0.39591596  1  0.057519  -2.3e-05  0.101199  0.101305  -2.3e-05  1.026491  0.0
H  H49  1  0.26763697  0.99229625  0.37132826  1  0.04216  1e-06  0.104714  0.105697  0.0  0.998359  0.0
H  H50  1  0.25811561  0.64521695  0.38441336  1  0.137862  -8.1e-05  0.114496  0.117176  -7.9e-05  1.019579  0.0
H  H51  1  0.27349586  0.73595320  0.49346802  1  0.136918  0.000272  0.120352  0.118093  0.000169  1.0044  0.0
H  H52  1  0.04147889  0.59062740  0.27874409  1  0.213917  0.000229  0.144852  0.127685  8e-05  1.001382  0.0
H  H53  1  0.86723152  0.73416672  0.47786636  1  0.157005  0.000113  0.138059  0.116511  -2.5e-05  0.997968  0.0
H  H54  1  0.27049846  0.37503560  0.45319932  1  0.112368  0.000435  0.108701  0.117866  0.000336  0.998264  0.0
H  H55  1  0.63758544  0.52155421  0.06826154  1  0.153624  7.3e-05  0.137652  0.106938  -8.6e-05  0.996549  0.0
H  H56  1  0.53112098  0.67035778  0.30377571  1  0.225399  0.000337  0.146405  0.129309  8.4e-05  1.015605  0.0
H  H57  1  0.33816456  0.67931154  0.24477510  1  0.113444  3.4e-05  0.119431  0.112042  8e-06  0.982176  0.0
H  H58  1  0.26484501  0.58404381  0.13644481  1  0.135417  0.000332  0.114991  0.111172  0.000283  1.002085  0.0
H  H59  1  0.59038200  0.80739940  0.19669244  1  0.066049  -1e-06  0.100183  0.100651  -4e-06  1.005421  0.0
H  H60  1  0.63591848  0.95923616  0.17022875  1  0.053321  1e-05  0.1013  0.09974  1.1e-05  1.009997  0.0
H  H61  1  0.23351462  0.84477871  0.07645709  1  0.063042  -1.3e-05  0.101385  0.106447  -5e-06  1.022043  0.0
H  H62  1  0.18837362  0.69531063  0.10556078  1  0.085282  4.6e-05  0.096075  0.099934  3.3e-05  1.036923  0.0
H  H63  1  0.66014871  0.04570358  0.09925393  1  0.044375  2e-06  0.102306  0.101848  1e-06  1.003327  0.0
H  H64  1  0.69486116  0.20017202  0.07766732  1  0.090988  3.3e-05  0.104092  0.116264  3.7e-05  1.001818  0.0
H  H65  1  0.30764437  0.15800275  0.10406209  1  0.055117  -2.2e-05  0.101648  0.101928  -2.3e-05  1.025857  0.0
H  H66  1  0.27506937  0.00759958  0.12861468  1  0.062978  4e-06  0.104217  0.104782  3e-06  0.998697  0.0
H  H67  1  0.61245814  0.35461858  0.11551151  1  0.131898  -7.3e-05  0.114371  0.116204  -7.3e-05  1.020078  0.0
H  H68  1  0.53708846  0.26384979  0.00645348  1  0.113242  0.000291  0.120388  0.117593  0.000172  1.004377  0.0
H  H69  1  0.45058178  0.40920494  0.22118110  1  0.193342  0.000231  0.144843  0.127355  8.5e-05  1.000069  0.0
H  H70  1  0.13260574  0.26564195  0.02213151  1  0.175513  0.000112  0.138397  0.117471  -1.5e-05  0.998662  0.0
H  H71  1  0.89478914  0.62457795  0.04660057  1  0.095589  0.000284  0.108633  0.117874  0.000219  0.996676  0.0
C  C72  1  0.96984019  0.55875737  0.61605364  1  0.952833  -0.000372  0.147731  0.146135  0.000268  3.981901  0.001
C  C73  1  0.09825374  0.63517446  0.73650677  1  1.007248  -0.00072  0.167673  0.090486  2.9e-05  3.876206  0.0
C  C74  1  0.30014941  0.65329245  0.67829793  1  0.301989  0.000646  -0.039399  -0.130936  0.000503  3.886383  0.001
C  C75  1  0.35713228  0.74275021  0.65634739  1  0.028189  -5e-06  -0.015174  0.083412  -3e-06  3.996283  0.0
C  C76  1  0.30515087  0.81670378  0.67197838  1  -0.047262  3.5e-05  -0.095762  -0.142157  2.8e-05  4.019786  0.0
C  C77  1  0.36528623  0.90271277  0.65660399  1  -0.033533  6e-06  -0.088569  -0.121022  1.6e-05  3.999078  0.0
C  C78  1  0.48006368  0.91858474  0.62613027  1  -0.038802  1.9e-05  -0.007537  0.058508  1e-05  3.996159  0.0
C  C79  1  0.52793664  0.84069415  0.60655804  1  -0.015773  3.8e-05  -0.087975  -0.120435  2.1e-05  3.965805  0.0
C  C80  1  0.46753001  0.75448154  0.62162127  1  -0.077042  0.000115  -0.094279  -0.127373  7.9e-05  3.983809  0.0
C  C81  1  0.54912872  0.01352373  0.61524299  1  -0.016566  -2.9e-05  -0.005916  0.06658  -2.1e-05  3.997404  0.0
C  C82  1  0.48823561  0.07161667  0.60268049  1  0.035656  2.8e-05  -0.086133  -0.117532  1.5e-05  3.976489  0.0
C  C83  1  0.55565521  0.15893479  0.59002611  1  -0.09701  -8.9e-05  -0.093155  -0.142129  -6.5e-05  3.983014  0.0
C  C84  1  0.68676663  0.19133002  0.58950521  1  -0.082229  6.8e-05  -0.013949  0.089893  5.4e-05  3.972001  0.0
C  C85  1  0.74825259  0.13514594  0.60349919  1  -0.042768  -2e-05  -0.10015  -0.148292  -6e-06  4.020146  0.0
C  C86  1  0.68090493  0.04850183  0.61662306  1  0.006781  -3.7e-05  -0.086711  -0.112509  -2.8e-05  3.981159  0.0
C  C87  1  0.75815284  0.28421967  0.57288303  1  0.243813  -0.000758  -0.042996  -0.150216  -0.000591  3.865509  -0.001
C  C88  1  0.97857876  0.36493902  0.65935726  1  0.961845  0.001468  0.163851  0.092635  0.000503  3.867435  0.001
C  C89  1  0.06362695  0.29165750  0.55593347  1  0.975663  0.00014  0.142259  0.131479  -0.000598  3.982486  -0.001
C  C90  1  0.65711908  0.52998611  0.64441496  1  1.536065  -0.001837  0.189848  0.547129  -0.000491  4.235123  -0.004
C  C91  1  0.57434495  0.51544283  0.57109275  1  -0.012034  0.005467  -0.009504  -0.037743  0.004028  3.958092  0.005
C  C92  1  0.44445432  0.44453151  0.54537727  1  -0.03789  -0.00348  -0.003718  -0.026594  -0.0032  3.93996  -0.004
C  C93  1  0.62848688  0.57031437  0.52571216  1  -0.023325  0.005904  -0.079884  -0.127772  0.003971  3.951072  0.004
C  C94  1  0.37725430  0.38979456  0.59546490  1  1.579711  0.00108  0.20319  0.575  -0.000446  4.234697  0.003
C  C95  1  0.41136352  0.44141043  0.88393004  1  0.971174  0.000478  0.148114  0.144982  -0.000305  3.982509  0.0
C  C96  1  0.46332132  0.36498660  0.76348127  1  0.971384  0.000767  0.168202  0.091588  -0.000221  3.87432  0.0
C  C97  1  0.64717440  0.34682639  0.82165629  1  0.250373  -0.000667  -0.039563  -0.132952  -0.000547  3.887766  -0.001
C  C98  1  0.61475776  0.25737812  0.84359217  1  -0.012546  4.1e-05  -0.015879  0.082345  1.9e-05  3.99555  0.0
C  C99  1  0.48884562  0.18348856  0.82786448  1  -0.077657  3e-05  -0.095561  -0.141267  3.8e-05  4.019484  0.0
C  C100  1  0.46289952  0.09748488  0.84326657  1  -0.045137  3.5e-05  -0.087951  -0.120154  3.3e-05  3.99841  0.0
C  C101  1  0.56171953  0.08154252  0.87384867  1  0.003598  1e-06  -0.007839  0.057823  -1e-06  3.99675  0.0
C  C102  1  0.68744686  0.15942066  0.89356048  1  -0.038182  4.6e-05  -0.088338  -0.122447  2.9e-05  3.964563  0.0
C  C103  1  0.71333374  0.24562211  0.87845663  1  -0.068917  6e-06  -0.094091  -0.125739  -1e-05  3.981303  0.0
C  C104  1  0.53586156  0.98657934  0.88471424  1  0.018307  5.1e-05  -0.006549  0.064931  3e-05  3.999529  0.0
C  C105  1  0.41694009  0.92853993  0.89727747  1  -0.012921  -1.3e-05  -0.086094  -0.117621  -9e-06  3.976788  0.0
C  C106  1  0.39705575  0.84116726  0.90989147  1  -0.030148  9.2e-05  -0.093389  -0.142053  6.3e-05  3.982498  0.0
C  C107  1  0.49578281  0.80874786  0.91044885  1  -0.121021  -8.5e-05  -0.01395  0.089329  -7e-05  3.972219  0.0
C  C108  1  0.61339436  0.86490744  0.89644338  1  0.016936  2.5e-05  -0.10009  -0.149456  8e-06  4.019364  0.0
C  C109  1  0.63266215  0.95156820  0.88332887  1  -0.079458  4e-05  -0.086361  -0.109919  3e-05  3.980501  0.0
C  C110  1  0.47435260  0.71593248  0.92718971  1  0.274568  0.00076  -0.043513  -0.149329  0.000568  3.865625  0.001
C  C111  1  0.61398947  0.63524532  0.84069682  1  0.973046  -0.001502  0.164999  0.095123  -0.000673  3.86671  -0.001
C  C112  1  0.77243279  0.70853408  0.94407331  1  0.944559  -0.000136  0.141898  0.1286  0.000453  3.983049  0.001
C  C113  1  0.12735935  0.47032122  0.85568205  1  1.544221  0.002084  0.190417  0.547487  0.000321  4.234141  0.004
C  C114  1  0.05912753  0.48478975  0.92902889  1  0.011048  -0.003664  -0.009413  -0.037235  -0.003037  3.956394  -0.004
C  C115  1  0.99975505  0.55547498  0.95464212  1  -0.00784  0.011052  -0.00353  -0.027072  0.007831  3.942884  0.008
C  C116  1  0.05857894  0.42990109  0.97438306  1  -0.062374  0.002632  -0.080004  -0.128084  0.001554  3.950024  0.002
C  C117  1  0.98744079  0.61021403  0.90453079  1  1.587272  -0.001082  0.203259  0.575268  7.9e-05  4.23599  -0.003
C  C118  1  0.03016330  0.44124192  0.38394579  1  0.952834  -0.000374  0.147753  0.146105  0.000251  3.981863  0.001
C  C119  1  0.90175408  0.36482653  0.26349666  1  1.007273  -0.000713  0.167701  0.090519  4e-05  3.876359  0.0
C  C120  1  0.69984869  0.34670126  0.32169942  1  0.301689  0.000938  -0.039373  -0.130928  0.000723  3.886333  0.001
C  C121  1  0.64286442  0.25724591  0.34365142  1  0.028525  1.4e-05  -0.015142  0.083539  1.3e-05  3.996261  0.0
C  C122  1  0.69484702  0.18329646  0.32802647  1  -0.047377  3.4e-05  -0.095757  -0.142217  3e-06  4.019968  0.0
C  C123  1  0.63471374  0.09728815  0.34339717  1  -0.033461  -3.4e-05  -0.088588  -0.120966  -3.6e-05  3.999139  0.0
C  C124  1  0.51993659  0.08140983  0.37386966  1  -0.03911  6e-05  -0.007548  0.058486  4e-05  3.99611  0.0
C  C125  1  0.47205796  0.15930124  0.39344275  1  -0.015816  -2.7e-05  -0.088042  -0.120426  -1.7e-05  3.965464  0.0
C  C126  1  0.53246400  0.24551617  0.37837756  1  -0.077172  4e-06  -0.094317  -0.127536  1.2e-05  3.983725  0.0
C  C127  1  0.45086927  0.98647322  0.38475725  1  -0.016463  2.7e-05  -0.005903  0.066561  1.7e-05  3.99736  0.0
C  C128  1  0.51176118  0.92837963  0.39732459  1  0.035805  1e-05  -0.086096  -0.117351  5e-06  3.976731  0.0
C  C129  1  0.44434783  0.84106706  0.40997990  1  -0.096891  9e-05  -0.093108  -0.142103  7.1e-05  3.983045  0.0
C  C130  1  0.31323300  0.80867023  0.41050021  1  -0.082861  -3e-05  -0.013987  0.089896  -2.4e-05  3.971958  0.0
C  C131  1  0.25174472  0.86484619  0.39649815  1  -0.042646  1e-05  -0.100104  -0.148176  -1e-06  4.019968  0.0
C  C132  1  0.31909166  0.95149583  0.38337406  1  0.006967  6.3e-05  -0.086715  -0.112592  4.2e-05  3.980954  0.0
C  C133  1  0.24184504  0.71578055  0.42712125  1  0.242667  0.000677  -0.043096  -0.150367  0.000482  3.865487  0.001
C  C134  1  0.02141830  0.63505956  0.34064472  1  0.961901  -0.001314  0.163789  0.092615  -0.000574  3.867453  0.0
C  C135  1  0.93637038  0.70834336  0.44406540  1  0.975634  -0.000122  0.14235  0.13156  0.000469  3.982531  0.001
C  C136  1  0.34287779  0.47001383  0.35557906  1  1.536278  -0.001642  0.189947  0.547314  -0.000293  4.234966  -0.004
C  C137  1  0.42565483  0.48456119  0.42890617  1  -0.012049  0.011586  -0.009482  -0.037761  0.008082  3.957977  0.008
C  C138  1  0.55554545  0.55547250  0.45462107  1  -0.037766  0.007071  -0.003784  -0.026714  0.005081  3.940046  0.006
C  C139  1  0.37151465  0.42968968  0.47428790  1  -0.023602  -0.003023  -0.079847  -0.127778  -0.001916  3.951071  -0.002
C  C140  1  0.62274950  0.61020708  0.40453370  1  1.579892  -0.000946  0.203226  0.575101  0.000189  4.234819  -0.003
C  C141  1  0.58863269  0.55858646  0.11606793  1  0.971151  -0.000472  0.148155  0.14524  0.000163  3.982339  0.0
C  C142  1  0.53667781  0.63501265  0.23651644  1  0.97157  -0.000756  0.168191  0.091617  4.8e-05  3.874328  0.0
C  C143  1  0.35282869  0.65317209  0.17834226  1  0.250458  0.000963  -0.039526  -0.132797  0.000725  3.887693  0.001
C  C144  1  0.38524338  0.74262517  0.15640874  1  -0.01251  3.8e-05  -0.015911  0.082325  2.4e-05  3.995632  0.0
C  C145  1  0.51115520  0.81651232  0.17213497  1  -0.077689  9.6e-05  -0.095593  -0.141373  7e-05  4.01966  0.0
C  C146  1  0.53709911  0.90251686  0.15673545  1  -0.045545  1.1e-05  -0.087909  -0.120069  2e-05  3.998395  0.0
C  C147  1  0.43827872  0.91845844  0.12615362  1  0.004025  6.6e-05  -0.007835  0.05784  4e-05  3.996678  0.0
C  C148  1  0.31255133  0.84058191  0.10644298  1  -0.038358  5.6e-05  -0.088392  -0.122467  3.4e-05  3.964634  0.0
C  C149  1  0.28666576  0.75437961  0.12154482  1  -0.068963  0.000144  -0.094087  -0.125855  0.000103  3.981473  0.0
C  C150  1  0.46414190  0.01342162  0.11528806  1  0.018581  3.7e-05  -0.006516  0.064898  2.2e-05  3.999557  0.0
C  C151  1  0.58305899  0.07146095  0.10272198  1  -0.012881  -8e-06  -0.086065  -0.117553  -6e-06  3.976817  0.0
C  C152  1  0.60294591  0.15883531  0.09011198  1  -0.029662  9e-05  -0.093336  -0.142063  7.1e-05  3.982406  0.0
C  C153  1  0.50422053  0.19125633  0.08955634  1  -0.121613  -5.2e-05  -0.01395  0.08947  -3.9e-05  3.972117  0.0
C  C154  1  0.38660695  0.13509271  0.10355805  1  0.016628  1e-05  -0.100113  -0.149636  0.0  4.019492  0.0
C  C155  1  0.36733997  0.04843355  0.11667371  1  -0.079297  9e-05  -0.086391  -0.109877  6.2e-05  3.980522  0.0
C  C156  1  0.52565126  0.28406927  0.07281288  1  0.274404  0.000662  -0.04361  -0.149389  0.000476  3.865679  0.001
C  C157  1  0.38600677  0.36475161  0.15930285  1  0.973116  -0.001345  0.16507  0.095256  -0.00058  3.866621  0.0
C  C158  1  0.22757216  0.29146986  0.05592276  1  0.944613  -0.000122  0.14187  0.128636  0.00048  3.983111  0.001
C  C159  1  0.87264692  0.52968188  0.14431202  1  1.543786  -0.001548  0.190446  0.547466  -0.000234  4.234068  -0.004
C  C160  1  0.94087356  0.51521343  0.07096802  1  0.0109  0.009851  -0.009388  -0.03721  0.007002  3.956603  0.007
C  C161  1  0.00024652  0.44452741  0.04535506  1  -0.007761  0.014865  -0.003561  -0.027171  0.0104  3.94301  0.011
C  C162  1  0.94142645  0.57010372  0.02561558  1  -0.062026  0.003421  -0.080111  -0.128174  0.002353  3.950103  0.002
C  C163  1  0.01256241  0.38978989  0.09546414  1  1.587214  -0.001002  0.203395  0.57554  0.000154  4.236072  -0.003
N  N164  1  0.97473650  0.59808784  0.70264509  1  -1.186885  0.074611  -0.376304  -0.337354  0.050906  3.637748  0.065
N  N165  1  0.08306782  0.56938463  0.59531754  1  -0.653299  0.007709  -0.214504  -0.252806  0.005079  3.095443  0.006
N  N166  1  0.16287622  0.61801457  0.67254020  1  -0.864205  0.002221  -0.129874  0.178386  0.001436  3.748044  0.002
N  N167  1  0.08741515  0.35387418  0.64339237  1  -1.192266  -0.066623  -0.369816  -0.328601  -0.048113  3.606643  -0.058
N  N168  1  0.94692314  0.26390579  0.51808245  1  -0.661033  -0.007578  -0.222453  -0.258654  -0.005266  3.081442  -0.006
N  N169  1  0.89492424  0.31213732  0.58467482  1  -0.839747  -0.001778  -0.13293  0.173818  -0.001275  3.744309  -0.001
N  N170  1  0.37687598  0.40206261  0.79732837  1  -1.187181  -0.0746  -0.377025  -0.33877  -0.053719  3.638147  -0.065
N  N171  1  0.51400140  0.43078325  0.90467352  1  -0.674143  -0.007661  -0.213968  -0.252518  -0.005301  3.095913  -0.006
N  N172  1  0.54517692  0.38215803  0.82745628  1  -0.825726  -0.00222  -0.130346  0.178858  -0.001546  3.746307  -0.002
N  N173  1  0.73391078  0.64634895  0.85662167  1  -1.179028  0.066759  -0.370792  -0.329696  0.04567  3.609333  0.058
N  N174  1  0.68347019  0.73622243  0.98196683  1  -0.671248  0.0076  -0.222113  -0.256099  0.00501  3.079252  0.006
N  N175  1  0.58318708  0.68797582  0.91540807  1  -0.823438  0.001777  -0.133124  0.173024  0.001192  3.74536  0.001
N  N176  1  0.02526709  0.40190989  0.29735489  1  -1.187035  0.074527  -0.376265  -0.337222  0.050842  3.63768  0.065
N  N177  1  0.91693665  0.43061313  0.40468357  1  -0.653233  0.007638  -0.214478  -0.252687  0.005026  3.095382  0.006
N  N178  1  0.83712658  0.38198158  0.32745976  1  -0.864167  0.002188  -0.129855  0.178309  0.001403  3.74797  0.002
N  N179  1  0.91258345  0.64612748  0.35660681  1  -1.192404  0.066642  -0.369801  -0.328618  0.045612  3.606666  0.058
N  N180  1  0.05307120  0.73609430  0.48191727  1  -0.66105  0.007587  -0.222524  -0.258637  0.005009  3.081613  0.006
N  N181  1  0.10507322  0.68786205  0.41532745  1  -0.839719  0.001701  -0.132929  0.173749  0.001131  3.744247  0.001
N  N182  1  0.62312078  0.59793188  0.20266871  1  -1.187102  0.074583  -0.377104  -0.338991  0.050895  3.638052  0.065
N  N183  1  0.48599734  0.56921522  0.09532447  1  -0.674258  0.007622  -0.213954  -0.252637  0.005003  3.096  0.006
N  N184  1  0.45482388  0.61784284  0.17254259  1  -0.825817  0.002183  -0.130377  0.178903  0.001409  3.746607  0.002
N  N185  1  0.26608871  0.35365102  0.14337350  1  -1.17909  0.066736  -0.370715  -0.329685  0.045649  3.609438  0.058
N  N186  1  0.31653700  0.26378076  0.01803066  1  -0.671348  0.007604  -0.222128  -0.256148  0.005017  3.079336  0.006
N  N187  1  0.41681550  0.31202510  0.08459309  1  -0.82336  0.001698  -0.133148  0.172924  0.001131  3.74533  0.001
O  O188  1  0.75008393  0.62323699  0.68832301  1  -1.103512  0.125374  -0.329372  -0.524641  0.08164  2.241752  0.113
O  O189  1  0.63613676  0.45376735  0.66020155  1  -1.169112  0.000806  -0.321836  -0.566555  0.000266  2.185481  0.002
O  O190  1  0.36109640  0.45639741  0.66742640  1  -1.118301  -0.117553  -0.332986  -0.559241  -0.080815  2.346967  -0.106
O  O191  1  0.33493740  0.29135887  0.56578629  1  -1.154864  -0.001579  -0.324406  -0.552339  -0.00086  2.093356  -0.002
O  O192  1  0.12723059  0.37709901  0.81180886  1  -1.09955  -0.124824  -0.329937  -0.525543  -0.085804  2.242683  -0.112
O  O193  1  0.18243599  0.54652746  0.83987707  1  -1.175272  1.7e-05  -0.321839  -0.566146  0.000131  2.18445  -0.001
O  O194  1  0.90490098  0.54364266  0.83247992  1  -1.122551  0.118759  -0.333042  -0.559485  0.077434  2.346302  0.107
O  O195  1  0.04350297  0.70865180  0.93423717  1  -1.164631  0.002315  -0.324386  -0.551881  0.001167  2.093212  0.003
O  O196  1  0.24992078  0.37676298  0.31167215  1  -1.103427  0.125702  -0.32932  -0.524637  0.081837  2.241911  0.113
O  O197  1  0.36386141  0.54623346  0.33979562  1  -1.169343  0.000378  -0.321906  -0.56664  -8e-05  2.185402  0.001
O  O198  1  0.63890868  0.54360506  0.33257363  1  -1.118348  0.1178  -0.333036  -0.55932  0.076738  2.347052  0.107
O  O199  1  0.66506381  0.70864107  0.43420773  1  -1.154968  0.002394  -0.324456  -0.552454  0.001217  2.093376  0.003
O  O200  1  0.87277149  0.62290267  0.18819088  1  -1.099272  0.124911  -0.329982  -0.525552  0.081349  2.242659  0.112
O  O201  1  0.81756904  0.45347491  0.16011897  1  -1.175077  0.00092  -0.32192  -0.566236  0.000288  2.184243  0.002
O  O202  1  0.09509739  0.45635333  0.16751434  1  -1.122346  0.118849  -0.332981  -0.559456  0.077491  2.346499  0.108
O  O203  1  0.95649287  0.29135129  0.06575633  1  -1.164509  0.003192  -0.324443  -0.552005  0.001755  2.093085  0.003
