# generated using pymatgen
data_CuH18C15N6Cl
_symmetry_space_group_name_H-M   'P 1'
_cell_length_a   9.33771863
_cell_length_b   9.33767778
_cell_length_c   9.33772644
_cell_angle_alpha   78.20879423
_cell_angle_beta   78.20903575
_cell_angle_gamma   78.20888493
_symmetry_Int_Tables_number   1
_chemical_formula_structural   CuH18C15N6Cl
_chemical_formula_sum   'Cu2 H36 C30 N12 Cl2'
_cell_volume   768.87118194
_cell_formula_units_Z   2
loop_
 _symmetry_equiv_pos_site_id
 _symmetry_equiv_pos_as_xyz
  1  'x, y, z'
loop_
 _atom_site_type_symbol
 _atom_site_label
 _atom_site_symmetry_multiplicity
 _atom_site_fract_x
 _atom_site_fract_y
 _atom_site_fract_z
 _atom_site_occupancy
 _atom_site_pbe_bader_spin_density
 _atom_site_pbe_cm5_charge
 _atom_site_pbe_ddec_charge
 _atom_site_pbe_ddec_spin_density
 _atom_site_pbe_ddec_sum_bond_order
 _atom_site_pbe_magmom
Cu  Cu0  1  0.36985169  0.36985526  0.36985183  1  0  0.495392  0.370117  0  2.315029  0
Cu  Cu1  1  0.63014664  0.63014562  0.63014484  1  0  0.495395  0.370165  0  2.314949  0
H  H2  1  0.25429686  0.25131361  0.94588978  1  0  0.106088  0.115404  0  1.065393  0
H  H3  1  0.94588778  0.25429700  0.25131952  1  0  0.106092  0.115412  0  1.065407  0
H  H4  1  0.25132052  0.94589606  0.25428849  1  0  0.106069  0.115415  0  1.065347  0
H  H5  1  0.74570331  0.74868282  0.05411170  1  0  0.106103  0.115431  0  1.065384  0
H  H6  1  0.05411183  0.74570277  0.74868247  1  0  0.106094  0.115406  0  1.065375  0
H  H7  1  0.74868418  0.05410593  0.74571093  1  0  0.106079  0.115423  0  1.065344  0
H  H8  1  0.45252463  0.23788627  0.67702818  1  0  0.11056  0.102707  0  1.053497  0
H  H9  1  0.67702713  0.45252406  0.23788478  1  0  0.110577  0.102706  0  1.05349  0
H  H10  1  0.23788736  0.67703238  0.45251909  1  0  0.11059  0.102774  0  1.053239  0
H  H11  1  0.54747788  0.76211572  0.32297383  1  0  0.110602  0.102752  0  1.05347  0
H  H12  1  0.32297467  0.54747571  0.76211569  1  0  0.110582  0.102724  0  1.053485  0
H  H13  1  0.76211625  0.32296961  0.54747949  1  0  0.11057  0.102728  0  1.053319  0
H  H14  1  0.90097777  0.48817141  0.87990985  1  0  0.100344  0.128861  0  1.023507  0
H  H15  1  0.87991193  0.90097821  0.48817353  1  0  0.100369  0.128873  0  1.023453  0
H  H16  1  0.48817814  0.87991146  0.90097493  1  0  0.100358  0.128807  0  1.023519  0
H  H17  1  0.09902002  0.51182614  0.12008761  1  0  0.100372  0.128878  0  1.023465  0
H  H18  1  0.12008767  0.09902156  0.51182632  1  0  0.100362  0.128855  0  1.02347  0
H  H19  1  0.51182585  0.12008831  0.09902403  1  0  0.100361  0.128861  0  1.023429  0
H  H20  1  0.99338288  0.35367052  0.01284217  1  0  0.10601  0.121807  0  1.026591  0
H  H21  1  0.01284345  0.99338308  0.35367421  1  0  0.105987  0.121787  0  1.026567  0
H  H22  1  0.35367946  0.01284461  0.99337654  1  0  0.106  0.121792  0  1.026534  0
H  H23  1  0.00661401  0.64632591  0.98715678  1  0  0.106017  0.121857  0  1.026611  0
H  H24  1  0.98715635  0.00661558  0.64632583  1  0  0.106025  0.121863  0  1.026602  0
H  H25  1  0.64632433  0.98715627  0.00662116  1  0  0.105987  0.121769  0  1.026589  0
H  H26  1  0.89921189  0.29526129  0.89247326  1  0  0.10171  0.117079  0  1.012577  0
H  H27  1  0.89247804  0.89920813  0.29526673  1  0  0.101715  0.117107  0  1.012605  0
H  H28  1  0.29527139  0.89248155  0.89920451  1  0  0.101683  0.117056  0  1.012659  0
H  H29  1  0.10078956  0.70473404  0.10752069  1  0  0.101693  0.117071  0  1.012626  0
H  H30  1  0.10751919  0.10079275  0.70473338  1  0  0.101687  0.117081  0  1.012656  0
H  H31  1  0.70473222  0.10752044  0.10079300  1  0  0.101667  0.11703  0  1.012665  0
H  H32  1  0.89946555  0.52804678  0.64766325  1  0  0.090486  0.097103  0  1.097155  0
H  H33  1  0.64766237  0.89946316  0.52805473  1  0  0.090481  0.097092  0  1.097107  0
H  H34  1  0.52805491  0.64766248  0.89946153  1  0  0.090469  0.097074  0  1.09713  0
H  H35  1  0.10053681  0.47194966  0.35233458  1  0  0.090475  0.097108  0  1.097123  0
H  H36  1  0.35233248  0.10053883  0.47195099  1  0  0.090474  0.097082  0  1.097091  0
H  H37  1  0.47194379  0.35233617  0.10053552  1  0  0.090487  0.097099  0  1.097098  0
C  C38  1  0.99864472  0.48459498  0.57426655  1  0  -0.097332  -0.169536  0  4.019026  0
C  C39  1  0.57426492  0.99864412  0.48459966  1  0  -0.097338  -0.169569  0  4.018998  0
C  C40  1  0.48459814  0.57426661  0.99863978  1  0  -0.097328  -0.169508  0  4.018967  0
C  C41  1  0.00135854  0.51540257  0.42573408  1  0  -0.097339  -0.169603  0  4.019003  0
C  C42  1  0.42573393  0.00136009  0.51540372  1  0  -0.097321  -0.169493  0  4.018942  0
C  C43  1  0.51539909  0.42573427  0.00135712  1  0  -0.09736  -0.169628  0  4.019029  0
C  C44  1  0.11989804  0.40159348  0.64383055  1  0  0.200907  0.254737  0  4.011313  0
C  C45  1  0.64383053  0.11989818  0.40159783  1  0  0.200972  0.25475  0  4.011267  0
C  C46  1  0.40159667  0.64383295  0.11989331  1  0  0.200928  0.254713  0  4.011242  0
C  C47  1  0.88010523  0.59840407  0.35617008  1  0  0.200913  0.254704  0  4.011276  0
C  C48  1  0.35616961  0.88010492  0.59840444  1  0  0.200922  0.254686  0  4.011266  0
C  C49  1  0.59840366  0.35616904  0.88010487  1  0  0.200944  0.2548  0  4.011172  0
C  C50  1  0.23986392  0.28829255  0.83071369  1  0  -0.005219  -0.117711  0  3.927209  0
C  C51  1  0.83071127  0.23986358  0.28829340  1  0  -0.00521  -0.1177  0  3.927207  0
C  C52  1  0.28829832  0.83071411  0.23986003  1  0  -0.005192  -0.117641  0  3.92725  0
C  C53  1  0.76013768  0.71170833  0.16928981  1  0  -0.005255  -0.11778  0  3.927334  0
C  C54  1  0.16928924  0.76013730  0.71171032  1  0  -0.005226  -0.117662  0  3.927146  0
C  C55  1  0.71170729  0.16928899  0.76013791  1  0  -0.005178  -0.117675  0  3.927318  0
C  C56  1  0.33553658  0.28449013  0.69733039  1  0  -0.008882  -0.028712  0  4.024852  0
C  C57  1  0.69733104  0.33553523  0.28448991  1  0  -0.0089  -0.028707  0  4.024845  0
C  C58  1  0.28449645  0.69733465  0.33552695  1  0  -0.008966  -0.028888  0  4.025014  0
C  C59  1  0.66446793  0.71551297  0.30266778  1  0  -0.008897  -0.028712  0  4.024928  0
C  C60  1  0.30266838  0.66446565  0.71551082  1  0  -0.008922  -0.028772  0  4.024907  0
C  C61  1  0.71550973  0.30266512  0.66447156  1  0  -0.008954  -0.028774  0  4.024943  0
C  C62  1  0.96609381  0.37620163  0.90114607  1  0  -0.130377  -0.266244  0  3.85506  0
C  C63  1  0.90114839  0.96609340  0.37620439  1  0  -0.130398  -0.266277  0  3.854985  0
C  C64  1  0.37620832  0.90114743  0.96609228  1  0  -0.130354  -0.266096  0  3.855  0
C  C65  1  0.03390617  0.62379592  0.09885095  1  0  -0.130405  -0.266318  0  3.855068  0
C  C66  1  0.09884994  0.03390748  0.62379657  1  0  -0.130411  -0.266322  0  3.855102  0
C  C67  1  0.62379548  0.09885344  0.03390541  1  0  -0.130326  -0.266121  0  3.854994  0
N  N68  1  0.26160520  0.35403923  0.58178419  1  0  -0.373928  -0.319931  0  3.588963  0
N  N69  1  0.58178283  0.26160439  0.35404058  1  0  -0.374002  -0.319995  0  3.588942  0
N  N70  1  0.35404078  0.58178725  0.26159941  1  0  -0.373881  -0.319794  0  3.588867  0
N  N71  1  0.73839788  0.64595943  0.41821518  1  0  -0.373972  -0.319976  0  3.58894  0
N  N72  1  0.41821531  0.73839759  0.64595804  1  0  -0.373956  -0.319963  0  3.588941  0
N  N73  1  0.64595955  0.41821474  0.73839770  1  0  -0.37392  -0.319961  0  3.588873  0
N  N74  1  0.10469268  0.36198917  0.79595521  1  0  -0.25022  0.038063  0  3.743161  0
N  N75  1  0.79595529  0.10469077  0.36199017  1  0  -0.250222  0.038071  0  3.743174  0
N  N76  1  0.36199330  0.79595701  0.10469000  1  0  -0.250243  0.037911  0  3.743327  0
N  N77  1  0.89530912  0.63801060  0.20404527  1  0  -0.25019  0.038138  0  3.743172  0
N  N78  1  0.20404432  0.89530900  0.63800968  1  0  -0.25018  0.0381  0  3.743101  0
N  N79  1  0.63800703  0.20404498  0.89530818  1  0  -0.250241  0.03798  0  3.743277  0
Cl  Cl80  1  0.23507565  0.23507915  0.23507722  1  0  -0.345773  -0.590871  0  1.062654  0
Cl  Cl81  1  0.76492324  0.76491839  0.76492215  1  0  -0.345782  -0.590869  0  1.062582  0
