# generated using pymatgen
data_CuH11C17(N2O3)2
_symmetry_space_group_name_H-M   'P 1'
_cell_length_a   10.01195043
_cell_length_b   11.52503794
_cell_length_c   16.79474675
_cell_angle_alpha   89.99815005
_cell_angle_beta   89.99983048
_cell_angle_gamma   101.00324225
_symmetry_Int_Tables_number   1
_chemical_formula_structural   CuH11C17(N2O3)2
_chemical_formula_sum   'Cu4 H44 C68 N16 O24'
_cell_volume   1902.28819316
_cell_formula_units_Z   4
loop_
 _symmetry_equiv_pos_site_id
 _symmetry_equiv_pos_as_xyz
  1  'x, y, z'
loop_
 _atom_site_type_symbol
 _atom_site_label
 _atom_site_symmetry_multiplicity
 _atom_site_fract_x
 _atom_site_fract_y
 _atom_site_fract_z
 _atom_site_occupancy
 _atom_site_pbe_bader_charge
 _atom_site_pbe_bader_spin_density
 _atom_site_pbe_cm5_charge
 _atom_site_pbe_ddec_charge
 _atom_site_pbe_ddec_spin_density
 _atom_site_pbe_ddec_sum_bond_order
 _atom_site_pbe_magmom
Cu  Cu0  1  0.17029315  0.22604254  0.78363084  1  1.067879  -0.564058  0.731068  0.765338  -0.752325  2.236804  -0.564
Cu  Cu1  1  0.32973181  0.27394796  0.28362647  1  1.068073  -0.564077  0.731129  0.765475  -0.752363  2.23655  -0.564
Cu  Cu2  1  0.82972438  0.77395696  0.21636295  1  1.067903  0.564077  0.731152  0.765549  0.752345  2.236661  0.564
Cu  Cu3  1  0.67026349  0.72605460  0.71636017  1  1.068306  0.564088  0.731056  0.765414  0.752369  2.236898  0.564
H  H4  1  0.24239998  0.09756380  0.92196450  1  0.156618  -0.001579  0.126431  0.111508  -0.000714  0.995959  -0.001
H  H5  1  0.25764498  0.40244246  0.42195432  1  0.138512  -0.001596  0.126436  0.11164  -0.000713  0.995776  -0.001
H  H6  1  0.75764037  0.90244328  0.07803107  1  0.157168  0.00158  0.126364  0.111393  0.000715  0.995903  0.001
H  H7  1  0.74233405  0.59756305  0.57804364  1  0.157621  0.001576  0.126475  0.111598  0.000713  0.995825  0.001
H  H8  1  0.21107283  0.02408059  0.68091558  1  0.149422  -0.001606  0.125104  0.099413  -0.000743  1.014162  -0.001
H  H9  1  0.28895824  0.47590166  0.18089534  1  0.149499  -0.001611  0.125117  0.099623  -0.000745  1.014126  -0.001
H  H10  1  0.78890957  0.97588936  0.31908892  1  0.149482  0.001606  0.125133  0.099485  0.000743  1.014187  0.001
H  H11  1  0.71105235  0.52411039  0.81910142  1  0.149217  0.00161  0.125076  0.099571  0.000745  1.014109  0.001
H  H12  1  0.25961474  0.82340267  0.69936225  1  0.109576  -0.001006  0.106966  0.101013  -0.000527  1.045852  -0.001
H  H13  1  0.24037990  0.67656620  0.19930391  1  0.110745  -0.001004  0.106865  0.100846  -0.000527  1.045984  -0.001
H  H14  1  0.74037775  0.17657598  0.30065416  1  0.111844  0.001004  0.106931  0.101055  0.000527  1.045564  0.001
H  H15  1  0.75960432  0.32344011  0.80068571  1  0.110855  0.001004  0.106818  0.100875  0.000527  1.04597  0.001
H  H16  1  0.31058263  0.75718002  0.83783823  1  0.164259  -0.0001  0.112145  0.120294  -3.4e-05  1.034014  0.0
H  H17  1  0.18937124  0.74278883  0.33776751  1  0.165123  -0.0001  0.112201  0.120296  -3.4e-05  1.034629  0.0
H  H18  1  0.68941450  0.24281364  0.16217699  1  0.164488  0.0001  0.112152  0.120214  3.4e-05  1.034254  0.0
H  H19  1  0.81059827  0.25721864  0.66222211  1  0.164821  0.0001  0.112243  0.120438  3.4e-05  1.034562  0.0
H  H20  1  0.46339123  0.80470601  0.22232872  1  0.164533  -0.000105  0.116197  0.130118  -3.3e-05  1.022539  0.0
H  H21  1  0.03662686  0.69526395  0.72228931  1  0.165006  -0.000105  0.116307  0.130316  -3.3e-05  1.022358  0.0
H  H22  1  0.53662204  0.19528824  0.77768829  1  0.164899  0.000105  0.116251  0.130245  3.3e-05  1.022412  0.0
H  H23  1  0.96336481  0.30473602  0.27772234  1  0.164923  0.000105  0.11635  0.130408  3.3e-05  1.02233  0.0
H  H24  1  0.48196324  0.89186547  0.36022087  1  0.1038  -0.001189  0.12154  0.128574  -0.000629  0.959866  -0.001
H  H25  1  0.01798604  0.60807126  0.86017982  1  0.104713  -0.001188  0.121571  0.128678  -0.000629  0.959533  -0.001
H  H26  1  0.51801059  0.10812682  0.63979733  1  0.104052  0.00119  0.12162  0.128678  0.000629  0.959603  0.001
H  H27  1  0.98201825  0.39191072  0.13982945  1  0.104693  0.001188  0.121533  0.128606  0.000629  0.959628  0.001
H  H28  1  0.41612930  0.08942436  0.38177311  1  0.11725  -0.00183  0.127396  0.102247  -0.000851  0.977938  -0.002
H  H29  1  0.08384032  0.41051161  0.88173247  1  0.117282  -0.00183  0.127208  0.10184  -0.000851  0.978408  -0.002
H  H30  1  0.58384595  0.91056969  0.61823735  1  0.11729  0.00183  0.127407  0.102225  0.000851  0.977955  0.002
H  H31  1  0.91617797  0.58947456  0.11826132  1  0.117063  0.001831  0.12729  0.102016  0.000851  0.978283  0.002
H  H32  1  0.32280889  0.11917326  0.14394515  1  0.147843  -0.001798  0.128683  0.109616  -0.000817  0.987226  -0.001
H  H33  1  0.17720708  0.38079337  0.64391587  1  0.146983  -0.001799  0.128842  0.109716  -0.000816  0.987209  -0.001
H  H34  1  0.67725590  0.88083160  0.85604923  1  0.147318  0.001799  0.128804  0.109756  0.000817  0.987327  0.001
H  H35  1  0.82277847  0.61919783  0.35607375  1  0.147218  0.001799  0.128792  0.109695  0.000817  0.987231  0.001
H  H36  1  0.89057721  0.79094153  0.47953892  1  0.068337  -0.000182  0.102523  0.110407  2.3e-05  1.000428  0.0
H  H37  1  0.60941074  0.70906920  0.97952378  1  0.068254  -0.000182  0.102452  0.110394  2.3e-05  1.000253  0.0
H  H38  1  0.10938770  0.20907578  0.52045546  1  0.068191  0.000183  0.102417  0.110343  -2.2e-05  1.000401  0.0
H  H39  1  0.39063349  0.29092094  0.02046405  1  0.068196  0.000182  0.102438  0.110338  -2.3e-05  1.000301  0.0
H  H40  1  0.90861151  0.21362584  0.86533161  1  0.591023  0.000103  0.293451  0.370188  5e-05  0.938528  0.0
H  H41  1  0.59141685  0.28637284  0.36533441  1  0.591196  0.000103  0.29344  0.370298  5e-05  0.938726  0.0
H  H42  1  0.09142032  0.78638316  0.13466992  1  0.591279  -0.000103  0.29347  0.370312  -5e-05  0.938572  0.0
H  H43  1  0.40855414  0.71361595  0.63467009  1  0.591112  -0.000103  0.293511  0.370425  -5.1e-05  0.93867  0.0
H  H44  1  0.91791557  0.12916978  0.79223699  1  0.640213  1.4e-05  0.27234  0.36382  7.5e-05  0.992421  0.0
H  H45  1  0.58211418  0.37082901  0.29223749  1  0.640242  1.4e-05  0.272339  0.363909  7.5e-05  0.992335  0.0
H  H46  1  0.08210838  0.87084380  0.20776156  1  0.640124  -1.4e-05  0.272349  0.363883  -7.5e-05  0.992369  0.0
H  H47  1  0.41788592  0.62915216  0.70775928  1  0.640278  -1.4e-05  0.272337  0.363939  -7.5e-05  0.992288  0.0
C  C48  1  0.24893480  0.03353519  0.87509097  1  0.507338  0.001633  0.058461  0.073058  0.000462  3.867052  0.001
C  C49  1  0.25107629  0.46647315  0.37507413  1  0.524545  0.001652  0.058534  0.073037  0.000459  3.86685  0.001
C  C50  1  0.75106894  0.96646100  0.12491175  1  0.506478  -0.001633  0.058646  0.073552  -0.000462  3.86728  -0.001
C  C51  1  0.74889784  0.53353689  0.62491668  1  0.505192  -0.001636  0.058403  0.072992  -0.000462  3.866581  -0.001
C  C52  1  0.23023821  0.99227932  0.73990540  1  0.425264  0.000748  0.061611  0.117086  -9.2e-05  3.892446  0.001
C  C53  1  0.26979368  0.50769749  0.23988434  1  0.436904  0.000785  0.061527  0.116631  -9.1e-05  3.893736  0.001
C  C54  1  0.76974818  0.00770299  0.26009970  1  0.425239  -0.000747  0.061472  0.116857  9.2e-05  3.89272  -0.001
C  C55  1  0.73019985  0.49230599  0.76011004  1  0.437189  -0.000784  0.061517  0.116694  9.2e-05  3.893477  -0.001
C  C56  1  0.25996219  0.88032296  0.75113975  1  0.053852  -0.005545  -0.075037  -0.104769  -0.00393  3.967171  -0.005
C  C57  1  0.24006781  0.61964976  0.25108975  1  0.051244  -0.005548  -0.074687  -0.104084  -0.00393  3.966885  -0.005
C  C58  1  0.74005255  0.11966504  0.24886773  1  0.051208  0.005546  -0.074968  -0.104608  0.003928  3.967297  0.005
C  C59  1  0.75992948  0.38035276  0.74890642  1  0.051344  0.005548  -0.074669  -0.104098  0.00393  3.967156  0.005
C  C60  1  0.28610993  0.84413067  0.82718168  1  -0.033677  0.003573  -0.056564  -0.050622  0.002434  3.884619  0.002
C  C61  1  0.21387975  0.65585848  0.32712632  1  -0.033189  0.003576  -0.056726  -0.050863  0.002435  3.885127  0.002
C  C62  1  0.71390077  0.15586540  0.17283116  1  -0.033697  -0.003575  -0.056501  -0.050483  -0.002435  3.885045  -0.002
C  C63  1  0.78608664  0.34415259  0.67286747  1  -0.032949  -0.003574  -0.056864  -0.051291  -0.002434  3.885598  -0.002
C  C64  1  0.28128575  0.92292525  0.89071681  1  -0.004416  -0.004618  -0.005119  -0.04712  -0.00321  4.042847  -0.004
C  C65  1  0.21867279  0.57705682  0.39067081  1  -0.004598  -0.004615  -0.005272  -0.047456  -0.003207  4.043362  -0.004
C  C66  1  0.71871614  0.07706743  0.10929305  1  -0.004284  0.004618  -0.005328  -0.04757  0.00321  4.043213  0.004
C  C67  1  0.78129756  0.42294175  0.60932238  1  -0.00429  0.004616  -0.005126  -0.046872  0.003208  4.042901  0.004
C  C68  1  0.30880161  0.88672247  0.97077726  1  1.008348  -0.000754  0.219949  0.306339  -0.000526  4.000918  -0.001
C  C69  1  0.19118054  0.61326758  0.47072471  1  1.009848  -0.000754  0.219934  0.306982  -0.000526  4.000471  -0.001
C  C70  1  0.69121493  0.11327705  0.02923558  1  1.008679  0.000753  0.219989  0.306506  0.000526  4.000771  0.001
C  C71  1  0.80878463  0.38673020  0.52927086  1  1.009518  0.000754  0.219963  0.306485  0.000526  4.000776  0.001
C  C72  1  0.35797387  0.90064198  0.09526093  1  1.021799  -0.000848  0.220485  0.297467  -0.00059  4.019426  -0.001
C  C73  1  0.14204701  0.59933166  0.59521870  1  1.02035  -0.000849  0.220398  0.297421  -0.00059  4.019327  -0.001
C  C74  1  0.64206676  0.09935799  0.90474655  1  1.021454  0.000848  0.22055  0.297533  0.00059  4.019284  0.001
C  C75  1  0.85793421  0.40066228  0.40477866  1  1.02085  0.000849  0.220546  0.297612  0.00059  4.019308  0.001
C  C76  1  0.38570431  0.95335313  0.17335614  1  0.037415  -0.005239  -0.00274  -0.044837  -0.003675  4.032855  -0.004
C  C77  1  0.11427530  0.54661642  0.67331519  1  0.037266  -0.005243  -0.002803  -0.044428  -0.003677  4.032529  -0.004
C  C78  1  0.61434343  0.04665558  0.82665074  1  0.038061  0.005242  -0.002909  -0.044621  0.003676  4.032397  0.004
C  C79  1  0.88569783  0.45338121  0.32668336  1  0.036611  0.005242  -0.002914  -0.044472  0.003676  4.0327  0.004
C  C80  1  0.43471378  0.88981976  0.23465142  1  0.004216  0.003826  -0.051171  -0.043006  0.002586  3.865394  0.002
C  C81  1  0.06533334  0.61016236  0.73462373  1  0.003861  0.003827  -0.051125  -0.04317  0.002587  3.865492  0.002
C  C82  1  0.56531719  0.11018571  0.76535428  1  0.003416  -0.003827  -0.051132  -0.043122  -0.002586  3.865505  -0.002
C  C83  1  0.93468349  0.38984247  0.26538554  1  0.003671  -0.003827  -0.051194  -0.043379  -0.002587  3.865272  -0.002
C  C84  1  0.44679821  0.93884281  0.31052042  1  -0.008605  -0.005651  -0.069343  -0.105121  -0.003992  3.956079  -0.004
C  C85  1  0.05316041  0.56109714  0.81048193  1  -0.007284  -0.005644  -0.069477  -0.105371  -0.003989  3.956468  -0.004
C  C86  1  0.55318435  0.06114844  0.68949420  1  -0.008629  0.005651  -0.069463  -0.105292  0.003992  3.956391  0.004
C  C87  1  0.94683138  0.43888684  0.18952079  1  -0.007281  0.005646  -0.06938  -0.10507  0.00399  3.956253  0.004
C  C88  1  0.41281328  0.04904205  0.32297777  1  0.48721  0.001467  0.059817  0.099858  0.000344  3.918973  0.001
C  C89  1  0.08716724  0.45091621  0.82294044  1  0.485981  0.001468  0.060125  0.10052  0.000347  3.919576  0.001
C  C90  1  0.58715806  0.95094408  0.67703507  1  0.487913  -0.00147  0.059788  0.09982  -0.000346  3.919141  -0.001
C  C91  1  0.91282960  0.54907212  0.17705454  1  0.486111  -0.001467  0.059959  0.100089  -0.000346  3.919652  -0.001
C  C92  1  0.35799520  0.06545522  0.18984983  1  0.502848  0.001451  0.065397  0.084621  0.00025  3.868176  0.001
C  C93  1  0.14206319  0.43453230  0.68981846  1  0.502959  0.001453  0.06495  0.084167  0.00025  3.867849  0.001
C  C94  1  0.64206072  0.93455424  0.81015169  1  0.502875  -0.001452  0.065401  0.084435  -0.00025  3.868063  -0.001
C  C95  1  0.85795917  0.56547066  0.31017592  1  0.502736  -0.00145  0.065124  0.084266  -0.000248  3.868126  -0.001
C  C96  1  0.93820341  0.93215323  0.56459187  1  0.06539  0.007195  -0.005854  -0.024413  0.005351  3.924065  0.006
C  C97  1  0.56177874  0.56786074  0.06458097  1  0.065737  0.007195  -0.005787  -0.024488  0.00535  3.924026  0.006
C  C98  1  0.06178284  0.06787789  0.43540727  1  0.065829  -0.007198  -0.005715  -0.024351  -0.005353  3.923762  -0.006
C  C99  1  0.43820341  0.43214117  0.93541222  1  0.065496  -0.007199  -0.00576  -0.024563  -0.005353  3.924047  -0.006
C  C100  1  0.99946278  0.05138698  0.57592527  1  -0.100479  -0.006549  -0.009153  -0.044448  -0.004813  3.943769  -0.005
C  C101  1  0.50052744  0.44861719  0.07593239  1  -0.10073  -0.006546  -0.009149  -0.044554  -0.004809  3.943627  -0.005
C  C102  1  0.00048707  0.94863415  0.42407031  1  -0.099681  0.006542  -0.009111  -0.044497  0.004808  3.943379  0.005
C  C103  1  0.49948525  0.55137884  0.92406557  1  -0.100896  0.006543  -0.009019  -0.044246  0.004807  3.943866  0.005
C  C104  1  0.93821084  0.88314188  0.48854658  1  0.033022  -0.001068  -0.081219  -0.108259  -0.000577  3.946959  -0.001
C  C105  1  0.56176848  0.61686589  0.98853306  1  0.033665  -0.001066  -0.081316  -0.108437  -0.000577  3.947364  -0.001
C  C106  1  0.06175152  0.11687725  0.51145078  1  0.032935  0.001063  -0.081203  -0.108264  0.000575  3.947263  0.001
C  C107  1  0.43824422  0.38313015  0.01145239  1  0.033283  0.001062  -0.081134  -0.108015  0.000574  3.946735  0.001
C  C108  1  0.87856491  0.85400079  0.63239979  1  1.568347  -0.000805  0.196762  0.563276  0.000506  4.230913  -0.003
C  C109  1  0.62142978  0.64600067  0.13238867  1  1.568149  -0.000807  0.197055  0.563688  0.000506  4.230035  -0.003
C  C110  1  0.12142140  0.14602235  0.36760054  1  1.568478  0.000805  0.196916  0.563596  -0.000506  4.230165  0.003
C  C111  1  0.37858356  0.35399802  0.86759975  1  1.568618  0.000807  0.196955  0.563627  -0.000505  4.230315  0.003
C  C112  1  0.99798792  0.11142817  0.65524945  1  1.589235  -0.000636  0.215816  0.583128  -0.001724  4.180935  0.001
C  C113  1  0.50203738  0.38855718  0.15524710  1  1.58915  -0.000639  0.215731  0.583023  -0.001727  4.181255  0.001
C  C114  1  0.00202366  0.88858386  0.34476101  1  1.588806  0.000644  0.21572  0.582959  0.001727  4.181154  -0.001
C  C115  1  0.49794889  0.61144110  0.84475562  1  1.588892  0.000639  0.21569  0.583133  0.001729  4.181234  -0.001
N  N116  1  0.22417500  0.06708054  0.80068231  1  -1.191591  -0.079069  -0.336613  -0.21238  -0.055239  3.578188  -0.069
N  N117  1  0.27587699  0.43292193  0.30066185  1  -1.2028  -0.079113  -0.336634  -0.212429  -0.055243  3.578542  -0.069
N  N118  1  0.77585127  0.93291791  0.19931446  1  -1.191558  0.079068  -0.336592  -0.212619  0.05524  3.578576  0.069
N  N119  1  0.72411441  0.56708513  0.69932955  1  -1.202999  0.079121  -0.336569  -0.212464  0.055248  3.578394  0.069
N  N120  1  0.37275103  0.11204447  0.26307934  1  -1.216293  -0.084517  -0.339095  -0.218412  -0.058849  3.626006  -0.074
N  N121  1  0.12726175  0.38792954  0.76304248  1  -1.215626  -0.084534  -0.338921  -0.218484  -0.058859  3.626135  -0.074
N  N122  1  0.62727440  0.88796287  0.73692516  1  -1.216814  0.08453  -0.339172  -0.218426  0.058857  3.626194  0.074
N  N123  1  0.87274774  0.61206567  0.23694833  1  -1.215013  0.084529  -0.33894  -0.218386  0.058856  3.626097  0.074
N  N124  1  0.31111696  0.77944957  0.99590528  1  -0.679263  -0.000806  -0.221279  -0.240135  -0.000527  3.148594  -0.001
N  N125  1  0.18883034  0.72053185  0.49585170  1  -0.679557  -0.000806  -0.221309  -0.240498  -0.000528  3.148009  -0.001
N  N126  1  0.68891358  0.22055413  0.00410220  1  -0.678854  0.000806  -0.221208  -0.240018  0.000527  3.148574  0.001
N  N127  1  0.81110888  0.27946196  0.50414269  1  -0.679415  0.000807  -0.221159  -0.240018  0.000528  3.148008  0.001
N  N128  1  0.34262668  0.78844812  0.07639137  1  -0.675385  -0.000933  -0.215152  -0.236165  -0.0006  3.183185  -0.001
N  N129  1  0.15735278  0.71153254  0.57634610  1  -0.675323  -0.000933  -0.215044  -0.236167  -0.0006  3.182526  -0.001
N  N130  1  0.65743001  0.21156044  0.92361611  1  -0.675596  0.000933  -0.215241  -0.23647  0.0006  3.183127  0.001
N  N131  1  0.84259647  0.28846553  0.42365245  1  -0.675287  0.000933  -0.215318  -0.236567  0.0006  3.182994  0.001
O  O132  1  0.75871330  0.79083410  0.61680547  1  -1.100835  0.126549  -0.335027  -0.555834  0.084214  2.317249  0.113
O  O133  1  0.74129613  0.70915456  0.11681789  1  -1.100844  0.126525  -0.33527  -0.55609  0.084204  2.31718  0.113
O  O134  1  0.24128192  0.20916402  0.38319427  1  -1.100679  -0.126559  -0.335138  -0.556039  -0.084221  2.31687  -0.113
O  O135  1  0.25872411  0.29085199  0.88318542  1  -1.100942  -0.126547  -0.335175  -0.556055  -0.084218  2.317534  -0.113
O  O136  1  0.94113179  0.85104189  0.69627794  1  -1.171123  0.001792  -0.319905  -0.554161  0.000816  2.154539  0.002
O  O137  1  0.55885218  0.64897075  0.19626714  1  -1.171063  0.001792  -0.319965  -0.554252  0.000816  2.154084  0.002
O  O138  1  0.05886567  0.14898194  0.30371228  1  -1.171586  -0.001796  -0.319996  -0.554321  -0.000819  2.154004  -0.002
O  O139  1  0.44115775  0.35102622  0.80371771  1  -1.171215  -0.001795  -0.31998  -0.554298  -0.000818  2.153888  -0.002
O  O140  1  0.11289340  0.17820129  0.67395615  1  -1.139442  -0.096097  -0.333891  -0.571448  -0.063932  2.393623  -0.087
O  O141  1  0.38713247  0.32175567  0.17395698  1  -1.139326  -0.096081  -0.333858  -0.571456  -0.06392  2.393714  -0.087
O  O142  1  0.88712149  0.82178317  0.32604062  1  -1.139343  0.096115  -0.333922  -0.571497  0.063944  2.393353  0.087
O  O143  1  0.61284024  0.67825263  0.82602669  1  -1.139068  0.096073  -0.333788  -0.571569  0.06391  2.393835  0.087
O  O144  1  0.89149080  0.09599293  0.69658013  1  -1.183385  -0.003232  -0.301429  -0.524185  -0.00188  2.210139  -0.003
O  O145  1  0.60852154  0.40401987  0.19659168  1  -1.183394  -0.003235  -0.301432  -0.52418  -0.001881  2.210445  -0.003
O  O146  1  0.10850712  0.90405752  0.30341187  1  -1.183345  0.003233  -0.301405  -0.524116  0.00188  2.210268  0.003
O  O147  1  0.39146324  0.59592696  0.80340926  1  -1.183483  0.003234  -0.301505  -0.524327  0.001881  2.210293  0.003
O  O148  1  0.95344239  0.15040388  0.84762600  1  -1.242839  0.001931  -0.603202  -0.770006  0.001107  1.983118  0.001
O  O149  1  0.54658190  0.34958690  0.34762300  1  -1.243045  0.001932  -0.603212  -0.770282  0.001108  1.983164  0.001
O  O150  1  0.04657130  0.84959214  0.15237731  1  -1.242976  -0.001932  -0.603239  -0.77025  -0.001108  1.983079  -0.001
O  O151  1  0.45342563  0.65042077  0.65237734  1  -1.243  -0.001931  -0.603288  -0.770434  -0.001107  1.983239  -0.001
O  O152  1  0.33802354  0.96902672  0.03085562  1  -1.038159  -0.000102  -0.10028  -0.18188  -4.2e-05  2.486059  0.0
O  O153  1  0.16200277  0.53096338  0.53080993  1  -1.038046  -0.000101  -0.100251  -0.182043  -4.1e-05  2.485521  0.0
O  O154  1  0.66200756  0.03097520  0.96915306  1  -1.038186  0.000102  -0.100269  -0.181839  4.1e-05  2.485932  0.0
O  O155  1  0.83797839  0.46903855  0.46918683  1  -1.038162  0.000102  -0.10031  -0.182026  4.1e-05  2.485539  0.0
