# generated using pymatgen
data_CdH18C14N2(O2F)4
_symmetry_space_group_name_H-M   'P 1'
_cell_length_a   5.18824283
_cell_length_b   10.59563664
_cell_length_c   16.83770100
_cell_angle_alpha   90.00086287
_cell_angle_beta   90.40798467
_cell_angle_gamma   90.00017867
_symmetry_Int_Tables_number   1
_chemical_formula_structural   CdH18C14N2(O2F)4
_chemical_formula_sum   'Cd2 H36 C28 N4 O16 F8'
_cell_volume   925.59102324
_cell_formula_units_Z   2
loop_
 _symmetry_equiv_pos_site_id
 _symmetry_equiv_pos_as_xyz
  1  'x, y, z'
loop_
 _atom_site_type_symbol
 _atom_site_label
 _atom_site_symmetry_multiplicity
 _atom_site_fract_x
 _atom_site_fract_y
 _atom_site_fract_z
 _atom_site_occupancy
 _atom_site_hle17_bader_spin_density
 _atom_site_hle17_ddec_charge
 _atom_site_hle17_ddec_spin_density
 _atom_site_hle17_ddec_sum_bond_order
 _atom_site_hle17_magmom
 _atom_site_hse06_10hf_bader_charge
 _atom_site_hse06_10hf_bader_spin_density
 _atom_site_hse06_10hf_ddec_charge
 _atom_site_hse06_10hf_ddec_spin_density
 _atom_site_hse06_10hf_ddec_sum_bond_order
 _atom_site_hse06_10hf_magmom
 _atom_site_hse06_bader_spin_density
 _atom_site_hse06_ddec_charge
 _atom_site_hse06_ddec_spin_density
 _atom_site_hse06_ddec_sum_bond_order
 _atom_site_hse06_magmom
 _atom_site_pbe_bader_spin_density
 _atom_site_pbe_cm5_charge
 _atom_site_pbe_ddec_charge
 _atom_site_pbe_ddec_spin_density
 _atom_site_pbe_ddec_sum_bond_order
 _atom_site_pbe_magmom
Cd  Cd0  1  0.99999579  0.99999628  0.99999982  1  0  1.244322  0  1.601741  0  1.370578  0  1.079341  0  2.040646  0  0  1.134513  0  1.982006  0  0  0.765366  1.039846  0  2.080977  0
Cd  Cd1  1  0.50002294  0.50000380  0.50000036  1  0  1.244311  0  1.601664  0  1.370637  0  1.079311  0  2.040528  0  0  1.134485  0  1.981891  0  0  0.765376  1.039817  0  2.08086  0
H  H2  1  0.09782032  0.77691096  0.11914102  1  0  0.037936  0  0.961405  0  0.127535  0  0.042932  0  1.039218  0  0  0.04429  0  1.034704  0  0  0.118465  0.041728  0  1.042539  0
H  H3  1  0.40213734  0.27691799  0.38086679  1  0  0.037854  0  0.961435  0  0.127717  0  0.042855  0  1.039278  0  0  0.044211  0  1.034773  0  0  0.118479  0.041656  0  1.042587  0
H  H4  1  0.90212678  0.22308815  0.88087038  1  0  0.03799  0  0.961325  0  0.127779  0  0.042981  0  1.039161  0  0  0.044339  0  1.034649  0  0  0.118516  0.041778  0  1.042479  0
H  H5  1  0.59788921  0.72307735  0.61913500  1  0  0.037928  0  0.961467  0  0.127896  0  0.042905  0  1.039316  0  0  0.044267  0  1.0348  0  0  0.118459  0.041705  0  1.04263  0
H  H6  1  0.22665187  0.69928227  0.30034242  1  0  0.105918  0  0.939839  0  0.076674  0  0.122863  0  1.006106  0  0  0.124112  0  1.005314  0  0  0.100874  0.121835  0  1.006819  0
H  H7  1  0.27329373  0.19928371  0.19966045  1  0  0.106019  0  0.939749  0  0.07586  0  0.123018  0  1.005948  0  0  0.124264  0  1.005165  0  0  0.100931  0.12199  0  1.006659  0
H  H8  1  0.77331689  0.30071495  0.69965842  1  0  0.10599  0  0.939763  0  0.076471  0  0.12297  0  1.005988  0  0  0.124219  0  1.005201  0  0  0.100902  0.121942  0  1.006701  0
H  H9  1  0.72669029  0.80071634  0.80034404  1  0  0.10601  0  0.939839  0  0.07586  0  0.122998  0  1.006043  0  0  0.124247  0  1.005258  0  0  0.100913  0.12197  0  1.006752  0
H  H10  1  0.47742788  0.61991701  0.24928143  1  0  0.112097  0  0.936823  0  0.083064  0  0.128874  0  1.003281  0  0  0.130415  0  1.002111  0  0  0.102914  0.127663  0  1.004249  0
H  H11  1  0.02251483  0.11993363  0.25072724  1  0  0.112136  0  0.936777  0  0.083377  0  0.128839  0  1.00334  0  0  0.130384  0  1.00216  0  0  0.102949  0.127629  0  1.004309  0
H  H12  1  0.52254067  0.38008115  0.75072416  1  0  0.11206  0  0.936769  0  0.083388  0  0.12885  0  1.003241  0  0  0.130391  0  1.002075  0  0  0.102896  0.127634  0  1.004207  0
H  H13  1  0.97746132  0.88008058  0.74928136  1  0  0.112138  0  0.936778  0  0.083192  0  0.128908  0  1.003263  0  0  0.130447  0  1.002099  0  0  0.102932  0.127694  0  1.004227  0
H  H14  1  0.16445099  0.63094160  0.20485715  1  0  0.10108  0  0.958677  0  0.088906  0  0.115864  0  1.032224  0  0  0.116697  0  1.031913  0  0  0.102524  0.115161  0  1.032557  0
H  H15  1  0.33549589  0.13094831  0.29514630  1  0  0.101241  0  0.958606  0  0.089553  0  0.11605  0  1.032137  0  0  0.116886  0  1.031822  0  0  0.102595  0.115347  0  1.032472  0
H  H16  1  0.83552355  0.36905185  0.79514372  1  0  0.101159  0  0.958627  0  0.08893  0  0.115952  0  1.032166  0  0  0.116788  0  1.031852  0  0  0.102543  0.115249  0  1.032499  0
H  H17  1  0.66448621  0.86904797  0.70485819  1  0  0.101269  0  0.958535  0  0.089061  0  0.116084  0  1.032047  0  0  0.11692  0  1.031735  0  0  0.102617  0.115381  0  1.032382  0
H  H18  1  0.61039823  0.96065783  0.21276764  1  0  0.114209  0  0.962803  0  0.133846  0  0.133151  0  1.025775  0  0  0.134789  0  1.02453  0  0  0.107263  0.131844  0  1.026815  0
H  H19  1  0.88958970  0.46067667  0.28723783  1  0  0.114342  0  0.962941  0  0.133471  0  0.133273  0  1.025866  0  0  0.134918  0  1.024635  0  0  0.107282  0.131966  0  1.026905  0
H  H20  1  0.38959378  0.03933750  0.78723038  1  0  0.114215  0  0.963015  0  0.133695  0  0.133159  0  1.025922  0  0  0.134802  0  1.024679  0  0  0.107255  0.131854  0  1.026962  0
H  H21  1  0.11043665  0.53933848  0.71276871  1  0  0.114245  0  0.963081  0  0.133542  0  0.133209  0  1.025922  0  0  0.134852  0  1.02467  0  0  0.107282  0.1319  0  1.026967  0
H  H22  1  0.77613249  0.81501700  0.22629200  1  0  0.095102  0  0.940017  0  0.044728  0  0.115339  0  1.007148  0  0  0.115199  0  1.007585  0  0  0.099848  0.115343  0  1.006886  0
H  H23  1  0.72384658  0.31503817  0.27370912  1  0  0.095104  0  0.940158  0  0.044934  0  0.115321  0  1.007248  0  0  0.115184  0  1.007683  0  0  0.09985  0.115324  0  1.006984  0
H  H24  1  0.22384998  0.18497267  0.77370358  1  0  0.095149  0  0.940013  0  0.04487  0  0.115336  0  1.00714  0  0  0.115204  0  1.007556  0  0  0.099845  0.115337  0  1.006883  0
H  H25  1  0.27617203  0.68497509  0.72629797  1  0  0.095173  0  0.939948  0  0.044693  0  0.115291  0  1.007138  0  0  0.115145  0  1.007581  0  0  0.099843  0.115291  0  1.006879  0
H  H26  1  0.57137004  0.87154678  0.30301656  1  0  0.113308  0  0.971084  0  0.088424  0  0.124723  0  1.048747  0  0  0.126815  0  1.04656  0  0  0.099194  0.123124  0  1.050375  0
H  H27  1  0.92862297  0.37156153  0.19698635  1  0  0.113329  0  0.971108  0  0.088502  0  0.12464  0  1.048869  0  0  0.126741  0  1.04666  0  0  0.099182  0.123034  0  1.050512  0
H  H28  1  0.42862965  0.12844666  0.69698209  1  0  0.113363  0  0.971021  0  0.088448  0  0.124696  0  1.048758  0  0  0.126796  0  1.046545  0  0  0.099184  0.123092  0  1.050403  0
H  H29  1  0.07140338  0.62844418  0.80302019  1  0  0.113441  0  0.971179  0  0.088333  0  0.124756  0  1.04889  0  0  0.126856  0  1.046678  0  0  0.099245  0.123151  0  1.050531  0
H  H30  1  0.77064455  0.17185528  0.09029480  1  0  0.420958  0  0.881569  0  0.649619  0  0.387492  0  0.949427  0  0  0.39937  0  0.932191  0  0  0.285427  0.379199  0  0.961386  0
H  H31  1  0.72935994  0.67186505  0.40971290  1  0  0.42088  0  0.881676  0  0.649576  0  0.3874  0  0.949562  0  0  0.399281  0  0.932323  0  0  0.285367  0.379107  0  0.961521  0
H  H32  1  0.22934541  0.82814289  0.90970617  1  0  0.42084  0  0.881731  0  0.649566  0  0.387375  0  0.949588  0  0  0.399254  0  0.932351  0  0  0.285367  0.379082  0  0.961546  0
H  H33  1  0.27067237  0.32815199  0.59028952  1  0  0.420871  0  0.881661  0  0.649543  0  0.387398  0  0.949533  0  0  0.399276  0  0.932297  0  0  0.285367  0.379107  0  0.96149  0
H  H34  1  0.56807141  0.05197572  0.09731129  1  0  0.429263  0  0.866182  0  0.645915  0  0.396846  0  0.932064  0  0  0.407818  0  0.916102  0  0  0.294202  0.389068  0  0.943357  0
H  H35  1  0.93194380  0.55198836  0.40269064  1  0  0.429387  0  0.866008  0  0.646039  0  0.396827  0  0.932088  0  0  0.407797  0  0.91613  0  0  0.294153  0.389051  0  0.943381  0
H  H36  1  0.43192240  0.94801866  0.90268971  1  0  0.429346  0  0.866077  0  0.645985  0  0.396797  0  0.932142  0  0  0.407767  0  0.916184  0  0  0.294146  0.389018  0  0.943438  0
H  H37  1  0.06809437  0.44802679  0.59731003  1  0  0.429356  0  0.866081  0  0.64605  0  0.396889  0  0.932042  0  0  0.407861  0  0.916081  0  0  0.29422  0.38911  0  0.943339  0
C  C38  1  0.85936521  0.71105053  0.97461331  1  0  0.690003  0  3.914363  0  1.671742  0  0.637045  0  4.221008  0  0  0.672321  0  4.210945  0  0  0.210352  0.613103  0  4.227081  0
C  C39  1  0.64063790  0.21105223  0.52537465  1  0  0.690453  0  3.914193  0  1.671236  0  0.637446  0  4.220929  0  0  0.67272  0  4.210864  0  0  0.210421  0.613504  0  4.227005  0
C  C40  1  0.14063458  0.28894197  0.02538297  1  0  0.68998  0  3.914433  0  1.671537  0  0.63703  0  4.221073  0  0  0.672308  0  4.211015  0  0  0.210366  0.613087  0  4.227143  0
C  C41  1  0.35936394  0.78894688  0.47461867  1  0  0.689899  0  3.914631  0  1.671359  0  0.63695  0  4.221293  0  0  0.672226  0  4.211232  0  0  0.210263  0.613005  0  4.227366  0
C  C42  1  0.67909454  0.59997469  0.98725621  1  0  -0.20151  0  3.748903  0  0.155101  0  -0.211216  0  4.029056  0  0  -0.216401  0  4.042259  0  0  -0.027705  -0.207998  0  4.020606  0
C  C43  1  0.82091706  0.09997908  0.51273554  1  0  -0.201486  0  3.748863  0  0.155674  0  -0.211292  0  4.02915  0  0  -0.216471  0  4.04235  0  0  -0.027699  -0.208072  0  4.020704  0
C  C44  1  0.32090741  0.40002065  0.01273473  1  0  -0.201554  0  3.749032  0  0.155221  0  -0.211311  0  4.029229  0  0  -0.216494  0  4.042429  0  0  -0.027729  -0.208094  0  4.020781  0
C  C45  1  0.17909057  0.90001153  0.48725782  1  0  -0.201347  0  3.748696  0  0.155205  0  -0.211141  0  4.029014  0  0  -0.216326  0  4.042218  0  0  -0.027689  -0.207918  0  4.020565  0
C  C46  1  0.63089760  0.55279658  0.06284804  1  0  0.208969  0  3.771546  0  0.520552  0  0.166491  0  4.084514  0  0  0.176204  0  4.091884  0  0  0.090381  0.159497  0  4.080105  0
C  C47  1  0.86909296  0.05279365  0.43714424  1  0  0.20884  0  3.772041  0  0.520559  0  0.166395  0  4.085081  0  0  0.176107  0  4.092452  0  0  0.090288  0.1594  0  4.080676  0
C  C48  1  0.36907934  0.44721008  0.93714157  1  0  0.208911  0  3.772131  0  0.521066  0  0.166409  0  4.085177  0  0  0.176121  0  4.09255  0  0  0.090308  0.159415  0  4.080769  0
C  C49  1  0.13091086  0.94720263  0.56284790  1  0  0.208912  0  3.77162  0  0.520435  0  0.166397  0  4.084673  0  0  0.17611  0  4.092044  0  0  0.090331  0.159401  0  4.080271  0
C  C50  1  0.45538714  0.45583975  0.07539031  1  0  0.2113  0  3.77212  0  0.49707  0  0.169127  0  4.081996  0  0  0.179356  0  4.088602  0  0  0.092345  0.161845  0  4.078069  0
C  C51  1  0.04461150  0.95583838  0.42459859  1  0  0.211201  0  3.771937  0  0.497096  0  0.16898  0  4.081932  0  0  0.179209  0  4.088534  0  0  0.092174  0.161698  0  4.078008  0
C  C52  1  0.54460524  0.54415935  0.92459880  1  0  0.211285  0  3.77231  0  0.497329  0  0.169096  0  4.082198  0  0  0.179325  0  4.088801  0  0  0.092259  0.161814  0  4.078272  0
C  C53  1  0.95540396  0.04416356  0.57539184  1  0  0.211343  0  3.772062  0  0.497379  0  0.16924  0  4.081923  0  0  0.179468  0  4.088526  0  0  0.092436  0.161958  0  4.078002  0
C  C54  1  0.25311596  0.84020055  0.13962305  1  0  0.398563  0  3.792943  0  1.402547  0  0.322832  0  4.076856  0  0  0.351556  0  4.078149  0  0  0.174686  0.303689  0  4.075322  0
C  C55  1  0.24685767  0.34021541  0.36038544  1  0  0.398708  0  3.793172  0  1.402771  0  0.322853  0  4.077132  0  0  0.351564  0  4.078443  0  0  0.174741  0.303712  0  4.075598  0
C  C56  1  0.74684674  0.15979667  0.86038429  1  0  0.398944  0  3.792428  0  1.402664  0  0.323063  0  4.076414  0  0  0.351781  0  4.077712  0  0  0.174771  0.30392  0  4.074879  0
C  C57  1  0.75316860  0.65978842  0.63962288  1  0  0.398784  0  3.792772  0  1.402575  0  0.322951  0  4.076766  0  0  0.35166  0  4.078076  0  0  0.174887  0.30381  0  4.075232  0
C  C58  1  0.30759028  0.68033132  0.24147549  1  0  -0.181381  0  3.645293  0  0.25614  0  -0.288343  0  3.909238  0  0  -0.28516  0  3.919276  0  0  -0.137508  -0.290154  0  3.902408  0
C  C59  1  0.19236277  0.18034453  0.25852964  1  0  -0.181744  0  3.645717  0  0.256497  0  -0.288783  0  3.909653  0  0  -0.285599  0  3.919681  0  0  -0.1377  -0.290596  0  3.902826  0
C  C60  1  0.69238416  0.31966023  0.75852776  1  0  -0.181535  0  3.645329  0  0.256344  0  -0.28862  0  3.909214  0  0  -0.285441  0  3.919247  0  0  -0.137583  -0.290419  0  3.902377  0
C  C61  1  0.80763084  0.81965835  0.74147611  1  0  -0.181756  0  3.645323  0  0.257053  0  -0.288814  0  3.909285  0  0  -0.28561  0  3.919265  0  0  -0.137678  -0.290618  0  3.902448  0
C  C62  1  0.59657034  0.86631648  0.23851415  1  0  -0.176369  0  3.622457  0  0.248539  0  -0.279977  0  3.873884  0  0  -0.276036  0  3.882381  0  0  -0.142367  -0.282359  0  3.868248  0
C  C63  1  0.90340718  0.36633753  0.26148921  1  0  -0.176542  0  3.623102  0  0.248423  0  -0.280069  0  3.874311  0  0  -0.276115  0  3.882768  0  0  -0.142382  -0.282448  0  3.868663  0
C  C64  1  0.40341782  0.13367602  0.76148384  1  0  -0.176471  0  3.62283  0  0.24842  0  -0.279966  0  3.873946  0  0  -0.276029  0  3.882462  0  0  -0.142342  -0.282347  0  3.868301  0
C  C65  1  0.09661139  0.63367574  0.73851906  1  0  -0.176658  0  3.62311  0  0.248941  0  -0.279998  0  3.874175  0  0  -0.276053  0  3.882681  0  0  -0.142443  -0.282378  0  3.868529  0
N  N66  1  0.38071026  0.79838042  0.20321630  1  0  -0.069825  0  3.504391  0  -1.257884  0  0.029765  0  3.742943  0  0  0.009601  0  3.768671  0  0  -0.277681  0.043209  0  3.725148  0
N  N67  1  0.11926303  0.29839828  0.29679121  1  0  -0.069697  0  3.504976  0  -1.2582  0  0.03004  0  3.74326  0  0  0.009877  0  3.769007  0  0  -0.2776  0.043488  0  3.725458  0
N  N68  1  0.61927174  0.20160831  0.79679056  1  0  -0.069811  0  3.504691  0  -1.258219  0  0.029955  0  3.742962  0  0  0.009793  0  3.768698  0  0  -0.277557  0.0434  0  3.725162  0
N  N69  1  0.88074415  0.70160366  0.70321284  1  0  -0.069683  0  3.504726  0  -1.258597  0  0.029897  0  3.743168  0  0  0.009737  0  3.768904  0  0  -0.277608  0.043345  0  3.725368  0
O  O70  1  0.78912031  0.81150627  0.01017972  1  0  -0.64464  0  1.981612  0  -1.180502  0  -0.58318  0  2.230734  0  0  -0.612472  0  2.218746  0  0  -0.329312  -0.562562  0  2.238155  0
O  O71  1  0.71090121  0.31151204  0.48981985  1  0  -0.644737  0  1.981539  0  -1.180309  0  -0.583284  0  2.230703  0  0  -0.612579  0  2.21872  0  0  -0.329308  -0.562664  0  2.238125  0
O  O72  1  0.21087345  0.18848528  0.98982246  1  0  -0.644505  0  1.981731  0  -1.180304  0  -0.583079  0  2.230875  0  0  -0.612369  0  2.218887  0  0  -0.329301  -0.56246  0  2.238297  0
O  O73  1  0.28914424  0.68849650  0.51019097  1  0  -0.644538  0  1.981725  0  -1.180304  0  -0.583095  0  2.230853  0  0  -0.612386  0  2.218868  0  0  -0.329269  -0.562477  0  2.238278  0
O  O74  1  0.05417113  0.69445597  0.93193478  1  0  -0.611478  0  1.976173  0  -1.185736  0  -0.562104  0  2.203669  0  0  -0.588277  0  2.195981  0  0  -0.304637  -0.543748  0  2.208321  0
O  O75  1  0.44582485  0.19445715  0.56804590  1  0  -0.611802  0  1.97635  0  -1.185605  0  -0.562346  0  2.203819  0  0  -0.588516  0  2.196125  0  0  -0.304699  -0.543988  0  2.208475  0
O  O76  1  0.94581504  0.30554503  0.06806438  1  0  -0.611564  0  1.97613  0  -1.185701  0  -0.562113  0  2.203507  0  0  -0.588291  0  2.195824  0  0  -0.30463  -0.543752  0  2.208156  0
O  O77  1  0.55418498  0.80553819  0.43194094  1  0  -0.611577  0  1.976195  0  -1.185665  0  -0.562106  0  2.203584  0  0  -0.588275  0  2.195898  0  0  -0.304644  -0.543746  0  2.208233  0
O  O78  1  0.29524805  0.94283389  0.10384890  1  0  -0.568567  0  2.095493  0  -1.199726  0  -0.495683  0  2.343755  0  0  -0.522955  0  2.334585  0  0  -0.304651  -0.47672  0  2.349383  0
O  O79  1  0.20475005  0.44285431  0.39614998  1  0  -0.568682  0  2.095765  0  -1.200146  0  -0.495698  0  2.344013  0  0  -0.522967  0  2.334851  0  0  -0.304787  -0.476743  0  2.349663  0
O  O80  1  0.70471097  0.05714729  0.89615426  1  0  -0.568972  0  2.095064  0  -1.19997  0  -0.495989  0  2.343349  0  0  -0.523259  0  2.334177  0  0  -0.304818  -0.477036  0  2.349015  0
O  O81  1  0.79529357  0.55713159  0.60385845  1  0  -0.568831  0  2.095316  0  -1.199759  0  -0.495801  0  2.343505  0  0  -0.52307  0  2.334344  0  0  -0.304845  -0.476839  0  2.349148  0
O  O82  1  0.74901399  0.07995154  0.10170499  1  0  -0.848313  0  1.886414  0  -1.263618  0  -0.785164  0  2.078116  0  0  -0.808935  0  2.043473  0  0  -0.586235  -0.768436  0  2.101967  0
O  O83  1  0.75099756  0.57996294  0.39829835  1  0  -0.848344  0  1.886303  0  -1.26369  0  -0.785063  0  2.078202  0  0  -0.808835  0  2.043567  0  0  -0.586128  -0.768334  0  2.102058  0
O  O84  1  0.25097965  0.92004851  0.89830016  1  0  -0.848286  0  1.886405  0  -1.263545  0  -0.785014  0  2.078297  0  0  -0.808788  0  2.043661  0  0  -0.586156  -0.768286  0  2.102153  0
O  O85  1  0.24904065  0.42005693  0.60170113  1  0  -0.848266  0  1.886319  0  -1.263606  0  -0.785112  0  2.078092  0  0  -0.808881  0  2.043454  0  0  -0.586225  -0.768384  0  2.101949  0
F  F86  1  0.76542550  0.59911839  0.12619345  1  0  -0.18263  0  1.256377  0  -0.647799  0  -0.119728  0  1.422265  0  0  -0.128676  0  1.413026  0  0  -0.077971  -0.113335  0  1.428687  0
F  F87  1  0.73459262  0.09912130  0.37379526  1  0  -0.182585  0  1.256678  0  -0.648017  0  -0.119667  0  1.422547  0  0  -0.128616  0  1.41331  0  0  -0.077879  -0.113273  0  1.428968  0
F  F88  1  0.23457064  0.40088638  0.87379806  1  0  -0.182606  0  1.256718  0  -0.648104  0  -0.11964  0  1.422571  0  0  -0.128587  0  1.413334  0  0  -0.0779  -0.113246  0  1.42899  0
F  F89  1  0.26544992  0.90089197  0.62619296  1  0  -0.182708  0  1.256463  0  -0.64777  0  -0.119735  0  1.422321  0  0  -0.128686  0  1.413083  0  0  -0.077956  -0.11334  0  1.428743  0
F  F90  1  0.42501187  0.41132518  0.15048641  1  0  -0.176169  0  1.255964  0  -0.640848  0  -0.107628  0  1.413781  0  0  -0.116918  0  1.405425  0  0  -0.073125  -0.100934  0  1.419458  0
F  F91  1  0.07499790  0.91132197  0.34950335  1  0  -0.176023  0  1.256192  0  -0.640512  0  -0.107474  0  1.414045  0  0  -0.11676  0  1.405686  0  0  -0.072913  -0.10078  0  1.419721  0
F  F92  1  0.57497471  0.58867204  0.84950326  1  0  -0.176085  0  1.256143  0  -0.640691  0  -0.107579  0  1.414005  0  0  -0.116867  0  1.40565  0  0  -0.072987  -0.100885  0  1.419681  0
F  F93  1  0.92502146  0.08868186  0.65048593  1  0  -0.17616  0  1.256041  0  -0.640906  0  -0.107657  0  1.413872  0  0  -0.116944  0  1.405512  0  0  -0.073139  -0.10096  0  1.41955  0
