# generated using pymatgen
data_CaH24C18(NO2)4
_symmetry_space_group_name_H-M   'P 1'
_cell_length_a   6.27007411
_cell_length_b   7.75975661
_cell_length_c   11.65700689
_cell_angle_alpha   80.07288456
_cell_angle_beta   79.13823919
_cell_angle_gamma   68.19453495
_symmetry_Int_Tables_number   1
_chemical_formula_structural   CaH24C18(NO2)4
_chemical_formula_sum   'Ca1 H24 C18 N4 O8'
_cell_volume   513.87738215
_cell_formula_units_Z   1
loop_
 _symmetry_equiv_pos_site_id
 _symmetry_equiv_pos_as_xyz
  1  'x, y, z'
loop_
 _atom_site_type_symbol
 _atom_site_label
 _atom_site_symmetry_multiplicity
 _atom_site_fract_x
 _atom_site_fract_y
 _atom_site_fract_z
 _atom_site_occupancy
 _atom_site_hle17_bader_spin_density
 _atom_site_hle17_ddec_charge
 _atom_site_hle17_ddec_spin_density
 _atom_site_hle17_ddec_sum_bond_order
 _atom_site_hle17_magmom
 _atom_site_hse06_10hf_bader_spin_density
 _atom_site_hse06_10hf_ddec_charge
 _atom_site_hse06_10hf_ddec_spin_density
 _atom_site_hse06_10hf_ddec_sum_bond_order
 _atom_site_hse06_10hf_magmom
 _atom_site_hse06_bader_spin_density
 _atom_site_hse06_ddec_charge
 _atom_site_hse06_ddec_spin_density
 _atom_site_hse06_ddec_sum_bond_order
 _atom_site_hse06_magmom
 _atom_site_pbe_bader_spin_density
 _atom_site_pbe_cm5_charge
 _atom_site_pbe_ddec_charge
 _atom_site_pbe_ddec_spin_density
 _atom_site_pbe_ddec_sum_bond_order
 _atom_site_pbe_magmom
Ca  Ca0  1  0.00000091  0.00000177  0.49999981  1  0  1.558694  0  1.12751  0  0  1.433026  0  1.485018  0  0  1.474922  0  1.439004  0  0  0.883724  1.401488  0  1.517686  0
H  H1  1  0.17098347  0.31433406  0.48230673  1  0  0.425549  0  0.882155  0  0  0.391328  0  0.951607  0  0  0.403098  0  0.934405  0  0  0.290281  0.382995  0  0.96375  0
H  H2  1  0.82900628  0.68566385  0.51769483  1  0  0.425486  0  0.882241  0  0  0.391279  0  0.951676  0  0  0.403052  0  0.934469  0  0  0.290244  0.382943  0  0.963822  0
H  H3  1  0.93443858  0.39488743  0.42900154  1  0  0.426139  0  0.881068  0  0  0.393433  0  0.948166  0  0  0.40473  0  0.931748  0  0  0.292698  0.385425  0  0.95977  0
H  H4  1  0.06554732  0.60511183  0.57099938  1  0  0.426094  0  0.881125  0  0  0.393381  0  0.948232  0  0  0.404676  0  0.931815  0  0  0.292698  0.38537  0  0.959842  0
H  H5  1  0.83956898  0.26260290  0.72258846  1  0  0.084842  0  0.955164  0  0  0.087632  0  1.028045  0  0  0.092294  0  1.022821  0  0  0.121467  0.084225  0  1.031864  0
H  H6  1  0.16044088  0.73740083  0.27741134  1  0  0.084898  0  0.955126  0  0  0.087668  0  1.028042  0  0  0.092331  0  1.022815  0  0  0.121465  0.084259  0  1.031865  0
H  H7  1  0.11779395  0.60643908  0.96005814  1  0  0.108382  0  0.960691  0  0  0.115997  0  1.026031  0  0  0.120021  0  1.023983  0  0  0.106205  0.113161  0  1.027556  0
H  H8  1  0.88221243  0.39357585  0.03994588  1  0  0.108498  0  0.960627  0  0  0.116118  0  1.025943  0  0  0.120145  0  1.023892  0  0  0.106256  0.113283  0  1.02747  0
H  H9  1  0.09546014  0.51796008  0.76545550  1  0  0.105276  0  0.948898  0  0  0.115244  0  1.010535  0  0  0.118452  0  1.007967  0  0  0.114251  0.11284  0  1.012492  0
H  H10  1  0.90454023  0.48203934  0.23455000  1  0  0.105265  0  0.948867  0  0  0.115243  0  1.010481  0  0  0.118456  0  1.007918  0  0  0.114255  0.112837  0  1.01244  0
H  H11  1  0.49956050  0.16106555  0.36171441  1  0  0.050727  0  0.939817  0  0  0.058111  0  1.012624  0  0  0.060533  0  1.006557  0  0  0.135211  0.056131  0  1.01714  0
H  H12  1  0.50043522  0.83894083  0.63828304  1  0  0.050798  0  0.939886  0  0  0.058204  0  1.012665  0  0  0.060624  0  1.006609  0  0  0.13521  0.056223  0  1.01718  0
H  H13  1  0.92810631  0.92560515  0.13261493  1  0  0.110585  0  0.969535  0  0  0.126303  0  1.037927  0  0  0.12814  0  1.036095  0  0  0.109669  0.12486  0  1.039356  0
H  H14  1  0.07188844  0.07438158  0.86738827  1  0  0.110524  0  0.96954  0  0  0.126287  0  1.03791  0  0  0.128127  0  1.036078  0  0  0.109671  0.124843  0  1.039341  0
H  H15  1  0.75744486  0.08411272  0.02541644  1  0  0.092009  0  0.964429  0  0  0.111145  0  1.03134  0  0  0.111182  0  1.032324  0  0  0.098635  0.111019  0  1.030749  0
H  H16  1  0.24255973  0.91588113  0.97458242  1  0  0.091952  0  0.964477  0  0  0.111153  0  1.031346  0  0  0.111194  0  1.032327  0  0  0.098654  0.111025  0  1.030753  0
H  H17  1  0.71645254  0.86716264  0.08093670  1  0  0.088904  0  0.956926  0  0  0.109471  0  1.022788  0  0  0.109058  0  1.024518  0  0  0.098081  0.109685  0  1.021623  0
H  H18  1  0.28353398  0.13283523  0.91906519  1  0  0.088833  0  0.957052  0  0  0.10943  0  1.022904  0  0  0.109012  0  1.024654  0  0  0.098087  0.109643  0  1.021738  0
H  H19  1  0.23566293  0.20727269  0.25729462  1  0  0.11617  0  0.979353  0  0  0.133304  0  1.045958  0  0  0.134965  0  1.044742  0  0  0.113925  0.131964  0  1.046964  0
H  H20  1  0.76432998  0.79273647  0.74269850  1  0  0.116115  0  0.97943  0  0  0.133315  0  1.045962  0  0  0.134982  0  1.044743  0  0  0.113943  0.131972  0  1.046966  0
H  H21  1  0.29086634  0.02330310  0.17068609  1  0  0.093729  0  0.953506  0  0  0.111866  0  1.022405  0  0  0.112499  0  1.022482  0  0  0.1014  0.111296  0  1.022514  0
H  H22  1  0.70912954  0.97671030  0.82930540  1  0  0.093786  0  0.95337  0  0  0.111921  0  1.022272  0  0  0.112557  0  1.022348  0  0  0.101449  0.111349  0  1.022387  0
H  H23  1  0.31563356  0.24074838  0.10122796  1  0  0.083844  0  0.966685  0  0  0.102244  0  1.0355  0  0  0.102068  0  1.036957  0  0  0.093749  0.102308  0  1.034517  0
H  H24  1  0.68437352  0.75925813  0.89876494  1  0  0.083916  0  0.966533  0  0  0.102292  0  1.035392  0  0  0.102119  0  1.036853  0  0  0.093741  0.102353  0  1.034415  0
C  C25  1  0.46672950  0.38238107  0.72896776  1  0  -0.115506  0  3.719018  0  0  -0.091263  0  3.953756  0  0  -0.101916  0  3.975527  0  0  -0.009588  -0.084698  0  3.939401  0
C  C26  1  0.53327704  0.61761561  0.27103230  1  0  -0.115613  0  3.719337  0  0  -0.091327  0  3.954036  0  0  -0.101985  0  3.975818  0  0  -0.00953  -0.084761  0  3.93968  0
C  C27  1  0.67595634  0.33953593  0.77316153  1  0  0.116717  0  3.705383  0  0  0.083604  0  3.964371  0  0  0.091229  0  3.977801  0  0  0.055398  0.078737  0  3.955397  0
C  C28  1  0.32404988  0.66046496  0.22684237  1  0  0.116604  0  3.705437  0  0  0.083483  0  3.964432  0  0  0.091107  0  3.977864  0  0  0.055291  0.078616  0  3.955455  0
C  C29  1  0.48989954  0.47803132  0.94214410  1  0  0.162506  0  3.785464  0  0  0.160373  0  4.034615  0  0  0.1673  0  4.052401  0  0  0.113908  0.155842  0  4.022451  0
C  C30  1  0.51011575  0.52197106  0.05785875  1  0  0.162515  0  3.785395  0  0  0.160322  0  4.034626  0  0  0.167248  0  4.052411  0  0  0.113852  0.155788  0  4.022463  0
C  C31  1  0.27274942  0.53054150  0.90400709  1  0  -0.147222  0  3.711716  0  0  -0.165193  0  3.963162  0  0  -0.17156  0  3.981581  0  0  -0.083739  -0.161195  0  3.950813  0
C  C32  1  0.72726859  0.46946934  0.09599282  1  0  -0.147319  0  3.711813  0  0  -0.165315  0  3.963289  0  0  -0.171684  0  3.981709  0  0  -0.083747  -0.161318  0  3.950943  0
C  C33  1  0.26173546  0.48212652  0.79639588  1  0  -0.01512  0  3.706572  0  0  -0.041198  0  3.951379  0  0  -0.036578  0  3.968442  0  0  -0.061226  -0.043875  0  3.939804  0
C  C34  1  0.73826557  0.51787150  0.20360714  1  0  -0.015014  0  3.70682  0  0  -0.041068  0  3.951556  0  0  -0.036459  0  3.968637  0  0  -0.061233  -0.043747  0  3.939983  0
C  C35  1  0.46329997  0.31657100  0.61533875  1  0  0.696802  0  3.903005  0  0  0.637922  0  4.208254  0  0  0.673339  0  4.199052  0  0  0.226982  0.613879  0  4.213728  0
C  C36  1  0.53669328  0.68342273  0.38466295  1  0  0.697147  0  3.902969  0  0  0.638197  0  4.208313  0  0  0.673619  0  4.199103  0  0  0.227012  0.614151  0  4.213792  0
C  C37  1  0.64667946  0.08879594  0.29829282  1  0  0.413332  0  3.802475  0  0  0.336745  0  4.093276  0  0  0.365412  0  4.093237  0  0  0.188503  0.317474  0  4.092681  0
C  C38  1  0.35333324  0.91120502  0.70170959  1  0  0.413027  0  3.802195  0  0  0.336417  0  4.093028  0  0  0.365077  0  4.093  0  0  0.188421  0.317152  0  4.092423  0
C  C39  1  0.75703924  0.98216142  0.10362024  1  0  -0.170976  0  3.645481  0  0  -0.270263  0  3.886454  0  0  -0.266215  0  3.896377  0  0  -0.138594  -0.27273  0  3.87971  0
C  C40  1  0.24296364  0.01782539  0.89637873  1  0  -0.170813  0  3.645723  0  0  -0.270217  0  3.886713  0  0  -0.266182  0  3.896638  0  0  -0.138612  -0.272676  0  3.879964  0
C  C41  1  0.34316082  0.13978493  0.18055502  1  0  -0.179723  0  3.654568  0  0  -0.283263  0  3.906358  0  0  -0.279974  0  3.91719  0  0  -0.136657  -0.28518  0  3.899008  0
C  C42  1  0.65683270  0.86022284  0.81943905  1  0  -0.179689  0  3.654248  0  0  -0.283272  0  3.906101  0  0  -0.279998  0  3.916934  0  0  -0.136616  -0.28518  0  3.898748  0
N  N43  1  0.68919922  0.38538301  0.87643426  1  0  -0.356416  0  3.086078  0  0  -0.319321  0  3.355848  0  0  -0.331232  0  3.370075  0  0  -0.319311  -0.311225  0  3.346082  0
N  N44  1  0.31081201  0.61462495  0.12356321  1  0  -0.356368  0  3.085881  0  0  -0.319257  0  3.35568  0  0  -0.331167  0  3.369909  0  0  -0.319222  -0.311159  0  3.345908  0
N  N45  1  0.58559576  0.07136627  0.19794350  1  0  -0.091789  0  3.507011  0  0  0.014693  0  3.737419  0  0  -0.006748  0  3.764431  0  0  -0.281992  0.029128  0  3.718711  0
N  N46  1  0.41439761  0.92863447  0.80205567  1  0  -0.091662  0  3.507353  0  0  0.014855  0  3.737769  0  0  -0.006568  0  3.764778  0  0  -0.282002  0.029281  0  3.719055  0
O  O47  1  0.63579068  0.18088127  0.57827429  1  0  -0.712515  0  1.963376  0  0  -0.653077  0  2.218828  0  0  -0.681187  0  2.207756  0  0  -0.378274  -0.632991  0  2.225671  0
O  O48  1  0.36422333  0.81911689  0.42172402  1  0  -0.712644  0  1.963498  0  0  -0.653153  0  2.218963  0  0  -0.68126  0  2.207885  0  0  -0.378279  -0.63307  0  2.22581  0
O  O49  1  0.07433083  0.27939614  0.43714955  1  0  -0.913757  0  1.80373  0  0  -0.856707  0  1.995382  0  0  -0.87882  0  1.961785  0  0  -0.642797  -0.840606  0  2.018676  0
O  O50  1  0.92566809  0.72060326  0.56284409  1  0  -0.913669  0  1.803871  0  0  -0.85661  0  1.995452  0  0  -0.878744  0  1.961896  0  0  -0.642787  -0.840512  0  2.018756  0
O  O51  1  0.28218677  0.39953050  0.56533143  1  0  -0.649212  0  2.017347  0  0  -0.58175  0  2.238722  0  0  -0.608462  0  2.226839  0  0  -0.302315  -0.563109  0  2.2464  0
O  O52  1  0.71779115  0.60044624  0.43468998  1  0  -0.649382  0  2.017276  0  0  -0.581932  0  2.238702  0  0  -0.608649  0  2.226818  0  0  -0.302323  -0.563287  0  2.246377  0
O  O53  1  0.85150497  0.02991317  0.32059278  1  0  -0.602674  0  2.026418  0  0  -0.54393  0  2.279614  0  0  -0.569105  0  2.272333  0  0  -0.347757  -0.526134  0  2.28402  0
O  O54  1  0.14846679  0.97008875  0.67940580  1  0  -0.602583  0  2.02551  0  0  -0.543891  0  2.278744  0  0  -0.569073  0  2.271481  0  0  -0.347735  -0.52609  0  2.283143  0
