# generated using pymatgen
data_MnH10(C2N3)4
_symmetry_space_group_name_H-M   'P 1'
_cell_length_a   3.39239490
_cell_length_b   7.78933923
_cell_length_c   11.97723495
_cell_angle_alpha   103.09895340
_cell_angle_beta   95.24251358
_cell_angle_gamma   94.32216322
_symmetry_Int_Tables_number   1
_chemical_formula_structural   MnH10(C2N3)4
_chemical_formula_sum   'Mn1 H10 C8 N12'
_cell_volume   305.45840975
_cell_formula_units_Z   1
loop_
 _symmetry_equiv_pos_site_id
 _symmetry_equiv_pos_as_xyz
  1  'x, y, z'
loop_
 _atom_site_type_symbol
 _atom_site_label
 _atom_site_symmetry_multiplicity
 _atom_site_fract_x
 _atom_site_fract_y
 _atom_site_fract_z
 _atom_site_occupancy
 _atom_site_hle17_ddec_charge
 _atom_site_hle17_ddec_spin_density
 _atom_site_hle17_ddec_sum_bond_order
 _atom_site_hle17_magmom
 _atom_site_pbe_cm5_charge
 _atom_site_pbe_ddec_charge
 _atom_site_pbe_ddec_spin_density
 _atom_site_pbe_ddec_sum_bond_order
 _atom_site_pbe_magmom
Mn  Mn0  1  0.50000994  0.49999667  0.00000058  1  0.656389  1.235527  2.6931  1.19  0.666402  0.526586  1.155445  3.26048  1.107
H  H1  1  0.30743608  0.10207597  0.29197745  1  0.30837  0.000151  0.93752  0.0  0.292461  0.285633  0.000232  1.009969  0.0
H  H2  1  0.69256225  0.89792150  0.70802307  1  0.30838  0.00015  0.937534  0.0  0.292483  0.285661  0.000231  1.009945  0.0
H  H3  1  0.41628151  0.10413050  0.43884352  1  0.315441  -6.9e-05  0.94849  0.0  0.28571  0.281111  -0.000172  1.036255  0.0
H  H4  1  0.58371090  0.89586703  0.56115684  1  0.315444  -6.9e-05  0.948492  0.0  0.28572  0.281118  -0.000172  1.036247  0.0
H  H5  1  0.43078283  0.86320021  0.13734245  1  0.102515  0.000319  0.968946  0.001  0.11741  0.097007  -0.000133  1.049839  0.0
H  H6  1  0.56922437  0.13679716  0.86265746  1  0.102431  0.000319  0.969027  0.001  0.117367  0.096935  -0.000135  1.049903  0.0
H  H7  1  0.76858219  0.55218441  0.43509306  1  0.069697  -0.000445  0.93617  0.0  0.110019  0.079056  -0.000173  0.998265  0.0
H  H8  1  0.23141649  0.44781439  0.56490765  1  0.069707  -0.000445  0.936197  0.0  0.110017  0.079044  -0.000174  0.99831  0.0
H  H9  1  0.69436596  0.39389144  0.22852317  1  0.082058  6e-06  0.990871  0.0  0.112999  0.081362  -0.000382  1.068021  0.0
H  H10  1  0.30564489  0.60610858  0.77147804  1  0.082021  6e-06  0.990802  0.0  0.112973  0.081325  -0.000385  1.067932  0.0
C  C11  1  0.50296823  0.79202230  0.20339976  1  -0.030823  -0.029184  3.578031  -0.017  0.037544  -0.07132  -0.01872  3.838761  -0.009
C  C12  1  0.49703636  0.20797645  0.79660110  1  -0.030638  -0.029197  3.577944  -0.017  0.037594  -0.071188  -0.018707  3.838701  -0.009
C  C13  1  0.52635988  0.87990816  0.32165915  1  0.43796  0.001979  3.834437  0.004  0.229256  0.402778  -0.001858  4.09113  0.001
C  C14  1  0.47363882  0.12009059  0.67833988  1  0.437869  0.001981  3.834516  0.004  0.229224  0.4027  -0.001859  4.091185  0.001
C  C15  1  0.68722187  0.62269281  0.36849144  1  0.081227  0.004062  3.8123  0.004  0.034856  0.050313  -0.002633  4.068565  -0.001
C  C16  1  0.31278273  0.37730591  0.63150858  1  0.081181  0.004068  3.812339  0.004  0.034822  0.050276  -0.002632  4.068576  -0.001
C  C17  1  0.65038355  0.53329798  0.25374585  1  -0.019148  -0.013729  3.733422  -0.008  0.002684  -0.060466  -0.006785  4.002186  -0.002
C  C18  1  0.34962362  0.46669944  0.74625574  1  -0.019083  -0.013736  3.733448  -0.008  0.002722  -0.060391  -0.006785  4.002158  -0.002
N  N19  1  0.01000386  0.34273417  0.02534055  1  -0.461498  -0.011734  2.885734  -0.02  -0.280171  -0.41889  -0.008242  3.22227  -0.013
N  N20  1  0.98997439  0.65727674  0.97466039  1  -0.461492  -0.011742  2.885554  -0.02  -0.280204  -0.418953  -0.008243  3.222226  -0.013
N  N21  1  0.01622195  0.22936075  0.07966933  1  0.376942  0.004954  4.140431  0.009  0.104546  0.403228  0.001093  4.405322  0.003
N  N22  1  0.98376227  0.77064998  0.92032758  1  0.376971  0.004949  4.140645  0.008  0.104534  0.403243  0.001091  4.405479  0.003
N  N23  1  0.01544166  0.11794659  0.13013242  1  -0.348522  -0.027737  2.437745  -0.02  -0.149547  -0.328495  -0.003136  2.664562  -0.001
N  N24  1  0.98455851  0.88205737  0.86986402  1  -0.348537  -0.027698  2.437997  -0.02  -0.14952  -0.328519  -0.003121  2.664837  -0.001
N  N25  1  0.55858278  0.62032805  0.16925115  1  -0.200343  -0.02705  3.401882  -0.02  -0.334496  -0.131648  -0.020947  3.666002  -0.019
N  N26  1  0.44142840  0.37967331  0.83075108  1  -0.200426  -0.027049  3.402013  -0.02  -0.334505  -0.13171  -0.020935  3.666115  -0.019
N  N27  1  0.62597640  0.79344023  0.40474632  1  -0.379303  -0.019756  3.052151  -0.015  -0.316684  -0.323479  -0.015145  3.298602  -0.011
N  N28  1  0.37402192  0.20655724  0.59525419  1  -0.379244  -0.01976  3.052215  -0.015  -0.316662  -0.323444  -0.015131  3.298687  -0.011
N  N29  1  0.45365567  0.05128209  0.35322049  1  -0.66277  0.000463  3.131424  0.001  -0.579742  -0.609412  -0.000743  3.370279  0.0
N  N30  1  0.54633970  0.94871541  0.64677995  1  -0.662775  0.000464  3.13142  0.001  -0.579809  -0.609462  -0.000745  3.370245  0.0
