# generated using pymatgen
data_LaH6C7NO6
_symmetry_space_group_name_H-M   'P 1'
_cell_length_a   5.04864734
_cell_length_b   7.98267790
_cell_length_c   21.62985391
_cell_angle_alpha   90.00013499
_cell_angle_beta   90.65557509
_cell_angle_gamma   90.00002253
_symmetry_Int_Tables_number   1
_chemical_formula_structural   LaH6C7NO6
_chemical_formula_sum   'La4 H24 C28 N4 O24'
_cell_volume   871.66337461
_cell_formula_units_Z   4
loop_
 _symmetry_equiv_pos_site_id
 _symmetry_equiv_pos_as_xyz
  1  'x, y, z'
loop_
 _atom_site_type_symbol
 _atom_site_label
 _atom_site_symmetry_multiplicity
 _atom_site_fract_x
 _atom_site_fract_y
 _atom_site_fract_z
 _atom_site_occupancy
 _atom_site_hle17_bader_spin_density
 _atom_site_hle17_ddec_charge
 _atom_site_hle17_ddec_spin_density
 _atom_site_hle17_ddec_sum_bond_order
 _atom_site_hle17_magmom
 _atom_site_hse06_10hf_bader_spin_density
 _atom_site_hse06_10hf_ddec_charge
 _atom_site_hse06_10hf_ddec_spin_density
 _atom_site_hse06_10hf_ddec_sum_bond_order
 _atom_site_hse06_10hf_magmom
 _atom_site_hse06_bader_spin_density
 _atom_site_hse06_ddec_charge
 _atom_site_hse06_ddec_spin_density
 _atom_site_hse06_ddec_sum_bond_order
 _atom_site_hse06_magmom
 _atom_site_pbe_bader_spin_density
 _atom_site_pbe_cm5_charge
 _atom_site_pbe_ddec_charge
 _atom_site_pbe_ddec_spin_density
 _atom_site_pbe_ddec_sum_bond_order
 _atom_site_pbe_magmom
La  La0  1  0.00077112  0.67896514  0.78469055  1  0  2.141587  0  1.751764  0  0  2.025498  0  2.259119  0  0  2.127227  0  2.161211  0  0  1.42608  1.948837  0  2.32775  0
La  La1  1  0.99923394  0.17896867  0.71531220  1  0  2.141627  0  1.751745  0  0  2.025537  0  2.259099  0  0  2.12726  0  2.161198  0  0  1.426138  1.948886  0  2.327737  0
La  La2  1  0.99923337  0.32103719  0.21531211  1  0  2.141601  0  1.751832  0  0  2.025515  0  2.259179  0  0  2.127234  0  2.161281  0  0  1.42611  1.948844  0  2.327839  0
La  La3  1  0.00077055  0.82103492  0.28469046  1  0  2.141605  0  1.751781  0  0  2.025495  0  2.259147  0  0  2.127217  0  2.16125  0  0  1.426093  1.948834  0  2.327787  0
H  H4  1  0.12065677  0.54755483  0.53753054  1  0  0.070339  0  0.970441  0  0  0.079023  0  1.038602  0  0  0.08153  0  1.036746  0  0  0.112132  0.077183  0  1.039989  0
H  H5  1  0.87934641  0.04755114  0.96246839  1  0  0.070324  0  0.970376  0  0  0.079019  0  1.038543  0  0  0.081527  0  1.036687  0  0  0.112126  0.077176  0  1.039932  0
H  H6  1  0.87934397  0.45245001  0.46246794  1  0  0.070298  0  0.970392  0  0  0.078987  0  1.038577  0  0  0.081495  0  1.03672  0  0  0.112125  0.077139  0  1.039973  0
H  H7  1  0.12065826  0.95244743  0.03753058  1  0  0.070331  0  0.970394  0  0  0.079015  0  1.038549  0  0  0.081522  0  1.036693  0  0  0.112138  0.077175  0  1.039937  0
H  H8  1  0.40854127  0.61031229  0.62812426  1  0  0.127032  0  0.938312  0  0  0.135639  0  0.998208  0  0  0.139341  0  0.996379  0  0  0.122514  0.132892  0  0.999798  0
H  H9  1  0.59145796  0.11031296  0.87187517  1  0  0.127018  0  0.938393  0  0  0.135623  0  0.998297  0  0  0.139324  0  0.996468  0  0  0.122507  0.132875  0  0.999896  0
H  H10  1  0.59145744  0.38968753  0.37187514  1  0  0.12697  0  0.938382  0  0  0.135587  0  0.99827  0  0  0.139289  0  0.996441  0  0  0.122482  0.132836  0  0.999869  0
H  H11  1  0.40854869  0.88968561  0.12812381  1  0  0.127011  0  0.938379  0  0  0.13562  0  0.998278  0  0  0.139321  0  0.996449  0  0  0.122502  0.132874  0  0.99987  0
H  H12  1  0.87753537  0.92153209  0.50865925  1  0  0.103583  0  0.977887  0  0  0.112711  0  1.040379  0  0  0.116272  0  1.038385  0  0  0.107709  0.11017  0  1.041913  0
H  H13  1  0.12246602  0.42152965  0.99134138  1  0  0.103632  0  0.977818  0  0  0.112693  0  1.040377  0  0  0.116255  0  1.038386  0  0  0.107703  0.110145  0  1.04192  0
H  H14  1  0.12246719  0.07847024  0.49134248  1  0  0.10365  0  0.977802  0  0  0.11271  0  1.040361  0  0  0.116273  0  1.038368  0  0  0.107721  0.110155  0  1.041924  0
H  H15  1  0.87753472  0.57846892  0.00865710  1  0  0.103603  0  0.977846  0  0  0.112734  0  1.04033  0  0  0.116295  0  1.038339  0  0  0.10775  0.110194  0  1.041859  0
H  H16  1  0.57710674  0.83731692  0.42082669  1  0  0.091557  0  0.929144  0  0  0.099564  0  0.991839  0  0  0.102371  0  0.989809  0  0  0.129795  0.097478  0  0.993452  0
H  H17  1  0.42289731  0.33731443  0.07917358  1  0  0.091605  0  0.929139  0  0  0.099629  0  0.991804  0  0  0.102429  0  0.989782  0  0  0.129832  0.097536  0  0.993417  0
H  H18  1  0.42290183  0.16268666  0.57917368  1  0  0.091582  0  0.92915  0  0  0.099599  0  0.991828  0  0  0.102395  0  0.989812  0  0  0.129821  0.097501  0  0.993451  0
H  H19  1  0.57710338  0.66268665  0.92082582  1  0  0.091585  0  0.929172  0  0  0.099597  0  0.991848  0  0  0.102399  0  0.989823  0  0  0.129803  0.097505  0  0.993457  0
H  H20  1  0.15381617  0.85006480  0.91406166  1  0  0.381071  0  0.947353  0  0  0.337398  0  1.03266  0  0  0.349795  0  1.015381  0  0  0.280048  0.328645  0  1.044817  0
H  H21  1  0.84618922  0.35006496  0.58593708  1  0  0.381033  0  0.947414  0  0  0.337354  0  1.032722  0  0  0.349749  0  1.015447  0  0  0.280015  0.328592  0  1.044892  0
H  H22  1  0.84618452  0.14993503  0.08593775  1  0  0.381053  0  0.947386  0  0  0.337377  0  1.032696  0  0  0.349772  0  1.01542  0  0  0.280027  0.328607  0  1.044879  0
H  H23  1  0.15381744  0.64993738  0.41406190  1  0  0.381026  0  0.947422  0  0  0.337354  0  1.032723  0  0  0.349749  0  1.015447  0  0  0.280026  0.328595  0  1.044889  0
H  H24  1  0.07554575  0.98891527  0.86199903  1  0  0.414587  0  0.887498  0  0  0.384424  0  0.955884  0  0  0.395253  0  0.940316  0  0  0.297848  0.376629  0  0.967062  0
H  H25  1  0.92445176  0.48891453  0.63800071  1  0  0.41461  0  0.887498  0  0  0.384454  0  0.95586  0  0  0.395286  0  0.94029  0  0  0.297862  0.376659  0  0.967038  0
H  H26  1  0.92444897  0.01108330  0.13800081  1  0  0.414625  0  0.887451  0  0  0.384465  0  0.955832  0  0  0.395296  0  0.940262  0  0  0.29785  0.376669  0  0.967008  0
H  H27  1  0.07554693  0.51108655  0.36199915  1  0  0.41461  0  0.88751  0  0  0.384453  0  0.955863  0  0  0.395285  0  0.940291  0  0  0.297867  0.376656  0  0.967044  0
C  C28  1  0.28991458  0.63077753  0.53245508  1  0  0.118124  0  3.727259  0  0  0.085973  0  3.986621  0  0  0.090798  0  4.005113  0  0  0.04302  0.082884  0  3.974063  0
C  C29  1  0.71008658  0.13077634  0.96754576  1  0  0.118204  0  3.727062  0  0  0.08604  0  3.986413  0  0  0.090866  0  4.004904  0  0  0.043069  0.082968  0  3.973842  0
C  C30  1  0.71008804  0.36922605  0.46754526  1  0  0.118252  0  3.72707  0  0  0.086061  0  3.986465  0  0  0.090887  0  4.004955  0  0  0.043035  0.082987  0  3.973896  0
C  C31  1  0.28991805  0.86922098  0.03245413  1  0  0.118249  0  3.72724  0  0  0.08613  0  3.986576  0  0  0.09096  0  4.005071  0  0  0.043042  0.083043  0  3.974019  0
C  C32  1  0.45167351  0.66537889  0.58331751  1  0  -0.113766  0  3.681414  0  0  -0.135972  0  3.930351  0  0  -0.139952  0  3.948865  0  0  -0.073027  -0.133512  0  3.91828  0
C  C33  1  0.54832182  0.16537858  0.91668148  1  0  -0.11384  0  3.681392  0  0  -0.136054  0  3.930339  0  0  -0.140035  0  3.948852  0  0  -0.073068  -0.133605  0  3.918273  0
C  C34  1  0.54831926  0.33462344  0.41668186  1  0  -0.113769  0  3.681414  0  0  -0.135997  0  3.930368  0  0  -0.139978  0  3.948882  0  0  -0.073036  -0.133537  0  3.918295  0
C  C35  1  0.45168087  0.83462250  0.08331747  1  0  -0.11386  0  3.681454  0  0  -0.136117  0  3.930422  0  0  -0.140098  0  3.948935  0  0  -0.073063  -0.133659  0  3.918355  0
C  C36  1  0.66669177  0.77319108  0.57534991  1  0  -0.022481  0  3.732753  0  0  -0.003181  0  3.964829  0  0  -0.005328  0  3.983043  0  0  0.00483  -0.001776  0  3.952753  0
C  C37  1  0.33330750  0.27318952  0.92465104  1  0  -0.022449  0  3.732714  0  0  -0.003108  0  3.964803  0  0  -0.005252  0  3.983017  0  0  0.004868  -0.001707  0  3.952715  0
C  C38  1  0.33330687  0.22681125  0.42465087  1  0  -0.022549  0  3.732761  0  0  -0.003185  0  3.964814  0  0  -0.005331  0  3.98303  0  0  0.004887  -0.001782  0  3.952728  0
C  C39  1  0.66669920  0.72680404  0.07534701  1  0  -0.022514  0  3.73279  0  0  -0.003161  0  3.964846  0  0  -0.005307  0  3.983057  0  0  0.004884  -0.001766  0  3.952781  0
C  C40  1  0.71213441  0.83770559  0.51641355  1  0  -0.123152  0  3.73128  0  0  -0.146788  0  3.983918  0  0  -0.151895  0  4.004541  0  0  -0.076363  -0.143469  0  3.970143  0
C  C41  1  0.28786296  0.33770189  0.98358699  1  0  -0.123095  0  3.7311  0  0  -0.14669  0  3.98376  0  0  -0.1518  0  4.00438  0  0  -0.076334  -0.143372  0  3.969963  0
C  C42  1  0.28786421  0.16229800  0.48358770  1  0  -0.12305  0  3.731089  0  0  -0.146661  0  3.983752  0  0  -0.151769  0  4.004373  0  0  -0.076335  -0.143337  0  3.969959  0
C  C43  1  0.71213577  0.66229668  0.01641195  1  0  -0.123042  0  3.731187  0  0  -0.146712  0  3.983864  0  0  -0.151823  0  4.004487  0  0  -0.07639  -0.143395  0  3.970072  0
C  C44  1  0.54489241  0.79252383  0.46775802  1  0  0.130417  0  3.69871  0  0  0.100016  0  3.956543  0  0  0.105856  0  3.9728  0  0  0.056733  0.096189  0  3.945592  0
C  C45  1  0.45510957  0.29252104  0.03224314  1  0  0.130301  0  3.698549  0  0  0.099885  0  3.956368  0  0  0.105731  0  3.972623  0  0  0.056671  0.096076  0  3.945396  0
C  C46  1  0.45511413  0.20747975  0.53224327  1  0  0.130334  0  3.698697  0  0  0.099926  0  3.956496  0  0  0.10577  0  3.972759  0  0  0.056674  0.096118  0  3.945529  0
C  C47  1  0.54489312  0.70747628  0.96775582  1  0  0.130354  0  3.698583  0  0  0.099979  0  3.956398  0  0  0.105826  0  3.972656  0  0  0.05677  0.096169  0  3.945425  0
C  C48  1  0.84277328  0.81979343  0.62923464  1  0  0.694262  0  3.873734  0  0  0.644338  0  4.171582  0  0  0.680807  0  4.161933  0  0  0.240073  0.619181  0  4.177463  0
C  C49  1  0.15722803  0.31978898  0.87076590  1  0  0.694334  0  3.873342  0  0  0.644295  0  4.171383  0  0  0.68076  0  4.161737  0  0  0.240073  0.619151  0  4.177248  0
C  C50  1  0.15722536  0.18020890  0.37076614  1  0  0.694345  0  3.873496  0  0  0.644336  0  4.171473  0  0  0.680799  0  4.161826  0  0  0.240046  0.619182  0  4.177356  0
C  C51  1  0.84277266  0.68020709  0.12923351  1  0  0.694412  0  3.873549  0  0  0.644461  0  4.171401  0  0  0.680936  0  4.161731  0  0  0.240143  0.619297  0  4.1773  0
C  C52  1  0.49625717  0.37787433  0.72799436  1  0  0.943781  0  3.965341  0  0  0.882273  0  4.269982  0  0  0.927888  0  4.252136  0  0  0.265319  0.850434  0  4.281124  0
C  C53  1  0.50373826  0.87787836  0.77200574  1  0  0.943907  0  3.965137  0  0  0.882325  0  4.269876  0  0  0.927934  0  4.252031  0  0  0.265331  0.85049  0  4.281008  0
C  C54  1  0.50373956  0.62212048  0.27200503  1  0  0.943819  0  3.965077  0  0  0.88223  0  4.269827  0  0  0.927831  0  4.25199  0  0  0.265322  0.850417  0  4.280929  0
C  C55  1  0.49625644  0.12212146  0.22799456  1  0  0.943858  0  3.965138  0  0  0.882302  0  4.269857  0  0  0.927915  0  4.252012  0  0  0.265357  0.850458  0  4.280997  0
N  N56  1  0.33444963  0.69230057  0.47575024  1  0  -0.311229  0  3.199254  0  0  -0.245227  0  3.444628  0  0  -0.25894  0  3.461222  0  0  -0.304162  -0.235882  0  3.433351  0
N  N57  1  0.66555234  0.19229653  0.02424990  1  0  -0.311222  0  3.199224  0  0  -0.245205  0  3.444612  0  0  -0.258917  0  3.461202  0  0  -0.304124  -0.235872  0  3.433327  0
N  N58  1  0.66555302  0.30770552  0.52424964  1  0  -0.31125  0  3.199333  0  0  -0.245199  0  3.444692  0  0  -0.25891  0  3.461283  0  0  -0.3041  -0.235865  0  3.433404  0
N  N59  1  0.33445029  0.80770330  0.97575045  1  0  -0.311285  0  3.199263  0  0  -0.245311  0  3.444671  0  0  -0.259033  0  3.46127  0  0  -0.304186  -0.235978  0  3.433392  0
O  O60  1  0.89064592  0.70484216  0.66883131  1  0  -0.697881  0  2.028127  0  0  -0.641253  0  2.275591  0  0  -0.674285  0  2.266743  0  0  -0.343877  -0.617538  0  2.281  0
O  O61  1  0.10934534  0.20484371  0.83117047  1  0  -0.697895  0  2.028093  0  0  -0.641213  0  2.275613  0  0  -0.674241  0  2.266767  0  0  -0.343909  -0.617519  0  2.281034  0
O  O62  1  0.10934275  0.29515766  0.33117081  1  0  -0.697871  0  2.028099  0  0  -0.641214  0  2.275611  0  0  -0.674241  0  2.266761  0  0  -0.343889  -0.617504  0  2.28103  0
O  O63  1  0.89065137  0.79514985  0.16882938  1  0  -0.697969  0  2.028245  0  0  -0.641292  0  2.2757  0  0  -0.674325  0  2.266843  0  0  -0.343951  -0.617572  0  2.281115  0
O  O64  1  0.92757006  0.96914809  0.63132373  1  0  -0.66723  0  1.939051  0  0  -0.619696  0  2.185629  0  0  -0.652548  0  2.175962  0  0  -0.365017  -0.595854  0  2.191401  0
O  O65  1  0.07243333  0.46914861  0.86867696  1  0  -0.667325  0  1.938855  0  0  -0.619757  0  2.185511  0  0  -0.652612  0  2.175846  0  0  -0.365072  -0.595913  0  2.19128  0
O  O66  1  0.07243254  0.03085049  0.36867708  1  0  -0.667332  0  1.93896  0  0  -0.619784  0  2.185598  0  0  -0.652637  0  2.175931  0  0  -0.365064  -0.595943  0  2.191378  0
O  O67  1  0.92756939  0.53084620  0.13132154  1  0  -0.667325  0  1.938841  0  0  -0.619808  0  2.18545  0  0  -0.652664  0  2.175777  0  0  -0.365094  -0.595962  0  2.191229  0
O  O68  1  0.71926910  0.42822471  0.75127365  1  0  -0.805815  0  2.027919  0  0  -0.758731  0  2.291341  0  0  -0.796396  0  2.278449  0  0  -0.430568  -0.731085  0  2.299046  0
O  O69  1  0.28072436  0.92822853  0.74872694  1  0  -0.805852  0  2.027848  0  0  -0.758762  0  2.291337  0  0  -0.796424  0  2.278444  0  0  -0.43061  -0.731125  0  2.299048  0
O  O70  1  0.28072760  0.57176761  0.24872619  1  0  -0.80585  0  2.027903  0  0  -0.758734  0  2.29136  0  0  -0.796393  0  2.278467  0  0  -0.430616  -0.731099  0  2.299056  0
O  O71  1  0.71926843  0.07176879  0.25127196  1  0  -0.805851  0  2.027954  0  0  -0.758709  0  2.291323  0  0  -0.796371  0  2.278427  0  0  -0.430573  -0.731072  0  2.299035  0
O  O72  1  0.27363081  0.45501260  0.73564644  1  0  -0.80005  0  2.016829  0  0  -0.750864  0  2.280687  0  0  -0.7891  0  2.269234  0  0  -0.432132  -0.722851  0  2.287477  0
O  O73  1  0.72636255  0.95501789  0.76435649  1  0  -0.800073  0  2.016677  0  0  -0.750883  0  2.28062  0  0  -0.789114  0  2.269167  0  0  -0.432077  -0.722869  0  2.287402  0
O  O74  1  0.72636578  0.54498221  0.26435572  1  0  -0.800009  0  2.016646  0  0  -0.750825  0  2.280607  0  0  -0.789053  0  2.269156  0  0  -0.432079  -0.722821  0  2.287394  0
O  O75  1  0.27362807  0.04498694  0.23564610  1  0  -0.800039  0  2.0167  0  0  -0.750871  0  2.28062  0  0  -0.789105  0  2.269167  0  0  -0.432144  -0.722848  0  2.287394  0
O  O76  1  0.49340182  0.23828198  0.69676718  1  0  -0.79322  0  1.93751  0  0  -0.751656  0  2.191288  0  0  -0.788624  0  2.179869  0  0  -0.423024  -0.724472  0  2.197914  0
O  O77  1  0.50658958  0.73828120  0.80323232  1  0  -0.79324  0  1.937441  0  0  -0.751645  0  2.191244  0  0  -0.788611  0  2.179824  0  0  -0.42301  -0.72446  0  2.197868  0
O  O78  1  0.50659102  0.76171660  0.30323080  1  0  -0.793221  0  1.937417  0  0  -0.751628  0  2.191227  0  0  -0.788592  0  2.179808  0  0  -0.423006  -0.724451  0  2.197846  0
O  O79  1  0.49340314  0.26171737  0.19676797  1  0  -0.793252  0  1.937434  0  0  -0.751667  0  2.191219  0  0  -0.788634  0  2.179797  0  0  -0.423029  -0.724478  0  2.197844  0
O  O80  1  0.03585881  0.87393009  0.87625060  1  0  -0.881557  0  1.900747  0  0  -0.83351  0  2.114919  0  0  -0.860088  0  2.082399  0  0  -0.637963  -0.814088  0  2.137523  0
O  O81  1  0.96414459  0.37393052  0.62374861  1  0  -0.881556  0  1.900716  0  0  -0.833516  0  2.114832  0  0  -0.86009  0  2.082301  0  0  -0.637963  -0.814093  0  2.137453  0
O  O82  1  0.96413988  0.12606974  0.12374926  1  0  -0.881581  0  1.900686  0  0  -0.833545  0  2.114822  0  0  -0.860121  0  2.082291  0  0  -0.637948  -0.81411  0  2.137436  0
O  O83  1  0.03586206  0.62607182  0.37625036  1  0  -0.881562  0  1.900792  0  0  -0.833512  0  2.114898  0  0  -0.860089  0  2.082367  0  0  -0.637969  -0.814085  0  2.137508  0
