# generated using pymatgen
data_CdH4C2IN5
_symmetry_space_group_name_H-M   'P 1'
_cell_length_a   7.17387730
_cell_length_b   9.74578877
_cell_length_c   10.90035680
_cell_angle_alpha   89.99897195
_cell_angle_beta   109.86550723
_cell_angle_gamma   89.99852005
_symmetry_Int_Tables_number   1
_chemical_formula_structural   CdH4C2IN5
_chemical_formula_sum   'Cd4 H16 C8 I4 N20'
_cell_volume   716.74910537
_cell_formula_units_Z   4
loop_
 _symmetry_equiv_pos_site_id
 _symmetry_equiv_pos_as_xyz
  1  'x, y, z'
loop_
 _atom_site_type_symbol
 _atom_site_label
 _atom_site_symmetry_multiplicity
 _atom_site_fract_x
 _atom_site_fract_y
 _atom_site_fract_z
 _atom_site_occupancy
 _atom_site_hle17_bader_spin_density
 _atom_site_hle17_ddec_charge
 _atom_site_hle17_ddec_spin_density
 _atom_site_hle17_ddec_sum_bond_order
 _atom_site_hle17_magmom
 _atom_site_hse06_10hf_bader_spin_density
 _atom_site_hse06_10hf_ddec_charge
 _atom_site_hse06_10hf_ddec_spin_density
 _atom_site_hse06_10hf_ddec_sum_bond_order
 _atom_site_hse06_10hf_magmom
 _atom_site_hse06_bader_spin_density
 _atom_site_hse06_ddec_charge
 _atom_site_hse06_ddec_spin_density
 _atom_site_hse06_ddec_sum_bond_order
 _atom_site_hse06_magmom
 _atom_site_pbe_bader_spin_density
 _atom_site_pbe_cm5_charge
 _atom_site_pbe_ddec_charge
 _atom_site_pbe_ddec_spin_density
 _atom_site_pbe_ddec_sum_bond_order
 _atom_site_pbe_magmom
Cd  Cd0  1  0.28727881  0.07843201  0.85895424  1  0  0.902789  0  1.961427  0  0  0.719496  0  2.423754  0  0  0.765338  0  2.383296  0  0  0.676281  0.687532  0  2.451455  0
Cd  Cd1  1  0.71273530  0.57844738  0.64105357  1  0  0.902703  0  1.961428  0  0  0.719438  0  2.423772  0  0  0.765286  0  2.383317  0  0  0.676155  0.687472  0  2.451477  0
Cd  Cd2  1  0.71272622  0.92156092  0.14105352  1  0  0.902733  0  1.961301  0  0  0.719513  0  2.423551  0  0  0.765361  0  2.383095  0  0  0.676124  0.687544  0  2.451247  0
Cd  Cd3  1  0.28727860  0.42155581  0.35895519  1  0  0.902787  0  1.961363  0  0  0.719453  0  2.423768  0  0  0.765299  0  2.383308  0  0  0.676219  0.687482  0  2.451468  0
H  H4  1  0.09547544  0.31655575  0.94405641  1  0  0.307087  0  0.916448  0  0  0.291828  0  0.985653  0  0  0.298483  0  0.979919  0  0  0.283935  0.28654  0  0.990768  0
H  H5  1  0.90451965  0.81655805  0.55592802  1  0  0.30709  0  0.916424  0  0  0.291861  0  0.985617  0  0  0.298514  0  0.979883  0  0  0.283996  0.286577  0  0.990732  0
H  H6  1  0.90452641  0.68344128  0.05593966  1  0  0.307066  0  0.916336  0  0  0.29183  0  0.985553  0  0  0.298485  0  0.979815  0  0  0.283945  0.28655  0  0.990647  0
H  H7  1  0.09548066  0.18345027  0.44406497  1  0  0.307013  0  0.91639  0  0  0.291794  0  0.985576  0  0  0.298449  0  0.979842  0  0  0.283916  0.286491  0  0.990747  0
H  H8  1  0.05061674  0.35608344  0.08153174  1  0  0.296238  0  0.946595  0  0  0.280754  0  1.018087  0  0  0.288002  0  1.01168  0  0  0.270914  0.275382  0  1.022912  0
H  H9  1  0.94938407  0.85608853  0.41846006  1  0  0.296194  0  0.946707  0  0  0.280734  0  1.018178  0  0  0.287976  0  1.01178  0  0  0.270912  0.275361  0  1.023008  0
H  H10  1  0.94937329  0.64391872  0.91846361  1  0  0.296266  0  0.946874  0  0  0.280789  0  1.018318  0  0  0.288033  0  1.011915  0  0  0.270981  0.275416  0  1.023152  0
H  H11  1  0.05061785  0.14391671  0.58153970  1  0  0.296133  0  0.946717  0  0  0.280641  0  1.018218  0  0  0.287883  0  1.011821  0  0  0.270874  0.275269  0  1.023049  0
H  H12  1  0.70494394  0.03399398  0.42106032  1  0  0.317449  0  0.938169  0  0  0.297418  0  1.009847  0  0  0.304608  0  1.003927  0  0  0.28319  0.292436  0  1.013823  0
H  H13  1  0.29501955  0.53395614  0.07893448  1  0  0.317607  0  0.937533  0  0  0.297452  0  1.009424  0  0  0.304668  0  1.003505  0  0  0.283067  0.292441  0  1.013418  0
H  H14  1  0.29502691  0.96603281  0.57893547  1  0  0.31743  0  0.937873  0  0  0.297359  0  1.009656  0  0  0.30455  0  1.003743  0  0  0.283026  0.292364  0  1.013652  0
H  H15  1  0.70497057  0.46603062  0.92106547  1  0  0.317455  0  0.93783  0  0  0.297369  0  1.009628  0  0  0.304561  0  1.003712  0  0  0.283071  0.292371  0  1.013616  0
H  H16  1  0.59593885  0.16972172  0.47183735  1  0  0.323711  0  0.902505  0  0  0.306514  0  0.970011  0  0  0.31285  0  0.965017  0  0  0.293462  0.302201  0  0.973247  0
H  H17  1  0.40407641  0.66973849  0.02815634  1  0  0.323607  0  0.902449  0  0  0.306382  0  0.970037  0  0  0.312722  0  0.965038  0  0  0.293296  0.302066  0  0.973271  0
H  H18  1  0.40406591  0.83027121  0.52815660  1  0  0.323609  0  0.902552  0  0  0.306417  0  0.970091  0  0  0.312752  0  0.965088  0  0  0.293344  0.3021  0  0.973318  0
H  H19  1  0.59593148  0.33026162  0.97184653  1  0  0.323854  0  0.902378  0  0  0.30663  0  0.969917  0  0  0.312966  0  0.964921  0  0  0.293439  0.302314  0  0.973153  0
C  C20  1  0.30614194  0.25405216  0.11127043  1  0  0.58039  0  3.868417  0  0  0.528916  0  4.150928  0  0  0.554566  0  4.158957  0  0  0.305077  0.511271  0  4.145595  0
C  C21  1  0.69387650  0.75405936  0.38874129  1  0  0.580591  0  3.868505  0  0  0.52913  0  4.151058  0  0  0.554777  0  4.159097  0  0  0.305229  0.511478  0  4.145717  0
C  C22  1  0.69387595  0.74593872  0.88871534  1  0  0.580521  0  3.868526  0  0  0.529144  0  4.150959  0  0  0.554791  0  4.159001  0  0  0.305271  0.511493  0  4.14562  0
C  C23  1  0.30611953  0.24595614  0.61125902  1  0  0.580519  0  3.868847  0  0  0.529019  0  4.15139  0  0  0.554662  0  4.159432  0  0  0.305214  0.51138  0  4.14604  0
C  C24  1  0.52429004  0.15812923  0.27540220  1  0  0.61387  0  3.865879  0  0  0.55995  0  4.150346  0  0  0.587046  0  4.156746  0  0  0.310854  0.541795  0  4.145586  0
C  C25  1  0.47572663  0.65812506  0.22460828  1  0  0.613727  0  3.86526  0  0  0.559884  0  4.14972  0  0  0.586977  0  4.156129  0  0  0.310765  0.541721  0  4.144951  0
C  C26  1  0.47572711  0.84186883  0.72462195  1  0  0.61392  0  3.86511  0  0  0.559971  0  4.149719  0  0  0.587085  0  4.156105  0  0  0.311054  0.541817  0  4.144942  0
C  C27  1  0.52426824  0.34187299  0.77540829  1  0  0.613783  0  3.864975  0  0  0.559844  0  4.149543  0  0  0.58694  0  4.155951  0  0  0.310833  0.541681  0  4.144778  0
I  I28  1  0.88277970  0.07581201  0.76483810  1  0  -0.484026  0  1.055305  0  0  -0.431895  0  1.379103  0  0  -0.451881  0  1.357677  0  0  -0.233969  -0.418294  0  1.397945  0
I  I29  1  0.11721785  0.57581280  0.73515716  1  0  -0.484014  0  1.055405  0  0  -0.431885  0  1.379211  0  0  -0.451869  0  1.357787  0  0  -0.233977  -0.418285  0  1.398055  0
I  I30  1  0.11721472  0.92418604  0.23515544  1  0  -0.484006  0  1.055375  0  0  -0.431884  0  1.379177  0  0  -0.451869  0  1.35775  0  0  -0.233976  -0.418292  0  1.398017  0
I  I31  1  0.88278397  0.42418321  0.26483707  1  0  -0.484013  0  1.05535  0  0  -0.431883  0  1.379195  0  0  -0.451866  0  1.357765  0  0  -0.233969  -0.418293  0  1.39804  0
N  N32  1  0.39748718  0.16164022  0.06145359  1  0  -0.420513  0  3.171903  0  0  -0.349603  0  3.460857  0  0  -0.369909  0  3.473877  0  0  -0.307582  -0.335437  0  3.451004  0
N  N33  1  0.60249820  0.66163043  0.43853518  1  0  -0.420741  0  3.172227  0  0  -0.349789  0  3.461165  0  0  -0.370107  0  3.474193  0  0  -0.307489  -0.335612  0  3.451303  0
N  N34  1  0.60247610  0.83836707  0.93853230  1  0  -0.420848  0  3.171526  0  0  -0.349943  0  3.46043  0  0  -0.370265  0  3.473465  0  0  -0.307477  -0.335761  0  3.450566  0
N  N35  1  0.39749467  0.33835839  0.56145436  1  0  -0.420571  0  3.172283  0  0  -0.349633  0  3.461228  0  0  -0.369939  0  3.474258  0  0  -0.307523  -0.335463  0  3.451366  0
N  N36  1  0.53985723  0.09894005  0.16839794  1  0  -0.415476  0  3.155184  0  0  -0.346841  0  3.450499  0  0  -0.368508  0  3.463659  0  0  -0.310461  -0.331971  0  3.440965  0
N  N37  1  0.46011887  0.59893490  0.33160191  1  0  -0.415205  0  3.155334  0  0  -0.346594  0  3.450627  0  0  -0.368248  0  3.463788  0  0  -0.310424  -0.331725  0  3.441091  0
N  N38  1  0.46011534  0.90108366  0.83161014  1  0  -0.41533  0  3.155415  0  0  -0.346673  0  3.45076  0  0  -0.36834  0  3.463931  0  0  -0.310654  -0.331811  0  3.441225  0
N  N39  1  0.53986071  0.40105700  0.66838751  1  0  -0.41531  0  3.154571  0  0  -0.346677  0  3.449892  0  0  -0.36834  0  3.463048  0  0  -0.310443  -0.331804  0  3.440358  0
N  N40  1  0.15870000  0.34249593  0.04022264  1  0  -0.700483  0  3.085173  0  0  -0.657291  0  3.302318  0  0  -0.675139  0  3.295359  0  0  -0.588373  -0.644406  0  3.307195  0
N  N41  1  0.84131518  0.84250840  0.45977239  1  0  -0.700401  0  3.085181  0  0  -0.657318  0  3.302276  0  0  -0.675161  0  3.295313  0  0  -0.588448  -0.644429  0  3.307163  0
N  N42  1  0.84131955  0.65749084  0.95977267  1  0  -0.700442  0  3.08532  0  0  -0.657331  0  3.302383  0  0  -0.675177  0  3.295418  0  0  -0.58842  -0.644438  0  3.307266  0
N  N43  1  0.15869270  0.15749274  0.54023048  1  0  -0.700281  0  3.085208  0  0  -0.65715  0  3.302354  0  0  -0.674995  0  3.295398  0  0  -0.588333  -0.644265  0  3.307226  0
N  N44  1  0.38210007  0.25785468  0.24341115  1  0  -0.617846  0  3.088545  0  0  -0.532808  0  3.365587  0  0  -0.560107  0  3.371468  0  0  -0.389058  -0.514081  0  3.361748  0
N  N45  1  0.61794243  0.75786935  0.25661741  1  0  -0.617963  0  3.088293  0  0  -0.533097  0  3.365515  0  0  -0.560384  0  3.371382  0  0  -0.389345  -0.5144  0  3.361755  0
N  N46  1  0.61793770  0.74212798  0.75661103  1  0  -0.617647  0  3.0889  0  0  -0.532772  0  3.366113  0  0  -0.560058  0  3.371973  0  0  -0.389362  -0.514087  0  3.362361  0
N  N47  1  0.38208915  0.24213383  0.74338967  1  0  -0.61801  0  3.088673  0  0  -0.532981  0  3.365759  0  0  -0.560267  0  3.371633  0  0  -0.389228  -0.514278  0  3.36198  0
N  N48  1  0.63777003  0.12807551  0.39985969  1  0  -0.703189  0  3.097423  0  0  -0.666368  0  3.334565  0  0  -0.68528  0  3.328914  0  0  -0.594152  -0.652868  0  3.337762  0
N  N49  1  0.36220544  0.62808411  0.10013320  1  0  -0.703239  0  3.096356  0  0  -0.6663  0  3.333565  0  0  -0.685259  0  3.327857  0  0  -0.593808  -0.652764  0  3.336802  0
N  N50  1  0.36223049  0.87191947  0.60014435  1  0  -0.703239  0  3.096838  0  0  -0.666364  0  3.334037  0  0  -0.685289  0  3.328386  0  0  -0.593973  -0.652846  0  3.337226  0
N  N51  1  0.63778625  0.37192010  0.89987168  1  0  -0.70335  0  3.096736  0  0  -0.666452  0  3.333913  0  0  -0.685372  0  3.328262  0  0  -0.594001  -0.652933  0  3.337124  0
