# generated using pymatgen
data_ZnH10C14N2O3
_symmetry_space_group_name_H-M   'P 1'
_cell_length_a   6.94504132
_cell_length_b   11.79994110
_cell_length_c   14.65480000
_cell_angle_alpha   90.00000000
_cell_angle_beta   90.00000000
_cell_angle_gamma   102.41039493
_symmetry_Int_Tables_number   1
_chemical_formula_structural   ZnH10C14N2O3
_chemical_formula_sum   'Zn4 H40 C56 N8 O12'
_cell_volume   1172.91380846
_cell_formula_units_Z   4
loop_
 _symmetry_equiv_pos_site_id
 _symmetry_equiv_pos_as_xyz
  1  'x, y, z'
loop_
 _atom_site_type_symbol
 _atom_site_label
 _atom_site_symmetry_multiplicity
 _atom_site_fract_x
 _atom_site_fract_y
 _atom_site_fract_z
 _atom_site_occupancy
 _atom_site_hle17_bader_spin_density
 _atom_site_hle17_ddec_charge
 _atom_site_hle17_ddec_spin_density
 _atom_site_hle17_ddec_sum_bond_order
 _atom_site_hle17_magmom
 _atom_site_hse06_10hf_bader_spin_density
 _atom_site_hse06_10hf_ddec_charge
 _atom_site_hse06_10hf_ddec_spin_density
 _atom_site_hse06_10hf_ddec_sum_bond_order
 _atom_site_hse06_10hf_magmom
 _atom_site_hse06_bader_spin_density
 _atom_site_hse06_ddec_charge
 _atom_site_hse06_ddec_spin_density
 _atom_site_hse06_ddec_sum_bond_order
 _atom_site_hse06_magmom
 _atom_site_pbe_bader_charge
 _atom_site_pbe_bader_spin_density
 _atom_site_pbe_cm5_charge
 _atom_site_pbe_ddec_charge
 _atom_site_pbe_ddec_spin_density
 _atom_site_pbe_ddec_sum_bond_order
 _atom_site_pbe_magmom
Zn  Zn0  1  0.38693504  0.86739701  0.03405574  1  0  1.017721  0  1.862379  0  0  0.831682  0  2.324294  0  0  0.878661  0  2.269975  0  1.290135  0  0.690472  0.799006  0  2.361476  0
Zn  Zn1  1  0.11306658  0.63260272  0.53405505  1  0  1.017732  0  1.862359  0  0  0.831695  0  2.324266  0  0  0.878679  0  2.269947  0  1.290133  0  0.690462  0.799016  0  2.361446  0
Zn  Zn2  1  0.61306708  0.13260339  0.96594563  1  0  1.017712  0  1.862359  0  0  0.831689  0  2.324261  0  0  0.878669  0  2.269941  0  1.290108  0  0.69046  0.799009  0  2.361443  0
Zn  Zn3  1  0.88693059  0.36739594  0.46594631  1  0  1.017713  0  1.862413  0  0  0.831685  0  2.32433  0  0  0.878673  0  2.270007  0  1.290113  0  0.690449  0.799008  0  2.361509  0
H  H4  1  0.56684817  0.21248561  0.18662759  1  0  0.124941  0  0.968336  0  0  0.133089  0  1.02858  0  0  0.137106  0  1.027125  0  0.124492  0  0.10401  0.130247  0  1.029739  0
H  H5  1  0.93315270  0.28751458  0.68662622  1  0  0.124884  0  0.968361  0  0  0.133067  0  1.028571  0  0  0.137087  0  1.027108  0  0.124526  0  0.104004  0.130226  0  1.029729  0
H  H6  1  0.43315827  0.78751478  0.81337378  1  0  0.12491  0  0.968396  0  0  0.13309  0  1.028605  0  0  0.137117  0  1.027114  0  0.124549  0  0.104022  0.130253  0  1.029766  0
H  H7  1  0.06684415  0.71248321  0.31337241  1  0  0.124883  0  0.968402  0  0  0.133071  0  1.028601  0  0  0.137093  0  1.027135  0  0.124511  0  0.104013  0.130229  0  1.029756  0
H  H8  1  0.36024352  0.30361980  0.28737820  1  0  0.090572  0  0.97386  0  0  0.101718  0  1.036953  0  0  0.103966  0  1.035174  0  0.096791  0  0.101516  0.100045  0  1.03824  0
H  H9  1  0.13975898  0.19638040  0.78737547  1  0  0.09058  0  0.973821  0  0  0.101737  0  1.036903  0  0  0.103974  0  1.035137  0  0.097734  0  0.101511  0.100062  0  1.038192  0
H  H10  1  0.63976692  0.69637973  0.71262453  1  0  0.090597  0  0.973849  0  0  0.101737  0  1.036945  0  0  0.103963  0  1.035196  0  0.097754  0  0.101507  0.100087  0  1.038204  0
H  H11  1  0.86023707  0.80361913  0.21262249  1  0  0.090611  0  0.973804  0  0  0.101732  0  1.036922  0  0  0.103958  0  1.035172  0  0.096805  0  0.101508  0.100076  0  1.038189  0
H  H12  1  0.84365584  0.05807857  0.20063392  1  0  0.110762  0  0.93333  0  0  0.120332  0  0.995939  0  0  0.124387  0  0.992192  0  0.122032  0  0.108198  0.1172  0  0.998885  0
H  H13  1  0.65634647  0.44192162  0.70063256  1  0  0.110738  0  0.933339  0  0  0.120312  0  0.995944  0  0  0.124364  0  0.992202  0  0.122023  0  0.108186  0.117181  0  0.99889  0
H  H14  1  0.15634980  0.94192356  0.79936744  1  0  0.110756  0  0.933298  0  0  0.1203  0  0.995936  0  0  0.124371  0  0.99217  0  0.121958  0  0.108183  0.117168  0  0.99888  0
H  H15  1  0.34365245  0.55807790  0.29936744  1  0  0.110714  0  0.933317  0  0  0.120287  0  0.995932  0  0  0.124342  0  0.992185  0  0.121978  0  0.10818  0.117156  0  0.998877  0
H  H16  1  0.85269726  0.91658474  0.09942476  1  0  0.083719  0  0.952832  0  0  0.094676  0  1.019156  0  0  0.097884  0  1.014264  0  0.098364  0  0.118356  0.092213  0  1.022822  0
H  H17  1  0.64730480  0.58341672  0.59942613  1  0  0.083709  0  0.952839  0  0  0.094671  0  1.019174  0  0  0.097873  0  1.014279  0  0.098299  0  0.118354  0.092208  0  1.022839  0
H  H18  1  0.14730789  0.08342000  0.90057456  1  0  0.083668  0  0.952836  0  0  0.094678  0  1.019129  0  0  0.097885  0  1.014234  0  0.098277  0  0.118331  0.092215  0  1.022794  0
H  H19  1  0.35269237  0.41658194  0.40057592  1  0  0.083702  0  0.95282  0  0  0.09467  0  1.019157  0  0  0.097871  0  1.014261  0  0.098331  0  0.118342  0.092207  0  1.02282  0
H  H20  1  0.85041867  0.78361516  0.96339834  1  0  0.075681  0  0.966762  0  0  0.09225  0  1.032168  0  0  0.091271  0  1.034737  0  0.085865  0  0.108124  0.092833  0  1.030537  0
H  H21  1  0.64958163  0.71638543  0.46339834  1  0  0.075677  0  0.966745  0  0  0.092259  0  1.032134  0  0  0.091281  0  1.034704  0  0.085867  0  0.108137  0.092842  0  1.030504  0
H  H22  1  0.14957720  0.21638783  0.03660302  1  0  0.075658  0  0.966684  0  0  0.092249  0  1.032086  0  0  0.091272  0  1.034653  0  0.085902  0  0.108133  0.092832  0  1.030457  0
H  H23  1  0.35041635  0.28361150  0.53660029  1  0  0.075694  0  0.96676  0  0  0.09224  0  1.032165  0  0  0.091263  0  1.034733  0  0.085864  0  0.108106  0.092824  0  1.030534  0
H  H24  1  0.88242942  0.71181418  0.06628818  1  0  0.089994  0  0.926892  0  0  0.108557  0  0.989814  0  0  0.108293  0  0.990423  0  0.076065  0  0.115669  0.108688  0  0.98944  0
H  H25  1  0.61757152  0.78818814  0.56628750  1  0  0.090018  0  0.926865  0  0  0.108556  0  0.98982  0  0  0.108295  0  0.990431  0  0.076052  0  0.11567  0.108689  0  0.989444  0
H  H26  1  0.11757365  0.28818882  0.93371182  1  0  0.089968  0  0.926883  0  0  0.108539  0  0.989821  0  0  0.108276  0  0.990432  0  0.076034  0  0.115668  0.108672  0  0.989443  0
H  H27  1  0.38243029  0.21181138  0.43371046  1  0  0.089973  0  0.926944  0  0  0.108539  0  0.989838  0  0  0.108276  0  0.990448  0  0.076037  0  0.115661  0.108669  0  0.989463  0
H  H28  1  0.81600800  0.57876391  0.89444619  1  0  0.106259  0  0.93882  0  0  0.119716  0  0.994297  0  0  0.122328  0  0.994576  0  0.051398  0  0.107719  0.117828  0  0.994286  0
H  H29  1  0.68398879  0.92123495  0.39444551  1  0  0.106278  0  0.938833  0  0  0.119734  0  0.994307  0  0  0.122347  0  0.994586  0  0.051425  0  0.107735  0.117845  0  0.994297  0
H  H30  1  0.18398851  0.42124082  0.10555176  1  0  0.106294  0  0.938807  0  0  0.119718  0  0.994316  0  0  0.12233  0  0.994596  0  0.051462  0  0.107713  0.117829  0  0.994305  0
H  H31  1  0.31600967  0.07875937  0.60555245  1  0  0.106301  0  0.938806  0  0  0.119705  0  0.994344  0  0  0.122317  0  0.994623  0  0.05142  0  0.107711  0.117815  0  0.994333  0
H  H32  1  0.00174862  0.43917350  0.82974657  1  0  0.112663  0  0.96091  0  0  0.123101  0  1.020421  0  0  0.125771  0  1.018504  0  0.173267  0  0.110129  0.121091  0  1.021883  0
H  H33  1  0.49824749  0.06082496  0.32974589  1  0  0.112646  0  0.960933  0  0  0.123133  0  1.020391  0  0  0.125783  0  1.018496  0  0.173114  0  0.110149  0.121122  0  1.021854  0
H  H34  1  0.99824739  0.56083384  0.17024934  1  0  0.11267  0  0.960998  0  0  0.123167  0  1.020454  0  0  0.125788  0  1.018594  0  0.173088  0  0.110158  0.121154  0  1.021921  0
H  H35  1  0.50175193  0.93917196  0.67025480  1  0  0.112645  0  0.960985  0  0  0.12309  0  1.02049  0  0  0.125759  0  1.018574  0  0.173064  0  0.110138  0.121079  0  1.021956  0
H  H36  1  0.36676759  0.46974651  0.86287564  1  0  0.098734  0  0.98001  0  0  0.107212  0  1.042975  0  0  0.109235  0  1.04434  0  0.074363  0  0.101447  0.105739  0  1.042164  0
H  H37  1  0.13322852  0.03025195  0.36287633  1  0  0.098721  0  0.980022  0  0  0.10718  0  1.043003  0  0  0.109202  0  1.04437  0  0.074386  0  0.101438  0.105711  0  1.042195  0
H  H38  1  0.63322428  0.53025735  0.13711890  1  0  0.098688  0  0.98006  0  0  0.107148  0  1.043034  0  0  0.10917  0  1.0444  0  0.074281  0  0.101406  0.105676  0  1.042222  0
H  H39  1  0.86677296  0.96974671  0.63712708  1  0  0.098668  0  0.980022  0  0  0.107141  0  1.042999  0  0  0.109162  0  1.044365  0  0.074332  0  0.101413  0.10567  0  1.042189  0
H  H40  1  0.52629740  0.64329498  0.95579674  1  0  0.0662  0  0.950593  0  0  0.074932  0  1.017663  0  0  0.077177  0  1.015893  0  0.045315  0  0.111465  0.073213  0  1.019056  0
H  H41  1  0.97370051  0.85670300  0.45579742  1  0  0.066189  0  0.950606  0  0  0.074919  0  1.017678  0  0  0.077164  0  1.015907  0  0.045299  0  0.111459  0.073199  0  1.019072  0
H  H42  1  0.47370184  0.35670541  0.04420258  1  0  0.066195  0  0.95058  0  0  0.074933  0  1.017637  0  0  0.077178  0  1.015867  0  0.045293  0  0.111455  0.073214  0  1.019031  0
H  H43  1  0.02629809  0.14329565  0.54420326  1  0  0.066174  0  0.95062  0  0  0.074947  0  1.017645  0  0  0.077194  0  1.015871  0  0.045309  0  0.111455  0.073227  0  1.019038  0
C  C44  1  0.11727995  0.03906383  0.13815883  1  0  -0.112611  0  3.787188  0  0  -0.091872  0  4.030149  0  0  -0.10555  0  4.056941  0  -0.053537  0  -0.033364  -0.082948  0  4.012018  0
C  C45  1  0.38272160  0.46093376  0.63815746  1  0  -0.11256  0  3.78718  0  0  -0.091867  0  4.030196  0  0  -0.105544  0  4.056984  0  -0.053565  0  -0.033369  -0.082943  0  4.012065  0
C  C46  1  0.88272505  0.96093656  0.86184322  1  0  -0.112612  0  3.787352  0  0  -0.091847  0  4.030287  0  0  -0.105517  0  4.057072  0  -0.05367  0  -0.033354  -0.082922  0  4.012152  0
C  C47  1  0.61727638  0.53906316  0.36184254  1  0  -0.112629  0  3.787402  0  0  -0.091877  0  4.030355  0  0  -0.105545  0  4.057133  0  -0.053678  0  -0.033353  -0.082953  0  4.012223  0
C  C48  1  0.32475899  0.08734564  0.12933715  1  0  0.355069  0  3.821505  0  0  0.335268  0  4.07455  0  0  0.353888  0  4.08815  0  0.687988  0  0.093673  0.322703  0  4.065006  0
C  C49  1  0.17524143  0.41265282  0.62933510  1  0  0.355005  0  3.821573  0  0  0.335218  0  4.074616  0  0  0.353836  0  4.088213  0  0.687931  0  0.093648  0.322655  0  4.06507  0
C  C50  1  0.67524745  0.91265475  0.87066695  1  0  0.355017  0  3.821664  0  0  0.3352  0  4.074707  0  0  0.353813  0  4.088307  0  0.688353  0  0.093644  0.322641  0  4.06516  0
C  C51  1  0.82475398  0.58734497  0.37066627  1  0  0.355036  0  3.821627  0  0  0.335219  0  4.074674  0  0  0.353833  0  4.088272  0  0.68836  0  0.093672  0.322658  0  4.065126  0
C  C52  1  0.40761952  0.18164534  0.18652728  1  0  -0.220223  0  3.748176  0  0  -0.236172  0  4.007219  0  0  -0.246087  0  4.025533  0  -0.081149  0  -0.11218  -0.229723  0  3.994897  0
C  C53  1  0.09238474  0.31835573  0.68652660  1  0  -0.220125  0  3.748232  0  0  -0.236097  0  4.00726  0  0  -0.24601  0  4.025572  0  -0.081318  0  -0.112175  -0.229649  0  3.994934  0
C  C54  1  0.59238836  0.81835506  0.81347613  1  0  -0.220157  0  3.748164  0  0  -0.236136  0  4.007199  0  0  -0.246044  0  4.025515  0  -0.081767  0  -0.112194  -0.229697  0  3.994885  0
C  C55  1  0.90761419  0.68164380  0.31347477  1  0  -0.220053  0  3.748107  0  0  -0.236037  0  4.007149  0  0  -0.245949  0  4.025455  0  -0.081605  0  -0.112162  -0.229585  0  3.994824  0
C  C56  1  0.29135596  0.23068989  0.24466864  1  0  -0.024811  0  3.740553  0  0  -0.053363  0  3.995441  0  0  -0.046998  0  4.012728  0  -0.117236  0  -0.080685  -0.057061  0  3.983392  0
C  C57  1  0.20864398  0.26931117  0.74466728  1  0  -0.024837  0  3.740564  0  0  -0.053405  0  3.995456  0  0  -0.047033  0  4.012747  0  -0.117995  0  -0.08067  -0.057109  0  3.983422  0
C  C58  1  0.70864872  0.76930964  0.75533409  1  0  -0.024898  0  3.74057  0  0  -0.053418  0  3.995492  0  0  -0.04704  0  4.012787  0  -0.117828  0  -0.080679  -0.05714  0  3.983452  0
C  C59  1  0.79135383  0.73068922  0.25533204  1  0  -0.024885  0  3.740552  0  0  -0.053467  0  3.995467  0  0  -0.047086  0  4.012761  0  -0.117043  0  -0.0807  -0.057183  0  3.98342  0
C  C60  1  0.08575322  0.18872955  0.25000682  1  0  -0.120488  0  3.821785  0  0  -0.099007  0  4.064403  0  0  -0.111376  0  4.088814  0  -0.034845  0  -0.042946  -0.091135  0  4.047904  0
C  C61  1  0.41424896  0.31126978  0.75000614  1  0  -0.120488  0  3.821735  0  0  -0.09897  0  4.064308  0  0  -0.111343  0  4.088723  0  -0.034841  0  -0.042934  -0.0911  0  4.047809  0
C  C62  1  0.91425259  0.81126911  0.74999591  1  0  -0.120407  0  3.82157  0  0  -0.099  0  4.064279  0  0  -0.111372  0  4.088696  0  -0.034616  0  -0.042952  -0.091132  0  4.047786  0
C  C63  1  0.58574996  0.68872975  0.24999454  1  0  -0.120628  0  3.821735  0  0  -0.099019  0  4.064203  0  0  -0.111394  0  4.088623  0  -0.034759  0  -0.042948  -0.091149  0  4.047709  0
C  C64  1  0.00241646  0.09308226  0.19649603  1  0  -0.076402  0  3.712691  0  0  -0.111024  0  3.965542  0  0  -0.105805  0  3.983781  0  -0.038746  0  -0.077518  -0.113826  0  3.95297  0
C  C65  1  0.49758541  0.40691620  0.69649466  1  0  -0.07638  0  3.712768  0  0  -0.110998  0  3.965617  0  0  -0.105776  0  3.98386  0  -0.038716  0  -0.077491  -0.1138  0  3.953044  0
C  C66  1  0.99758710  0.90691814  0.80350738  1  0  -0.076386  0  3.712657  0  0  -0.110959  0  3.965499  0  0  -0.105755  0  3.983737  0  -0.038757  0  -0.077478  -0.113759  0  3.952927  0
C  C67  1  0.50241432  0.59308159  0.30350670  1  0  -0.07625  0  3.71269  0  0  -0.110915  0  3.965504  0  0  -0.105699  0  3.983747  0  -0.038607  0  -0.077489  -0.113718  0  3.952931  0
C  C68  1  0.01393379  0.93670064  0.09090332  1  0  0.172852  0  3.672007  0  0  0.125062  0  3.930746  0  0  0.141814  0  3.940369  0  0.626073  0  0.079852  0.113829  0  3.924352  0
C  C69  1  0.48606958  0.56329995  0.59090400  1  0  0.172931  0  3.671903  0  0  0.125134  0  3.930668  0  0  0.141894  0  3.940282  0  0.626084  0  0.079908  0.1139  0  3.924275  0
C  C70  1  0.98607248  0.06330322  0.90909736  1  0  0.172943  0  3.67194  0  0  0.125077  0  3.930739  0  0  0.141829  0  3.940361  0  0.62599  0  0.079883  0.113843  0  3.924342  0
C  C71  1  0.51392758  0.43669871  0.40909804  1  0  0.172888  0  3.672064  0  0  0.125074  0  3.930831  0  0  0.141834  0  3.940446  0  0.626028  0  0.079882  0.11384  0  3.924433  0
C  C72  1  0.96056734  0.24098213  0.31418784  1  0  0.626845  0  3.951157  0  0  0.580879  0  4.24365  0  0  0.615081  0  4.237012  0  1.555825  0  0.190605  0.557714  0  4.247325  0
C  C73  1  0.53943322  0.25901720  0.81418648  1  0  0.626829  0  3.951178  0  0  0.580863  0  4.243654  0  0  0.615067  0  4.237013  0  1.555843  0  0.190612  0.557699  0  4.247332  0
C  C74  1  0.03943271  0.75901653  0.68581216  1  0  0.626764  0  3.951153  0  0  0.580805  0  4.243656  0  0  0.615007  0  4.237019  0  1.55574  0  0.19059  0.557642  0  4.247331  0
C  C75  1  0.46056395  0.74098146  0.18581284  1  0  0.626836  0  3.951185  0  0  0.580836  0  4.243673  0  0  0.61504  0  4.237036  0  1.556038  0  0.190596  0.557673  0  4.247348  0
C  C76  1  0.96260877  0.76140454  0.00891994  1  0  -0.060444  0  3.720181  0  0  -0.121898  0  3.970317  0  0  -0.11846  0  3.982711  0  0.288632  0  -0.059132  -0.124061  0  3.961874  0
C  C77  1  0.53739329  0.73859692  0.50892063  1  0  -0.060475  0  3.720218  0  0  -0.121923  0  3.970357  0  0  -0.118493  0  3.982759  0  0.288606  0  -0.059166  -0.124088  0  3.961917  0
C  C78  1  0.03739174  0.23859932  0.99107937  1  0  -0.060329  0  3.720048  0  0  -0.12183  0  3.970213  0  0  -0.118394  0  3.982622  0  0.288579  0  -0.05912  -0.123996  0  3.961775  0
C  C79  1  0.46260613  0.26140001  0.49107937  1  0  -0.060465  0  3.720391  0  0  -0.121832  0  3.97038  0  0  -0.11839  0  3.982789  0  0.288576  0  -0.05911  -0.123994  0  3.961935  0
C  C80  1  0.07283489  0.68280049  0.95996943  1  0  0.247745  0  3.708526  0  0  0.247328  0  3.953632  0  0  0.255783  0  3.973414  0  0.516201  0  0.128154  0.24176  0  3.940197  0
C  C81  1  0.42716496  0.81719836  0.45996943  1  0  0.247723  0  3.708557  0  0  0.247332  0  3.953675  0  0  0.255803  0  3.973451  0  0.516185  0  0.128205  0.24176  0  3.940239  0
C  C82  1  0.92716561  0.31720337  0.04002852  1  0  0.247697  0  3.708532  0  0  0.247334  0  3.953592  0  0  0.255775  0  3.973394  0  0.515996  0  0.12818  0.241761  0  3.940159  0
C  C83  1  0.57283269  0.18279769  0.54003057  1  0  0.247738  0  3.708573  0  0  0.247314  0  3.95365  0  0  0.255749  0  3.973474  0  0.51621  0  0.12822  0.241741  0  3.940217  0
C  C84  1  0.97371958  0.59001153  0.90685782  1  0  -0.1535  0  3.698949  0  0  -0.171625  0  3.948445  0  0  -0.180469  0  3.970978  0  0.00749  0  -0.080179  -0.16601  0  3.933396  0
C  C85  1  0.52627896  0.90998819  0.40685782  1  0  -0.153485  0  3.698953  0  0  -0.171598  0  3.948457  0  0  -0.180442  0  3.970978  0  0.007459  0  -0.080175  -0.165985  0  3.933417  0
C  C86  1  0.02627612  0.40999494  0.09313877  1  0  -0.153558  0  3.699131  0  0  -0.17166  0  3.94863  0  0  -0.180496  0  3.971153  0  0.007197  0  -0.080221  -0.166052  0  3.933595  0
C  C87  1  0.47371982  0.09000699  0.59314081  1  0  -0.153544  0  3.698916  0  0  -0.171614  0  3.948414  0  0  -0.180446  0  3.970951  0  0.007486  0  -0.080178  -0.166003  0  3.933379  0
C  C88  1  0.07815937  0.51246178  0.87051887  1  0  0.014331  0  3.687836  0  0  -0.006408  0  3.936106  0  0  -0.001337  0  3.953546  0  -0.092561  0  -0.061882  -0.009489  0  3.924271  0
C  C89  1  0.42183729  0.98753620  0.37051819  1  0  0.014341  0  3.687879  0  0  -0.006457  0  3.936187  0  0  -0.001368  0  3.953633  0  -0.092353  0  -0.061909  -0.009537  0  3.924349  0
C  C90  1  0.92183777  0.48754469  0.12947635  1  0  0.014422  0  3.688144  0  0  -0.006383  0  3.936402  0  0  -0.001271  0  3.953866  0  -0.092381  0  -0.06182  -0.009468  0  3.924573  0
C  C91  1  0.57816149  0.01245898  0.62948181  1  0  0.014386  0  3.687896  0  0  -0.006373  0  3.936168  0  0  -0.001301  0  3.953605  0  -0.092395  0  -0.061879  -0.009454  0  3.924325  0
C  C92  1  0.27990464  0.52908244  0.88928679  1  0  -0.135039  0  3.745792  0  0  -0.148353  0  3.998976  0  0  -0.156592  0  4.022225  0  0.016681  0  -0.090142  -0.143103  0  3.983381  0
C  C93  1  0.22009346  0.97091555  0.38928679  1  0  -0.134994  0  3.745786  0  0  -0.148277  0  3.998984  0  0  -0.156512  0  4.022223  0  0.016692  0  -0.090105  -0.143035  0  3.983397  0
C  C94  1  0.72009187  0.47092230  0.11070775  1  0  -0.135042  0  3.745827  0  0  -0.148327  0  3.999027  0  0  -0.156562  0  4.02226  0  0.016691  0  -0.090109  -0.143079  0  3.983433  0
C  C95  1  0.77990595  0.02908137  0.61071390  1  0  -0.134963  0  3.745761  0  0  -0.148266  0  3.998967  0  0  -0.156501  0  4.022211  0  0.016649  0  -0.090139  -0.14302  0  3.983375  0
C  C96  1  0.36900685  0.62489981  0.94051574  1  0  0.128176  0  3.748645  0  0  0.098335  0  4.002007  0  0  0.105239  0  4.02039  0  0.466886  0  0.044043  0.09391  0  3.989516  0
C  C97  1  0.13099093  0.87509731  0.44051574  1  0  0.128105  0  3.748546  0  0  0.098299  0  4.001921  0  0  0.105213  0  4.020307  0  0.466886  0  0.044012  0.09387  0  3.989429  0
C  C98  1  0.63099207  0.37509972  0.05948085  1  0  0.128135  0  3.74878  0  0  0.098298  0  4.002135  0  0  0.105205  0  4.020517  0  0.467316  0  0.044018  0.09387  0  3.989645  0
C  C99  1  0.86900816  0.12489874  0.55948495  1  0  0.128157  0  3.748634  0  0  0.098302  0  4.002003  0  0  0.105215  0  4.020389  0  0.466883  0  0.044051  0.093875  0  3.989509  0
N  N100  1  0.09345014  0.86554178  0.04398491  1  0  -0.346104  0  3.231209  0  0  -0.261611  0  3.519787  0  0  -0.282452  0  3.530353  0  -1.185894  0  -0.351147  -0.247775  0  3.512681  0
N  N101  1  0.40655323  0.63445881  0.54398491  1  0  -0.34616  0  3.231105  0  0  -0.261655  0  3.519665  0  0  -0.282493  0  3.530229  0  -1.185808  0  -0.351179  -0.247815  0  3.512558  0
N  N102  1  0.90655262  0.13446035  0.95601578  1  0  -0.346147  0  3.231057  0  0  -0.261628  0  3.519666  0  0  -0.282468  0  3.530236  0  -1.185721  0  -0.351166  -0.247786  0  3.512557  0
N  N103  1  0.59344506  0.36553898  0.45601578  1  0  -0.346068  0  3.231194  0  0  -0.261607  0  3.519773  0  0  -0.282447  0  3.530337  0  -1.185807  0  -0.351151  -0.247766  0  3.512662  0
N  N104  1  0.26833640  0.70137182  0.97371373  1  0  -0.363403  0  3.26308  0  0  -0.29096  0  3.52619  0  0  -0.309467  0  3.540657  0  -1.245683  0  -0.321512  -0.278563  0  3.516332  0
N  N105  1  0.23166426  0.79862530  0.47371373  1  0  -0.363331  0  3.26293  0  0  -0.290963  0  3.526109  0  0  -0.309499  0  3.540602  0  -1.245721  0  -0.321534  -0.278557  0  3.516243  0
N  N106  1  0.73166171  0.29862944  0.02628627  1  0  -0.363377  0  3.263148  0  0  -0.290972  0  3.526284  0  0  -0.309475  0  3.540755  0  -1.245583  0  -0.32154  -0.278564  0  3.516416  0
N  N107  1  0.76833484  0.20137076  0.52628695  1  0  -0.363392  0  3.263047  0  0  -0.290995  0  3.526218  0  0  -0.30952  0  3.540722  0  -1.245601  0  -0.321545  -0.27859  0  3.516352  0
O  O108  1  0.43597001  0.04706698  0.06957379  1  0  -0.639477  0  2.172593  0  0  -0.547364  0  2.459768  0  0  -0.576965  0  2.446134  0  -1.186469  0  -0.336613  -0.526346  0  2.468357  0
O  O109  1  0.06403105  0.45293322  0.56957174  1  0  -0.639486  0  2.172725  0  0  -0.547346  0  2.459864  0  0  -0.576958  0  2.446243  0  -1.186483  0  -0.336585  -0.526336  0  2.468459  0
O  O110  1  0.56403323  0.95293255  0.93042894  1  0  -0.63948  0  2.172751  0  0  -0.547286  0  2.459814  0  0  -0.576905  0  2.44622  0  -1.186526  0  -0.33658  -0.526286  0  2.468419  0
O  O111  1  0.93596707  0.54706804  0.43042894  1  0  -0.639507  0  2.17277  0  0  -0.547325  0  2.459843  0  0  -0.576942  0  2.446246  0  -1.186489  0  -0.336603  -0.526317  0  2.46844  0
O  O112  1  0.05751744  0.31734828  0.37163182  1  0  -0.664819  0  2.044037  0  0  -0.592765  0  2.316146  0  0  -0.621812  0  2.300829  0  -1.177267  0  -0.343133  -0.572221  0  2.325654  0
O  O113  1  0.44248218  0.18265191  0.87163046  1  0  -0.664829  0  2.044097  0  0  -0.592781  0  2.316204  0  0  -0.621831  0  2.30089  0  -1.177288  0  -0.343157  -0.572224  0  2.325685  0
O  O114  1  0.94248085  0.68264951  0.62837091  1  0  -0.664856  0  2.044078  0  0  -0.592735  0  2.316106  0  0  -0.621781  0  2.300787  0  -1.177278  0  -0.343145  -0.572185  0  2.3256  0
O  O115  1  0.55751850  0.81734848  0.12837091  1  0  -0.664849  0  2.044032  0  0  -0.592773  0  2.316113  0  0  -0.621824  0  2.300799  0  -1.177525  0  -0.343178  -0.572222  0  2.325606  0
O  O116  1  0.77692842  0.20962121  0.31175451  1  0  -0.604931  0  1.932524  0  0  -0.561764  0  2.155797  0  0  -0.584553  0  2.148805  0  -1.190449  0  -0.323  -0.545797  0  2.159991  0
O  O117  1  0.72307214  0.29037812  0.81175246  1  0  -0.604931  0  1.932505  0  0  -0.561789  0  2.155809  0  0  -0.584579  0  2.148818  0  -1.190472  0  -0.32302  -0.545824  0  2.160005  0
O  O118  1  0.22307195  0.79037831  0.68824617  1  0  -0.604883  0  1.93249  0  0  -0.561734  0  2.155783  0  0  -0.584528  0  2.148794  0  -1.19045  0  -0.322993  -0.545769  0  2.15998  0
O  O119  1  0.27692967  0.70962141  0.18824617  1  0  -0.604883  0  1.93256  0  0  -0.561732  0  2.155862  0  0  -0.584517  0  2.148865  0  -1.190495  0  -0.322981  -0.545765  0  2.160057  0
