# generated using pymatgen
data_ZnH12C19N3O5
_symmetry_space_group_name_H-M   'P 1'
_cell_length_a   6.86667781
_cell_length_b   9.24548127
_cell_length_c   13.76415829
_cell_angle_alpha   92.68494564
_cell_angle_beta   103.07934519
_cell_angle_gamma   100.94438496
_symmetry_Int_Tables_number   1
_chemical_formula_structural   ZnH12C19N3O5
_chemical_formula_sum   'Zn2 H24 C38 N6 O10'
_cell_volume   831.98468972
_cell_formula_units_Z   2
loop_
 _symmetry_equiv_pos_site_id
 _symmetry_equiv_pos_as_xyz
  1  'x, y, z'
loop_
 _atom_site_type_symbol
 _atom_site_label
 _atom_site_symmetry_multiplicity
 _atom_site_fract_x
 _atom_site_fract_y
 _atom_site_fract_z
 _atom_site_occupancy
 _atom_site_pbe_bader_spin_density
 _atom_site_pbe_cm5_charge
 _atom_site_pbe_ddec_charge
 _atom_site_pbe_ddec_spin_density
 _atom_site_pbe_ddec_sum_bond_order
 _atom_site_pbe_magmom
Zn  Zn0  1  0.41177059  0.67081683  0.21171609  1  0  0.695658  0.763556  0  2.346479  0
Zn  Zn1  1  0.58823168  0.32918397  0.78828577  1  0  0.69564  0.763522  0  2.346531  0
H  H2  1  0.18806800  0.36190981  0.56861078  1  0  0.315178  0.285421  0  0.95934  0
H  H3  1  0.81192084  0.63809111  0.43138739  1  0  0.315182  0.285482  0  0.95918  0
H  H4  1  0.43484961  0.98405316  0.42364651  1  0  0.104952  0.105452  0  1.036346  0
H  H5  1  0.56515514  0.01595098  0.57635284  1  0  0.104924  0.105411  0  1.036363  0
H  H6  1  0.41304741  0.21325694  0.52017573  1  0  0.108006  0.125338  0  1.005791  0
H  H7  1  0.58695833  0.78675052  0.47982312  1  0  0.108009  0.125319  0  1.005754  0
H  H8  1  0.77160377  0.14213855  0.37285080  1  0  0.110529  0.129352  0  1.008057  0
H  H9  1  0.22840180  0.85786333  0.62715220  1  0  0.110543  0.129403  0  1.00804  0
H  H10  1  0.40087189  0.89422153  0.05301105  1  0  0.120157  0.094396  0  1.0155  0
H  H11  1  0.59913205  0.10577484  0.94698939  1  0  0.120168  0.094415  0  1.01544  0
H  H12  1  0.29521988  0.87682274  0.86297942  1  0  0.107075  0.124948  0  1.035809  0
H  H13  1  0.70478588  0.12317472  0.13702054  1  0  0.107113  0.124944  0  1.035882  0
H  H14  1  0.16787728  0.62378457  0.76999185  1  0  0.109465  0.119903  0  1.020818  0
H  H15  1  0.83212633  0.37621069  0.23000851  1  0  0.109508  0.119886  0  1.020855  0
H  H16  1  0.14599203  0.40217713  0.86590080  1  0  0.11083  0.133659  0  1.038386  0
H  H17  1  0.85401224  0.59782034  0.13409972  1  0  0.110813  0.133641  0  1.038349  0
H  H18  1  0.13264031  0.23003350  0.95526450  1  0  0.114662  0.141185  0  1.036313  0
H  H19  1  0.86736363  0.76996285  0.04473739  1  0  0.114653  0.141182  0  1.036283  0
H  H20  1  0.15407909  0.03331510  0.07498041  1  0  0.112605  0.110004  0  1.0004  0
H  H21  1  0.84591887  0.96668129  0.92502153  1  0  0.112618  0.110055  0  1.000371  0
H  H22  1  0.30498699  0.10786375  0.25637041  1  0  0.107614  0.114384  0  1.051747  0
H  H23  1  0.69500533  0.89213378  0.74363093  1  0  0.107622  0.114357  0  1.051798  0
H  H24  1  0.41374414  0.37713060  0.31620951  1  0  0.122632  0.096624  0  0.976646  0
H  H25  1  0.58625051  0.62286471  0.68379057  1  0  0.122656  0.096633  0  0.976673  0
C  C26  1  0.73530419  0.87977202  0.27491523  1  0  0.203226  0.5724  0  4.197496  0
C  C27  1  0.26469094  0.12022992  0.72508732  1  0  0.203143  0.572224  0  4.197598  0
C  C28  1  0.92960798  0.97539263  0.33602210  1  0  -0.006368  -0.025099  0  3.96041  0
C  C29  1  0.07038749  0.02461046  0.66397689  1  0  -0.006325  -0.025039  0  3.960604  0
C  C30  1  0.11801058  0.93093009  0.34918901  1  0  -0.017433  -0.062825  0  3.953495  0
C  C31  1  0.88199185  0.06907626  0.65081161  1  0  -0.017453  -0.062772  0  3.9536  0
C  C32  1  0.28901213  0.01733517  0.41633729  1  0  -0.087764  -0.095793  0  4.00784  0
C  C33  1  0.71099062  0.98267230  0.58366268  1  0  -0.087771  -0.09577  0  4.007887  0
C  C34  1  0.27782886  0.14735849  0.46785154  1  0  -0.089854  -0.178963  0  3.956588  0
C  C35  1  0.72217007  0.85265120  0.53215026  1  0  -0.089815  -0.178861  0  3.956613  0
C  C36  1  0.09180017  0.19495160  0.45033925  1  0  0.100884  0.24715  0  4.019794  0
C  C37  1  0.90819264  0.80505260  0.54966021  1  0  0.100927  0.247159  0  4.0197  0
C  C38  1  0.91757795  0.10799674  0.38487171  1  0  -0.080341  -0.185107  0  3.91111  0
C  C39  1  0.08242132  0.89200404  0.61513417  1  0  -0.080385  -0.185268  0  3.911241  0
C  C40  1  0.15218679  0.81387396  0.27957291  1  0  0.203547  0.580316  0  4.213115  0
C  C41  1  0.84781018  0.18612914  0.72042334  1  0  0.203677  0.580389  0  4.212976  0
C  C42  1  0.96998270  0.42745552  0.46543699  1  0  0.244166  0.390953  0  4.120767  0
C  C43  1  0.02999604  0.57254663  0.53455499  1  0  0.244191  0.39091  0  4.12058  0
C  C44  1  0.34158443  0.78873603  0.00738880  1  0  0.050358  0.09635  0  3.942069  0
C  C45  1  0.65841984  0.21126144  0.99261099  1  0  0.050365  0.096282  0  3.942202  0
C  C46  1  0.28241598  0.77773845  0.90320165  1  0  -0.081071  -0.125631  0  3.94536  0
C  C47  1  0.71758613  0.22225681  0.09679854  1  0  -0.081009  -0.125479  0  3.945313  0
C  C48  1  0.21216811  0.63699848  0.85170680  1  0  -0.062059  -0.010532  0  3.909653  0
C  C49  1  0.78784113  0.36299562  0.14829489  1  0  -0.062248  -0.010631  0  3.909695  0
C  C50  1  0.20241958  0.51258022  0.90529433  1  0  -0.078105  -0.150437  0  3.892762  0
C  C51  1  0.79759331  0.48741608  0.09470711  1  0  -0.078004  -0.150347  0  3.892624  0
C  C52  1  0.26406439  0.53209697  0.00993565  1  0  0.115441  0.153761  0  3.993449  0
C  C53  1  0.73594352  0.46790268  0.99006680  1  0  0.115405  0.153767  0  3.993287  0
C  C54  1  0.26368590  0.40765548  0.07395483  1  0  0.118276  0.165652  0  3.98604  0
C  C55  1  0.73630877  0.59233987  0.92604162  1  0  0.118304  0.165689  0  3.986078  0
C  C56  1  0.19561267  0.25931089  0.03533376  1  0  -0.076435  -0.157934  0  3.90575  0
C  C57  1  0.80439210  0.74068325  0.96466597  1  0  -0.076394  -0.157875  0  3.905665  0
C  C58  1  0.20725524  0.15016613  0.10158818  1  0  -0.058245  -0.011599  0  3.934778  0
C  C59  1  0.79274870  0.84983025  0.89841080  1  0  -0.058304  -0.011756  0  3.934739  0
C  C60  1  0.28840556  0.19055504  0.20351977  1  0  -0.073054  -0.104813  0  3.933771  0
C  C61  1  0.71159274  0.80944249  0.79647789  1  0  -0.073089  -0.104813  0  3.933899  0
C  C62  1  0.34950444  0.34004357  0.23707329  1  0  0.059732  0.112227  0  3.925939  0
C  C63  1  0.65049121  0.65995507  0.76292630  1  0  0.059756  0.112353  0  3.92613  0
N  N64  1  0.08793904  0.33024332  0.49995311  1  0  -0.38532  -0.348019  0  3.609589  0
N  N65  1  0.91205560  0.66976198  0.50004587  1  0  -0.385329  -0.347995  0  3.609583  0
N  N66  1  0.33260485  0.66915422  0.05901964  1  0  -0.32877  -0.268169  0  3.591572  0
N  N67  1  0.66740323  0.33084099  0.94098267  1  0  -0.328764  -0.268171  0  3.591627  0
N  N68  1  0.33620700  0.44571083  0.17380413  1  0  -0.325482  -0.274804  0  3.572376  0
N  N69  1  0.66379113  0.55429115  0.82619222  1  0  -0.325528  -0.274955  0  3.572632  0
O  O70  1  0.60347781  0.93640169  0.21943750  1  0  -0.31354  -0.545409  0  2.158902  0
O  O71  1  0.39651915  0.06360137  0.78056311  1  0  -0.313534  -0.545365  0  2.15901  0
O  O72  1  0.70648839  0.73954172  0.28734381  1  0  -0.32679  -0.541585  0  2.252553  0
O  O73  1  0.29351071  0.26046352  0.71265930  1  0  -0.326761  -0.541515  0  2.252437  0
O  O74  1  0.06681153  0.80665069  0.18821905  1  0  -0.317688  -0.558698  0  2.185552  0
O  O75  1  0.93318660  0.19335128  0.81177875  1  0  -0.317758  -0.558719  0  2.185388  0
O  O76  1  0.28526490  0.73644529  0.31716993  1  0  -0.342071  -0.553404  0  2.273994  0
O  O77  1  0.71473356  0.26355778  0.68282940  1  0  -0.342099  -0.553414  0  2.273979  0
O  O78  1  0.83117619  0.40941192  0.38782989  1  0  -0.284596  -0.464193  0  2.169584  0
O  O79  1  0.16882243  0.59058666  0.61217366  1  0  -0.284657  -0.464293  0  2.169084  0
