# generated using pymatgen
data_Cd2H12C8O11
_symmetry_space_group_name_H-M   'P 1'
_cell_length_a   7.48114889
_cell_length_b   7.85215250
_cell_length_c   11.95298608
_cell_angle_alpha   73.18291854
_cell_angle_beta   86.87731955
_cell_angle_gamma   66.89106017
_symmetry_Int_Tables_number   1
_chemical_formula_structural   Cd2H12C8O11
_chemical_formula_sum   'Cd4 H24 C16 O22'
_cell_volume   616.80225946
_cell_formula_units_Z   2
loop_
 _symmetry_equiv_pos_site_id
 _symmetry_equiv_pos_as_xyz
  1  'x, y, z'
loop_
 _atom_site_type_symbol
 _atom_site_label
 _atom_site_symmetry_multiplicity
 _atom_site_fract_x
 _atom_site_fract_y
 _atom_site_fract_z
 _atom_site_occupancy
 _atom_site_pbe_bader_charge
 _atom_site_pbe_bader_spin_density
 _atom_site_pbe_cm5_charge
 _atom_site_pbe_ddec_charge
 _atom_site_pbe_ddec_spin_density
 _atom_site_pbe_ddec_sum_bond_order
 _atom_site_pbe_magmom
Cd  Cd0  1  0.11035892  0.14374181  0.75796298  1  1.400021  0  0.814403  1.169642  0  2.020731  0
Cd  Cd1  1  0.88963973  0.85626112  0.24203460  1  1.400014  0  0.814393  1.169617  0  2.020784  0
Cd  Cd2  1  0.51027908  0.32922801  0.76585261  1  1.33886  0  0.772561  1.011873  0  2.054958  0
Cd  Cd3  1  0.48972014  0.67077347  0.23414689  1  1.338893  0  0.772568  1.011906  0  2.054993  0
H  H4  1  0.06131184  0.77324094  0.99283380  1  0.094041  0  0.106778  0.138725  0  0.996822  0
H  H5  1  0.93868911  0.22675619  0.00716731  1  0.09412  0  0.106772  0.138742  0  0.996769  0
H  H6  1  0.06743070  0.74163555  0.85287011  1  0.065643  0  0.107651  0.129683  0  1.00418  0
H  H7  1  0.93256949  0.25836014  0.14713297  1  0.065543  0  0.107636  0.129667  0  1.004158  0
H  H8  1  0.84414315  0.57273585  0.90004823  1  0.082156  0  0.107582  0.104731  0  0.961916  0
H  H9  1  0.15585646  0.42726128  0.09995293  1  0.082143  0  0.107592  0.104743  0  0.961927  0
H  H10  1  0.57638837  0.12745286  0.40435000  1  0.08699  0  0.107914  0.106781  0  0.986015  0
H  H11  1  0.42361162  0.87255007  0.59565004  1  0.086995  0  0.107946  0.106798  0  0.986022  0
H  H12  1  0.25743063  0.14188258  0.34624447  1  0.057041  0  0.10428  0.12357  0  0.993097  0
H  H13  1  0.74257203  0.85812036  0.65375297  1  0.057197  0  0.104274  0.123568  0  0.993048  0
H  H14  1  0.15971752  0.19498226  0.47714622  1  0.076813  0  0.097648  0.120033  0  1.032469  0
H  H15  1  0.84028419  0.80501632  0.52285292  1  0.076787  0  0.097658  0.12006  0  1.032474  0
H  H16  1  0.13088472  0.56395331  0.63241897  1  0.64818  0  0.288309  0.381385  0  0.958627  0
H  H17  1  0.86911872  0.43604093  0.36758093  1  0.648042  0  0.288321  0.381407  0  0.958594  0
H  H18  1  0.27409831  0.66151759  0.56379793  1  0.635669  0  0.289575  0.378432  0  0.960712  0
H  H19  1  0.72590723  0.33847810  0.43620413  1  0.64535  0  0.289594  0.378485  0  0.96065  0
H  H20  1  0.09002741  0.86629510  0.63927242  1  0.635551  0  0.289864  0.39233  0  0.944189  0
H  H21  1  0.90997488  0.13370204  0.36072948  1  0.635564  0  0.289868  0.392359  0  0.944156  0
H  H22  1  0.89535616  0.06714746  0.60392612  1  0.638226  0  0.294957  0.387643  0  0.950302  0
H  H23  1  0.10464345  0.93284967  0.39607420  1  0.638134  0  0.294955  0.387659  0  0.950283  0
H  H24  1  0.47946163  0.86559956  0.86002193  1  0.663875  0  0.297441  0.406813  0  0.92425  0
H  H25  1  0.52053951  0.13440048  0.13997779  1  0.663892  0  0.297431  0.406797  0  0.924293  0
H  H26  1  0.36934803  0.72122835  0.88647218  1  0.656063  0  0.308913  0.417207  0  0.89391  0
H  H27  1  0.63065311  0.27877168  0.11352921  1  0.656079  0  0.308893  0.41718  0  0.893944  0
C  C28  1  0.80837364  0.95881747  0.87922216  1  1.526001  0  0.207518  0.642613  0  4.136982  0
C  C29  1  0.19162789  0.04117822  0.12077753  1  1.526048  0  0.207494  0.642665  0  4.136955  0
C  C30  1  0.97317112  0.76443995  0.92569144  1  -0.031176  0  -0.170982  -0.343175  0  3.937844  0
C  C31  1  0.02682984  0.23555719  0.07431051  1  -0.031072  0  -0.170949  -0.343149  0  3.937654  0
C  C32  1  0.91065254  0.59500158  0.97160291  1  -0.000237  0  -0.082207  -0.099938  0  3.838605  0
C  C33  1  0.08934975  0.40499555  0.02839899  1  0.017156  0  -0.082217  -0.10003  0  3.838673  0
C  C34  1  0.76088853  0.62879931  0.06297203  1  1.539711  0  0.208788  0.611981  0  4.123404  0
C  C35  1  0.23911051  0.37119927  0.93702971  1  1.539963  0  0.208757  0.611958  0  4.123475  0
C  C36  1  0.49681815  0.19472702  0.56583178  1  1.547855  0  0.217178  0.617408  0  4.092605  0
C  C37  1  0.50317782  0.80527591  0.43416590  1  1.547894  0  0.217208  0.617518  0  4.092512  0
C  C38  1  0.47349866  0.10949726  0.47107168  1  0.007419  0  -0.085956  -0.11163  0  3.845179  0
C  C39  1  0.52649807  0.89050712  0.52892653  1  -0.018201  0  -0.085993  -0.111701  0  3.845175  0
C  C40  1  0.26650740  0.21076225  0.41288535  1  -0.036798  0  -0.170795  -0.324567  0  3.891281  0
C  C41  1  0.73349259  0.78924068  0.58711218  1  -0.036955  0  -0.170767  -0.324529  0  3.891266  0
C  C42  1  0.21578675  0.42221405  0.34640944  1  1.584445  0  0.217659  0.663566  0  4.123633  0
C  C43  1  0.78420999  0.57779032  0.65358876  1  1.584451  0  0.2176  0.663528  0  4.123708  0
O  O44  1  0.84483976  0.11267698  0.85508432  1  -1.171201  0  -0.337813  -0.622268  0  2.338823  0
O  O45  1  0.15516521  0.88732016  0.14491833  1  -1.171249  0  -0.337752  -0.622247  0  2.338966  0
O  O46  1  0.63783344  0.97254425  0.86104941  1  -1.172578  0  -0.301482  -0.534832  0  2.248454  0
O  O47  1  0.36217305  0.02745579  0.13894761  1  -1.172629  0  -0.301522  -0.534902  0  2.248348  0
O  O48  1  0.21944033  0.62776594  0.64122869  1  -1.266412  0  -0.569861  -0.743338  0  2.078251  0
O  O49  1  0.78056254  0.37222975  0.35877179  1  -1.275973  0  -0.56989  -0.743433  0  2.07826  0
O  O50  1  0.37344987  0.21320271  0.64373635  1  -1.168639  0  -0.316726  -0.566148  0  2.346283  0
O  O51  1  0.62655088  0.78680167  0.35626172  1  -1.168645  0  -0.316763  -0.566213  0  2.346233  0
O  O52  1  0.03468475  0.00851864  0.63035922  1  -1.252455  0  -0.588129  -0.784211  0  2.130694  0
O  O53  1  0.96531562  0.99147995  0.36964164  1  -1.252387  0  -0.58813  -0.784242  0  2.13069  0
O  O54  1  0.64183958  0.24184271  0.56833766  1  -1.195206  0  -0.316787  -0.583798  0  2.225658  0
O  O55  1  0.35816061  0.75815298  0.43166459  1  -1.195257  0  -0.316771  -0.583803  0  2.225669  0
O  O56  1  0.35962151  0.85090349  0.84167187  1  -1.27346  0  -0.590819  -0.791557  0  2.068876  0
O  O57  1  0.64037696  0.14909654  0.15832961  1  -1.273474  0  -0.590792  -0.791506  0  2.068945  0
O  O58  1  0.77216849  0.72114571  0.13250983  1  -1.189664  0  -0.336168  -0.598737  0  2.376381  0
O  O59  1  0.22782730  0.27885432  0.86749174  1  -1.1894  0  -0.33616  -0.598722  0  2.37635  0
O  O60  1  0.63104980  0.55956994  0.07137481  1  -1.157846  0  -0.316861  -0.551432  0  2.188319  0
O  O61  1  0.36895231  0.44042430  0.92862681  1  -1.158265  0  -0.316819  -0.551375  0  2.188345  0
O  O62  1  0.34789754  0.46164750  0.28928761  1  -1.187412  0  -0.331415  -0.565955  0  2.344857  0
O  O63  1  0.65210053  0.53835687  0.71070972  1  -1.187371  0  -0.3314  -0.565956  0  2.344859  0
O  O64  1  0.04094659  0.54145386  0.35046652  1  -1.177435  0  -0.32304  -0.582847  0  2.291198  0
O  O65  1  0.95905187  0.45854617  0.64953413  1  -1.177431  0  -0.323011  -0.58283  0  2.291228  0
