# generated using pymatgen
data_CoH18C22(NO5)2
_symmetry_space_group_name_H-M   'P 1'
_cell_length_a   6.82937083
_cell_length_b   8.42718570
_cell_length_c   8.93941277
_cell_angle_alpha   103.35435701
_cell_angle_beta   91.47311071
_cell_angle_gamma   104.39513392
_symmetry_Int_Tables_number   1
_chemical_formula_structural   CoH18C22(NO5)2
_chemical_formula_sum   'Co1 H18 C22 N2 O10'
_cell_volume   482.96705338
_cell_formula_units_Z   1
loop_
 _symmetry_equiv_pos_site_id
 _symmetry_equiv_pos_as_xyz
  1  'x, y, z'
loop_
 _atom_site_type_symbol
 _atom_site_label
 _atom_site_symmetry_multiplicity
 _atom_site_fract_x
 _atom_site_fract_y
 _atom_site_fract_z
 _atom_site_occupancy
 _atom_site_pbe_cm5_charge
 _atom_site_pbe_ddec_charge
 _atom_site_pbe_ddec_spin_density
 _atom_site_pbe_ddec_sum_bond_order
 _atom_site_pbe_magmom
Co  Co0  1  0.50000094  0.50000121  0.00000254  1  0.674204  0.959034  -2.8483  2.346586  -2.626
H  H1  1  0.94117824  0.16077140  0.04229924  1  0.308975  0.370956  3.4e-05  0.968943  0.0
H  H2  1  0.05882156  0.83923117  0.95770056  1  0.308975  0.370979  3.4e-05  0.968902  0.0
H  H3  1  0.18525826  0.63389097  0.11125292  1  0.297055  0.39982  -0.000718  0.929573  -0.002
H  H4  1  0.81474363  0.36610905  0.88874752  1  0.297052  0.399843  -0.000718  0.929561  -0.002
H  H5  1  0.18860996  0.47117350  0.17406468  1  0.296459  0.388714  -0.000234  0.946771  -0.001
H  H6  1  0.81138751  0.52882656  0.82593674  1  0.296454  0.388723  -0.000233  0.946767  -0.001
H  H7  1  0.42800851  0.83168782  0.37515238  1  0.104225  0.110966  -0.000162  1.01866  0.0
H  H8  1  0.57198383  0.16829580  0.62483865  1  0.104294  0.111008  -0.000162  1.018662  0.0
H  H9  1  0.06923676  0.31027645  0.55690758  1  0.111659  0.116962  -7.4e-05  1.014267  0.0
H  H10  1  0.93076599  0.68972610  0.44309119  1  0.111666  0.116975  -7.4e-05  1.014311  0.0
H  H11  1  0.61519702  0.04698919  0.80312410  1  0.107464  0.119736  -0.000292  1.025091  0.0
H  H12  1  0.38480316  0.95300957  0.19686930  1  0.107451  0.119696  -0.000292  1.0251  0.0
H  H13  1  0.32686877  0.58161383  0.46585429  1  0.108063  0.12213  -0.000313  1.027856  0.0
H  H14  1  0.67312072  0.41837994  0.53415000  1  0.108048  0.122129  -0.000313  1.027842  0.0
H  H15  1  0.60268583  0.87856101  0.99652749  1  0.113793  0.086903  -0.000175  1.049127  -0.001
H  H16  1  0.39732074  0.12144405  0.00346858  1  0.113775  0.086851  -0.000175  1.04914  -0.001
H  H17  1  0.34474919  0.43261885  0.67276228  1  0.114218  0.079182  -0.000292  1.057606  -0.001
H  H18  1  0.65524225  0.56738124  0.32724677  1  0.114268  0.079266  -0.000292  1.057571  -0.001
C  C19  1  0.89256873  0.78953922  0.18329919  1  0.23084  0.612313  0.002611  4.163344  0.001
C  C20  1  0.10743126  0.21045955  0.81670204  1  0.230811  0.612301  0.002611  4.163271  0.001
C  C21  1  0.00256581  0.18190266  0.26203024  1  0.234705  0.580476  6.4e-05  4.129726  0.0
C  C22  1  0.99743654  0.81809863  0.73796824  1  0.234634  0.580382  6.4e-05  4.129843  0.0
C  C23  1  0.95123047  0.90397912  0.34435229  1  0.001468  -0.026564  -0.003108  3.899488  -0.005
C  C24  1  0.04877626  0.09602214  0.65564634  1  0.001532  -0.026519  -0.003108  3.899478  -0.005
C  C25  1  0.46991213  0.82971524  0.61461698  1  0.004721  0.142819  0.008188  4.019944  0.005
C  C26  1  0.53008501  0.17028355  0.38538080  1  0.004795  0.142854  0.008189  4.019925  0.005
C  C27  1  0.99542617  0.08179065  0.38022701  1  -0.00703  -0.055508  -0.000468  3.957746  -0.001
C  C28  1  0.00458354  0.91821060  0.61976948  1  -0.007023  -0.055569  -0.000468  3.957921  -0.001
C  C29  1  0.47283051  0.91525874  0.49065168  1  -0.082379  -0.118054  0.004088  3.946093  0.002
C  C30  1  0.52716159  0.08472868  0.50934015  1  -0.082478  -0.118062  0.004088  3.946156  0.002
C  C31  1  0.04124010  0.17355221  0.53421498  1  -0.074332  -0.114218  -0.000619  3.938796  -0.001
C  C32  1  0.95876663  0.82644905  0.46578365  1  -0.074324  -0.114253  -0.000619  3.938937  -0.001
C  C33  1  0.54657458  0.91141960  0.76839439  1  -0.084294  -0.169549  -0.001815  3.917181  -0.003
C  C34  1  0.45342381  0.08858298  0.23160312  1  -0.084284  -0.169545  -0.001815  3.917197  -0.003
C  C35  1  0.39055639  0.65370300  0.58172462  1  -0.084441  -0.17298  -0.001707  3.918445  -0.003
C  C36  1  0.60943667  0.34629708  0.41827777  1  -0.084391  -0.172893  -0.001707  3.918436  -0.003
C  C37  1  0.54135217  0.81803275  0.87777939  1  0.037283  0.089895  0.00539  3.942339  0.003
C  C38  1  0.45864704  0.18197235  0.12221869  1  0.037285  0.08998  0.005391  3.942175  0.003
C  C39  1  0.39539798  0.56948681  0.69726478  1  0.037888  0.09385  0.006627  3.959824  0.004
C  C40  1  0.60459582  0.43051580  0.30274153  1  0.037839  0.093767  0.006626  3.959817  0.004
N  N41  1  0.46784099  0.64811851  0.84446083  1  -0.334244  -0.266349  -0.026398  3.553732  -0.046
N  N42  1  0.53215765  0.35188533  0.15554367  1  -0.334265  -0.266418  -0.026399  3.553711  -0.046
O  O43  1  0.91590178  0.09161040  0.12466910  1  -0.314376  -0.472314  0.000173  2.400025  0.0
O  O44  1  0.08410425  0.90839340  0.87533228  1  -0.314347  -0.472273  0.000173  2.399954  0.0
O  O45  1  0.08536212  0.33571064  0.29239705  1  -0.283013  -0.503785  -0.000339  2.198413  -0.001
O  O46  1  0.91463473  0.66429195  0.70760376  1  -0.283011  -0.503741  -0.000339  2.19843  -0.001
O  O47  1  0.03505295  0.76563433  0.09758674  1  -0.318246  -0.576594  -0.000638  2.26675  -0.002
O  O48  1  0.96494417  0.23436446  0.90241216  1  -0.318258  -0.576599  -0.000638  2.266743  -0.002
O  O49  1  0.70542805  0.72015249  0.15019813  1  -0.288593  -0.541015  -0.029055  2.35672  -0.048
O  O50  1  0.29457440  0.27984500  0.84980515  1  -0.288564  -0.540983  -0.029054  2.35659  -0.048
O  O51  1  0.27361950  0.56322993  0.13360776  1  -0.575006  -0.777333  -0.03662  2.196915  -0.057
O  O52  1  0.72638271  0.43677136  0.86639632  1  -0.575001  -0.777391  -0.036619  2.19692  -0.057
