# generated using pymatgen
data_Al2H18C19O11
_symmetry_space_group_name_H-M   'P 1'
_cell_length_a   6.66820131
_cell_length_b   14.40927262
_cell_length_c   16.66860983
_cell_angle_alpha   95.49863089
_cell_angle_beta   90.00030128
_cell_angle_gamma   89.99967500
_symmetry_Int_Tables_number   1
_chemical_formula_structural   Al2H18C19O11
_chemical_formula_sum   'Al4 H36 C38 O22'
_cell_volume   1594.21583509
_cell_formula_units_Z   2
loop_
 _symmetry_equiv_pos_site_id
 _symmetry_equiv_pos_as_xyz
  1  'x, y, z'
loop_
 _atom_site_type_symbol
 _atom_site_label
 _atom_site_symmetry_multiplicity
 _atom_site_fract_x
 _atom_site_fract_y
 _atom_site_fract_z
 _atom_site_occupancy
 _atom_site_pbe_bader_charge
 _atom_site_pbe_bader_spin_density
 _atom_site_pbe_cm5_charge
 _atom_site_pbe_ddec_charge
 _atom_site_pbe_ddec_spin_density
 _atom_site_pbe_ddec_sum_bond_order
 _atom_site_pbe_magmom
Al  Al0  1  0.12702962  0.49930849  0.49976973  1  2.502776  0  0.402051  1.644872  0  2.583551  0
Al  Al1  1  0.62702952  0.50069456  0.50022611  1  2.502715  0  0.402008  1.644928  0  2.583414  0
Al  Al2  1  0.61139198  0.99618884  0.00147557  1  2.500694  0  0.402499  1.645456  0  2.573606  0
Al  Al3  1  0.11139336  0.00381676  0.99851784  1  2.500568  0  0.402408  1.645236  0  2.573795  0
H  H4  1  0.96653813  0.89928787  0.72669898  1  0.012512  0  0.09649  0.063408  0  0.955027  0
H  H5  1  0.46666518  0.10072262  0.27328250  1  0.01192  0  0.096367  0.063186  0  0.955001  0
H  H6  1  0.90108564  0.79889321  0.61304186  1  0.011855  0  0.092818  0.091532  0  0.977405  0
H  H7  1  0.40122180  0.20109442  0.38695201  1  0.011615  0  0.092723  0.091439  0  0.977263  0
H  H8  1  0.65442879  0.77459394  0.64428240  1  0.019563  0  0.09438  0.09703  0  0.987617  0
H  H9  1  0.15452672  0.22537253  0.35573617  1  0.019696  0  0.094214  0.095134  0  0.989033  0
H  H10  1  0.55923342  0.76786093  0.82364211  1  0.057098  0  0.08941  0.086406  0  1.027293  0
H  H11  1  0.05919844  0.23209921  0.17639371  1  0.05638  0  0.089422  0.086532  0  1.02727  0
H  H12  1  0.57754582  0.65032148  0.71945442  1  0.021788  0  0.095487  0.065521  0  0.980709  0
H  H13  1  0.07750311  0.34963136  0.28059163  1  0.020454  0  0.095263  0.065324  0  0.980564  0
H  H14  1  0.18902965  0.81907696  0.80162273  1  0.071248  0  0.112793  0.099053  0  0.97403  0
H  H15  1  0.68905395  0.18096256  0.19833789  1  0.071275  0  0.112744  0.098997  0  0.973937  0
H  H16  1  0.19172892  0.72066511  0.68355135  1  0.022155  0  0.095085  0.099703  0  0.983035  0
H  H17  1  0.69177892  0.27936834  0.31641105  1  0.022743  0  0.095148  0.099706  0  0.983125  0
H  H18  1  0.14588849  0.62675102  0.74034037  1  0.042259  0  0.09528  0.092634  0  0.998583  0
H  H19  1  0.64582399  0.37327840  0.25963577  1  0.041152  0  0.095383  0.092852  0  0.998654  0
H  H20  1  0.72486209  0.70537005  0.88035041  1  0.055548  0  0.094799  0.10176  0  0.99609  0
H  H21  1  0.22472504  0.29462088  0.11967144  1  0.05502  0  0.094759  0.101936  0  0.996003  0
H  H22  1  0.51172008  0.88751874  0.75264069  1  0.012699  0  0.085642  0.116277  0  1.019675  0
H  H23  1  0.66858951  0.98402813  0.78290536  1  0.070161  0  0.09174  0.131084  0  1.015502  0
H  H24  1  0.63079476  0.94935424  0.67878935  1  0.022956  0  0.086359  0.116824  0  1.000065  0
H  H25  1  0.01181663  0.11242462  0.24737266  1  0.013376  0  0.085479  0.116054  0  1.019967  0
H  H26  1  0.16876796  0.01594288  0.21709037  1  0.069102  0  0.092003  0.131552  0  1.015291  0
H  H27  1  0.13099210  0.05060017  0.32121285  1  0.022771  0  0.086257  0.116747  0  1.000021  0
H  H28  1  0.90598946  0.55961705  0.81534535  1  0.015176  0  0.084388  0.115532  0  1.014574  0
H  H29  1  0.64486224  0.54168396  0.82240308  1  0.028897  0  0.088675  0.120265  0  0.998405  0
H  H30  1  0.77172069  0.50498964  0.73125098  1  0.029715  0  0.089379  0.12569  0  1.006329  0
H  H31  1  0.40580629  0.44038923  0.18466792  1  0.01666  0  0.084528  0.11585  0  1.014422  0
H  H32  1  0.14466224  0.45828301  0.17763355  1  0.028646  0  0.088513  0.120247  0  0.998375  0
H  H33  1  0.27155287  0.49499898  0.26877637  1  0.028996  0  0.089486  0.125883  0  1.006721  0
H  H34  1  0.28751338  0.67485315  0.86686702  1  0.069706  0  0.100281  0.027915  0  0.964135  0
H  H35  1  0.78739690  0.32520100  0.13308304  1  0.069657  0  0.100253  0.027913  0  0.963787  0
H  H36  1  0.37568047  0.61849090  0.48398808  1  0.646099  0  0.358117  0.436863  0  0.842535  0
H  H37  1  0.87567920  0.38153339  0.51606437  1  0.646626  0  0.358165  0.436988  0  0.842202  0
H  H38  1  0.34992502  0.87938039  0.00911536  1  0.639815  0  0.358332  0.441749  0  0.837953  0
H  H39  1  0.84991851  0.12062617  0.99087250  1  0.639733  0  0.35821  0.441567  0  0.838086  0
C  C40  1  0.37796690  0.38366874  0.38543438  1  1.571974  0  0.273063  0.642377  0  4.03209  0
C  C41  1  0.87792322  0.61632631  0.61457033  1  1.572028  0  0.273038  0.64201  0  4.032036  0
C  C42  1  0.37732791  0.39558039  0.60592758  1  1.686348  0  0.277075  0.707306  0  4.171712  0
C  C43  1  0.87736849  0.60442433  0.39406996  1  1.686372  0  0.277014  0.706948  0  4.171845  0
C  C44  1  0.87796602  0.66502055  0.33019721  1  0.289127  0  -0.008142  -0.162411  0  3.858751  0
C  C45  1  0.37797059  0.33498435  0.66980876  1  0.291123  0  -0.008102  -0.162448  0  3.85931  0
C  C46  1  0.87820376  0.71737269  0.27660493  1  -0.413756  0  -0.001857  0.042224  0  4.236044  0
C  C47  1  0.37822174  0.28263968  0.72338603  1  -0.416135  0  -0.001814  0.042335  0  4.236489  0
C  C48  1  0.87707674  0.77557624  0.21783450  1  -0.231733  0  -0.005161  0.026817  0  4.225394  0
C  C49  1  0.37709028  0.22442716  0.78215701  1  -0.231232  0  -0.005227  0.02681  0  4.224597  0
C  C50  1  0.87492553  0.82855807  0.16478784  1  0.153737  0  0.007024  -0.128573  0  3.827589  0
C  C51  1  0.37492249  0.17144048  0.83520363  1  0.153692  0  0.007033  -0.128695  0  3.827417  0
C  C52  1  0.83101317  0.85774619  0.73576739  1  0.0362  0  -0.07789  0.055356  0  3.782975  0
C  C53  1  0.33111404  0.14224555  0.26423782  1  0.037416  0  -0.077734  0.055751  0  3.78218  0
C  C54  1  0.81135875  0.78058452  0.66468124  1  -0.008939  0  -0.154073  -0.214584  0  3.847693  0
C  C55  1  0.31145650  0.21939648  0.33532025  1  -0.008585  0  -0.153838  -0.212872  0  3.846842  0
C  C56  1  0.70676818  0.73414104  0.82212799  1  -0.073438  0  -0.164009  -0.222135  0  3.849414  0
C  C57  1  0.20671027  0.26583737  0.17789316  1  -0.072168  0  -0.163888  -0.22247  0  3.849635  0
C  C58  1  0.07689786  0.76315355  0.80544687  1  -0.010677  0  -0.085952  -0.10816  0  3.859265  0
C  C59  1  0.57687336  0.23687331  0.19452310  1  -0.011089  0  -0.086037  -0.108145  0  3.859159  0
C  C60  1  0.86831643  0.80920370  0.81461855  1  0.014812  0  -0.008749  -0.028808  0  3.7605  0
C  C61  1  0.36830613  0.19080256  0.18537356  1  0.014622  0  -0.008657  -0.028871  0  3.760635  0
C  C62  1  0.87769230  0.68467412  0.68993140  1  0.021018  0  -0.014405  -0.012291  0  3.790812  0
C  C63  1  0.37772243  0.31532018  0.31007270  1  0.020587  0  -0.014164  -0.011981  0  3.790839  0
C  C64  1  0.72137189  0.65557013  0.75189053  1  0.024378  0  -0.086025  0.040581  0  3.807408  0
C  C65  1  0.22131083  0.34441090  0.24813608  1  0.026007  0  -0.086042  0.040894  0  3.806954  0
C  C66  1  0.08767284  0.69520867  0.72749980  1  -0.023222  0  -0.157403  -0.206394  0  3.873294  0
C  C67  1  0.58766942  0.30482099  0.27248406  1  -0.022911  0  -0.157648  -0.206859  0  3.873788  0
C  C68  1  0.36713411  0.10866453  0.89760170  1  1.718305  0  0.281426  0.704834  0  4.169055  0
C  C69  1  0.86712799  0.89133624  0.10239097  1  1.718562  0  0.281352  0.704797  0  4.169045  0
C  C70  1  0.36514938  0.11765651  0.11322807  1  1.583593  0  0.272873  0.643183  0  4.042412  0
C  C71  1  0.86514463  0.88235254  0.88676405  1  1.583915  0  0.273107  0.643606  0  4.041977  0
C  C72  1  0.65078722  0.92357013  0.73826508  1  -0.080091  0  -0.245214  -0.394851  0  3.941637  0
C  C73  1  0.15093695  0.07639694  0.26173904  1  -0.079932  0  -0.24522  -0.395003  0  3.941879  0
C  C74  1  0.76451180  0.56025576  0.78146039  1  -0.056068  0  -0.244345  -0.391319  0  3.933903  0
C  C75  1  0.26435458  0.43972910  0.21856392  1  -0.056631  0  -0.244351  -0.391812  0  3.934345  0
C  C76  1  0.14598175  0.71614930  0.87785979  1  0.913278  0  0.11202  0.3151  0  3.896094  0
C  C77  1  0.64589268  0.28387868  0.12210911  1  0.914283  0  0.112247  0.315893  0  3.896173  0
O  O78  1  0.54791931  0.41966755  0.58065379  1  -1.233376  0  -0.223462  -0.577492  0  2.291076  0
O  O79  1  0.04797124  0.58025054  0.41926371  1  -1.233456  0  -0.223216  -0.577114  0  2.291018  0
O  O80  1  0.20766613  0.40763380  0.41534679  1  -1.272216  0  -0.239081  -0.604425  0  2.365288  0
O  O81  1  0.70759690  0.59228994  0.58472284  1  -1.272676  0  -0.238921  -0.604211  0  2.365509  0
O  O82  1  0.20636844  0.41861346  0.58037591  1  -1.23494  0  -0.223112  -0.573694  0  2.28498  0
O  O83  1  0.70643216  0.58148293  0.41970554  1  -1.234849  0  -0.223279  -0.573629  0  2.284658  0
O  O84  1  0.04706947  0.59040964  0.58501527  1  -1.264448  0  -0.236266  -0.594169  0  2.36227  0
O  O85  1  0.54713397  0.40966448  0.41492118  1  -1.264657  0  -0.236091  -0.5943  0  2.362284  0
O  O86  1  0.37649382  0.55639147  0.50167626  1  -1.446986  0  -0.446972  -0.993366  0  2.203947  0
O  O87  1  0.87650197  0.44361034  0.49832668  1  -1.447409  0  -0.447076  -0.993591  0  2.20365  0
O  O88  1  0.19519045  0.09640168  0.08183667  1  -1.262773  0  -0.235235  -0.593224  0  2.364811  0
O  O89  1  0.69519331  0.90360684  0.91815993  1  -1.263001  0  -0.235376  -0.593422  0  2.364948  0
O  O90  1  0.53440146  0.08068495  0.92280828  1  -1.229212  0  -0.218704  -0.573288  0  2.303022  0
O  O91  1  0.03440082  0.91931709  0.07718255  1  -1.229226  0  -0.218666  -0.573332  0  2.3029  0
O  O92  1  0.53200408  0.08098204  0.09103229  1  -1.26748  0  -0.237507  -0.603399  0  2.395713  0
O  O93  1  0.03200231  0.91902747  0.90895677  1  -1.267496  0  -0.237562  -0.603576  0  2.395494  0
O  O94  1  0.69303277  0.91261512  0.07925754  1  -1.218982  0  -0.218747  -0.562467  0  2.281227  0
O  O95  1  0.19303049  0.08739070  0.92073302  1  -1.218839  0  -0.218781  -0.562412  0  2.281028  0
O  O96  1  0.35823612  0.94327006  0.99570102  1  -1.440307  0  -0.448918  -0.998794  0  2.195007  0
O  O97  1  0.85822958  0.05673685  0.00429047  1  -1.440237  0  -0.448736  -0.998559  0  2.195027  0
O  O98  1  0.06491082  0.72078485  0.94377345  1  -1.09677  0  -0.256397  -0.353343  0  2.136557  0
O  O99  1  0.56479995  0.27921747  0.05620057  1  -1.097268  0  -0.256562  -0.353978  0  2.136663  0
