# generated using pymatgen
data_Al4H24C47I6(NO5)4
_symmetry_space_group_name_H-M   'P 1'
_cell_length_a   6.65740300
_cell_length_b   20.10904623
_cell_length_c   23.49777930
_cell_angle_alpha   101.79893732
_cell_angle_beta   89.90845571
_cell_angle_gamma   91.44811820
_symmetry_Int_Tables_number   1
_chemical_formula_structural   Al4H24C47I6(NO5)4
_chemical_formula_sum   'Al4 H24 C47 I6 N4 O20'
_cell_volume   3078.27252185
_cell_formula_units_Z   1
loop_
 _symmetry_equiv_pos_site_id
 _symmetry_equiv_pos_as_xyz
  1  'x, y, z'
loop_
 _atom_site_type_symbol
 _atom_site_label
 _atom_site_symmetry_multiplicity
 _atom_site_fract_x
 _atom_site_fract_y
 _atom_site_fract_z
 _atom_site_occupancy
 _atom_site_pbe_bader_charge
 _atom_site_pbe_bader_spin_density
 _atom_site_pbe_cm5_charge
 _atom_site_pbe_ddec_charge
 _atom_site_pbe_ddec_spin_density
 _atom_site_pbe_ddec_sum_bond_order
 _atom_site_pbe_magmom
Al  Al0  1  0.07233016  0.49872852  0.49886365  1  2.500276  0  0.397424  1.649502  0  2.570296  0
Al  Al1  1  0.57240941  0.49974076  0.50167698  1  2.497691  0  0.398554  1.646539  0  2.568549  0
Al  Al2  1  0.56572420  0.99843858  0.99993827  1  2.499005  0  0.401448  1.642093  0  2.586375  0
Al  Al3  1  0.06592705  0.99730308  0.00105983  1  2.502648  0  0.402523  1.644941  0  2.581772  0
H  H4  1  0.11260649  0.88749528  0.13170585  1  0.10696  0  0.110532  0.115953  0  0.997577  0
H  H5  1  0.09068664  0.81391810  0.20662946  1  0.099009  0  0.104773  0.103302  0  1.031691  0
H  H6  1  0.14405518  0.73694840  0.34693522  1  0.097085  0  0.112119  0.120195  0  0.983665  0
H  H7  1  0.11297843  0.65763579  0.41642185  1  0.103795  0  0.107871  0.111773  0  0.997803  0
H  H8  1  0.47411951  0.86635691  0.10562010  1  0.086613  0  0.111901  0.118427  0  0.998397  0
H  H9  1  0.58551043  0.65604618  0.26712421  1  0.124632  0  0.105469  0.115232  0  1.027418  0
H  H10  1  0.45300304  0.78962436  0.17848153  1  0.075801  0  0.107984  0.110614  0  1.005316  0
H  H11  1  0.62147655  0.76853211  0.73975177  1  0.117734  0  0.115939  0.131085  0  0.981702  0
H  H12  1  0.59768820  0.08175285  0.84820625  1  0.115944  0  0.110565  0.126863  0  0.992216  0
H  H13  1  0.58026838  0.25495746  0.64527030  1  0.09023  0  0.107504  0.117532  0  0.998561  0
H  H14  1  0.57881119  0.34078739  0.58107295  1  0.094857  0  0.113889  0.124451  0  0.980205  0
H  H15  1  0.03857635  0.16134163  0.92039093  1  0.102526  0  0.113621  0.123274  0  0.98056  0
H  H16  1  0.04732114  0.24470993  0.85376271  1  0.089822  0  0.100897  0.110313  0  1.015823  0
H  H17  1  0.78489550  0.13281400  0.31202718  1  0.042808  0  0.085632  0.111416  0  0.999247  0
H  H18  1  0.82091754  0.21170801  0.36166264  1  -0.005683  0  0.084767  0.111168  0  0.998786  0
H  H19  1  0.62267111  0.20105755  0.30988648  1  0.008471  0  0.081776  0.111564  0  1.033466  0
H  H20  1  0.87325986  0.19025958  0.22850058  1  0.026825  0  0.087501  0.081922  0  0.979038  0
H  H21  1  0.90711511  0.26859285  0.27780202  1  0.014811  0  0.081429  0.073436  0  1.001577  0
H  H22  1  0.15418620  0.14151918  0.27764938  1  0.034124  0  0.101386  0.106363  0  0.961182  0
H  H23  1  0.18560437  0.22037264  0.32739832  1  0.035056  0  0.096626  0.097808  0  0.989637  0
H  H24  1  0.33048734  0.57948651  0.48379641  1  0.623118  0  0.353155  0.43237  0  0.849035  0
H  H25  1  0.81196490  0.41397099  0.46825966  1  0.623847  0  0.355972  0.436941  0  0.84388  0
H  H26  1  0.31145603  0.91087589  0.97157509  1  0.626423  0  0.358017  0.437235  0  0.843268  0
H  H27  1  0.82325511  0.08579989  0.02666665  1  0.647679  0  0.358985  0.438503  0  0.841547  0
C  C28  1  0.31931029  0.41026951  0.41263143  1  1.680451  0  0.26661  0.701621  0  4.199507  0
C  C29  1  0.31521828  0.43137876  0.57386963  1  1.585572  0  0.269672  0.652415  0  4.078561  0
C  C30  1  0.83177354  0.58796068  0.58584203  1  1.694496  0  0.270201  0.694092  0  4.197558  0
C  C31  1  0.82602957  0.57068844  0.42753289  1  1.571384  0  0.265183  0.654169  0  4.07986  0
C  C32  1  0.83058701  0.61357729  0.38245002  1  0.001194  0  -0.0145  -0.070304  0  3.923234  0
C  C33  1  0.68155720  0.61277194  0.33945422  1  -0.196065  0  -0.038395  0.055754  0  3.877247  0
C  C34  1  0.69784421  0.65665877  0.30086308  1  0.00368  0  -0.090669  -0.183959  0  3.939302  0
C  C35  1  0.86334936  0.70222135  0.30432361  1  0.326413  0  0.090407  0.189511  0  4.034852  0
C  C36  1  0.01476126  0.70235286  0.34570225  1  -0.035384  0  -0.080923  -0.146368  0  3.9645  0
C  C37  1  0.99681935  0.65848867  0.38404608  1  -0.008173  0  -0.081269  -0.076311  0  4.000052  0
C  C38  1  0.95763326  0.82556280  0.18392245  1  -0.026464  0  -0.081251  -0.139523  0  3.941629  0
C  C39  1  0.96908914  0.86618064  0.14281626  1  -0.04049  0  -0.076326  -0.079504  0  3.961145  0
C  C40  1  0.76989971  0.79810740  0.19660964  1  0.34385  0  0.090046  0.1713  0  4.037424  0
C  C41  1  0.79411708  0.88095711  0.11477488  1  0.004617  0  -0.007288  -0.030299  0  3.949515  0
C  C42  1  0.60729528  0.85418481  0.12798044  1  -0.056993  0  -0.078499  -0.084722  0  3.968697  0
C  C43  1  0.59550553  0.81230966  0.16817492  1  0.003208  0  -0.076721  -0.135121  0  3.951787  0
C  C44  1  0.84621042  0.63627740  0.64023617  1  0.326328  0  -0.017769  -0.141172  0  3.881901  0
C  C45  1  0.90125146  0.72224455  0.73898258  1  -0.187985  0  -0.0254  0.080775  0  4.000043  0
C  C46  1  0.76382349  0.76904394  0.76320685  1  0.192188  0  -0.072049  -0.092052  0  4.040967  0
C  C47  1  0.78904591  0.81677616  0.81501667  1  -0.470036  0  -0.029267  0.021399  0  4.164396  0
C  C48  1  0.86934424  0.67645138  0.68642964  1  -0.500275  0  -0.029949  -0.021647  0  4.137383  0
C  C49  1  0.80356941  0.85944590  0.86005245  1  0.207219  0  -0.023842  -0.178816  0  3.902932  0
C  C50  1  0.31914419  0.13603674  0.14111094  1  0.234891  0  -0.028672  -0.178091  0  3.908526  0
C  C51  1  0.27887023  0.22200412  0.24028662  1  0.197678  0  0.007592  0.104681  0  4.033193  0
C  C52  1  0.36721462  0.28553976  0.25441422  1  -0.135306  0  -0.035279  0.002238  0  3.975189  0
C  C53  1  0.34473084  0.32885140  0.30844214  1  -0.324188  0  -0.025147  0.003373  0  4.160088  0
C  C54  1  0.30622927  0.17833872  0.18625293  1  -0.518553  0  -0.021143  -0.020819  0  4.1194  0
C  C55  1  0.32709643  0.36610637  0.35614176  1  0.085646  0  -0.029141  -0.172916  0  3.896733  0
C  C56  1  0.31320288  0.38884688  0.61949072  1  0.05613  0  -0.014985  -0.059627  0  3.931511  0
C  C57  1  0.16803361  0.39175082  0.66386053  1  -0.213584  0  -0.045678  0.01451  0  3.844767  0
C  C58  1  0.17301200  0.34533481  0.70157197  1  -0.132589  0  -0.050657  -0.042962  0  3.81717  0
C  C59  1  0.32340900  0.29556581  0.69388335  1  0.308703  0  0.084095  0.150652  0  4.015098  0
C  C60  1  0.46678228  0.29375923  0.64981218  1  0.008366  0  -0.084808  -0.141462  0  3.98676  0
C  C61  1  0.46489236  0.34076808  0.61435688  1  -0.025882  0  -0.081432  -0.080853  0  3.996736  0
C  C62  1  0.46932264  0.15804082  0.80717548  1  -0.247329  0  -0.044467  -0.001597  0  3.853604  0
C  C63  1  0.47437535  0.11628677  0.84790261  1  0.038658  0  -0.085811  -0.120149  0  3.957879  0
C  C64  1  0.31471479  0.20552826  0.81003829  1  0.346814  0  0.08505  0.138703  0  4.024377  0
C  C65  1  0.31927817  0.11730414  0.88838284  1  -0.04092  0  -0.010491  -0.024836  0  3.9606  0
C  C66  1  0.16005984  0.16188615  0.88940820  1  0.027047  0  -0.079799  -0.0827  0  3.976046  0
C  C67  1  0.16351673  0.20722452  0.85231832  1  -0.021876  0  -0.084287  -0.140402  0  3.979373  0
C  C68  1  0.32452419  0.07232032  0.93156897  1  1.556576  0  0.268522  0.642102  0  4.099478  0
C  C69  1  0.31845187  0.08580103  0.08787926  1  1.697253  0  0.276911  0.715193  0  4.164151  0
C  C70  1  0.80390172  0.92436935  0.07029810  1  1.559777  0  0.266395  0.635143  0  4.110087  0
C  C71  1  0.81303111  0.90978097  0.91318593  1  1.678649  0  0.277173  0.713597  0  4.162213  0
C  C72  1  0.13906394  0.19680556  0.28276304  1  0.019046  0  -0.149398  -0.184996  0  3.922816  0
C  C73  1  0.91872766  0.21325359  0.27340674  1  0.008889  0  -0.165609  -0.091474  0  3.951596  0
C  C74  1  0.77899041  0.18826082  0.31663772  1  -0.028476  0  -0.245088  -0.348447  0  3.965415  0
I  I75  1  0.17945924  0.71499941  0.78000846  1  0.159239  0  0.10838  0.008371  0  1.317684  0
I  I76  1  0.54998398  0.32535853  0.19538382  1  0.154433  0  0.101879  -0.002804  0  1.342388  0
I  I77  1  0.70560904  0.14807123  0.74657755  1  0.139827  0  0.077066  -0.025633  0  1.490736  0
I  I78  1  0.94632513  0.34715181  0.76468451  1  0.170765  0  0.089067  -0.01031  0  1.684887  0
I  I79  1  0.95712279  0.47003251  0.67770075  1  0.174118  0  0.103045  0.018226  0  1.656494  0
I  I80  1  0.43594874  0.54261478  0.32506451  1  0.142758  0  0.099005  -0.000451  0  1.519672  0
N  N81  1  0.89274037  0.74789330  0.26646036  1  -0.473177  0  -0.144896  -0.130459  0  3.262213  0
N  N82  1  0.74000411  0.75479001  0.23632423  1  -0.486891  0  -0.145537  -0.129313  0  3.280171  0
N  N83  1  0.34140454  0.24210642  0.72465996  1  -0.43022  0  -0.141224  -0.108693  0  3.29959  0
N  N84  1  0.30055947  0.25738962  0.77794324  1  -0.446423  0  -0.140063  -0.092746  0  3.351177  0
O  O85  1  0.48784576  0.44780433  0.55704551  1  -1.248859  0  -0.229452  -0.583345  0  2.357348  0
O  O86  1  0.14645402  0.42790591  0.43276051  1  -1.243201  0  -0.231908  -0.584718  0  2.278357  0
O  O87  1  0.99637142  0.55402655  0.44423937  1  -1.251335  0  -0.238831  -0.60525  0  2.361847  0
O  O88  1  0.14873907  0.44458775  0.55289596  1  -1.263534  0  -0.2325  -0.586204  0  2.396674  0
O  O89  1  0.99842655  0.56898769  0.56236890  1  -1.235137  0  -0.223458  -0.573747  0  2.326773  0
O  O90  1  0.48873743  0.42725301  0.43711685  1  -1.2347  0  -0.231901  -0.593999  0  2.315001  0
O  O91  1  0.32536104  0.53961936  0.50105376  1  -1.42402  0  -0.445798  -0.984006  0  2.194958  0
O  O92  1  0.65696869  0.56919830  0.56637322  1  -1.232481  0  -0.222861  -0.563197  0  2.286434  0
O  O93  1  0.65593942  0.55627393  0.44729680  1  -1.260104  0  -0.239724  -0.605772  0  2.398206  0
O  O94  1  0.81886763  0.45772347  0.49493615  1  -1.424138  0  -0.445973  -0.984159  0  2.180974  0
O  O95  1  0.14617981  0.06104842  0.07037436  1  -1.237949  0  -0.225232  -0.577059  0  2.287728  0
O  O96  1  0.49500183  0.05087282  0.94325820  1  -1.253807  0  -0.236272  -0.589779  0  2.331126  0
O  O97  1  0.64471235  0.92724534  0.93668581  1  -1.231379  0  -0.22536  -0.57938  0  2.290277  0
O  O98  1  0.48614295  0.07048459  0.06309612  1  -1.23732  0  -0.227575  -0.582966  0  2.276157  0
O  O99  1  0.63659206  0.94491809  0.05518858  1  -1.252284  0  -0.235706  -0.593563  0  2.364324  0
O  O100  1  0.15707997  0.06021657  0.95428469  1  -1.252415  0  -0.237091  -0.600552  0  2.353326  0
O  O101  1  0.31311393  0.95630440  0.99550078  1  -1.426769  0  -0.447944  -0.994009  0  2.196464  0
O  O102  1  0.97611581  0.93655603  0.05036327  1  -1.25012  0  -0.236649  -0.59301  0  2.336942  0
O  O103  1  0.98620280  0.93206292  0.93211368  1  -1.234144  0  -0.225202  -0.577759  0  2.275005  0
O  O104  1  0.81961429  0.03915769  0.00526259  1  -1.446999  0  -0.447393  -0.994623  0  2.199564  0
