# generated using pymatgen
data_CuH9C9N2ClO2
_symmetry_space_group_name_H-M   'P 1'
_cell_length_a   7.73201102
_cell_length_b   9.83404439
_cell_length_c   13.44610501
_cell_angle_alpha   90.00023269
_cell_angle_beta   104.88282675
_cell_angle_gamma   90.02249897
_symmetry_Int_Tables_number   1
_chemical_formula_structural   CuH9C9N2ClO2
_chemical_formula_sum   'Cu4 H36 C36 N8 Cl4 O8'
_cell_volume   988.10222507
_cell_formula_units_Z   4
loop_
 _symmetry_equiv_pos_site_id
 _symmetry_equiv_pos_as_xyz
  1  'x, y, z'
loop_
 _atom_site_type_symbol
 _atom_site_label
 _atom_site_symmetry_multiplicity
 _atom_site_fract_x
 _atom_site_fract_y
 _atom_site_fract_z
 _atom_site_occupancy
 _atom_site_pbe_cm5_charge
 _atom_site_pbe_ddec_charge
 _atom_site_pbe_ddec_spin_density
 _atom_site_pbe_ddec_sum_bond_order
 _atom_site_pbe_magmom
Cu  Cu0  1  0.30042491  0.62347246  0.68860760  1  0.676694  0.719432  -0.717987  2.362591  -0.533
Cu  Cu1  1  0.69965553  0.12346077  0.81139175  1  0.67668  0.719309  0.717959  2.363014  0.533
Cu  Cu2  1  0.69944491  0.37648562  0.31140567  1  0.676768  0.719239  -0.718035  2.362764  -0.533
Cu  Cu3  1  0.30051643  0.87650651  0.18862310  1  0.676853  0.719538  0.718045  2.363075  0.533
H  H4  1  0.34007328  0.63308842  0.40897334  1  0.126708  0.123713  -0.002607  1.015741  -0.004
H  H5  1  0.65989337  0.13302365  0.09103503  1  0.126778  0.123787  0.002612  1.015871  0.004
H  H6  1  0.65995029  0.36693273  0.59103925  1  0.126762  0.123808  -0.002605  1.015796  -0.004
H  H7  1  0.34013283  0.86701378  0.90896976  1  0.126793  0.123692  0.002606  1.015997  0.004
H  H8  1  0.42180132  0.84748510  0.47276013  1  0.101307  0.094041  -0.003824  1.007842  -0.005
H  H9  1  0.57815237  0.34745156  0.02723616  1  0.10135  0.094227  0.003825  1.007927  0.005
H  H10  1  0.57817281  0.15248012  0.52725717  1  0.101345  0.093968  -0.003831  1.007944  -0.005
H  H11  1  0.42168892  0.65258583  0.97270825  1  0.101399  0.094329  0.003823  1.007848  0.005
H  H12  1  0.57689286  0.81577383  0.59473782  1  0.106796  0.096956  -0.000191  0.987111  0.0
H  H13  1  0.42320008  0.31557399  0.90522776  1  0.10681  0.096881  0.00019  0.987252  0.0
H  H14  1  0.42304531  0.18415478  0.40530175  1  0.10682  0.096889  -0.000191  0.987045  0.0
H  H15  1  0.57687070  0.68442785  0.09465412  1  0.107009  0.097194  0.00019  0.986633  0.0
H  H16  1  0.20446153  0.39862144  0.34776102  1  0.112417  0.139791  -0.000718  1.015765  -0.001
H  H17  1  0.79546312  0.89869426  0.15221640  1  0.112357  0.139697  0.000717  1.01615  0.001
H  H18  1  0.79552286  0.60138751  0.65219381  1  0.112416  0.13979  -0.000718  1.015594  -0.001
H  H19  1  0.20446160  0.10136959  0.84780486  1  0.112353  0.13975  0.000718  1.015749  0.001
H  H20  1  0.12927555  0.33601888  0.69791481  1  0.113032  0.094535  -0.00137  1.009773  -0.002
H  H21  1  0.87072152  0.83617886  0.80207929  1  0.113009  0.094506  0.001368  1.00997  0.002
H  H22  1  0.87062580  0.66394531  0.30201826  1  0.112906  0.094268  -0.001375  1.0096  -0.002
H  H23  1  0.12950306  0.16385860  0.19800197  1  0.112929  0.094255  0.001372  1.00988  0.002
H  H24  1  0.06942135  0.17884865  0.39003661  1  0.099117  0.10386  0.000962  1.032825  0.0
H  H25  1  0.93041959  0.67894999  0.10991872  1  0.0993  0.103884  -0.000962  1.032736  0.0
H  H26  1  0.93058692  0.82114098  0.60989268  1  0.099287  0.103956  0.000964  1.032674  0.0
H  H27  1  0.06937020  0.32103147  0.89011934  1  0.099276  0.103993  -0.000965  1.032269  0.0
H  H28  1  0.03249433  0.14870825  0.57122709  1  0.099238  0.114659  0.000274  1.029799  -0.001
H  H29  1  0.96740274  0.64885621  0.92872560  1  0.099122  0.114514  -0.000271  1.029618  0.001
H  H30  1  0.96746978  0.85124985  0.42869652  1  0.099162  0.11457  0.000274  1.029602  -0.001
H  H31  1  0.03257982  0.35112833  0.07135019  1  0.099043  0.114465  -0.000273  1.029863  0.001
H  H32  1  0.39670745  0.03121305  0.59002175  1  0.101568  0.12519  -0.000298  1.008305  0.0
H  H33  1  0.60342430  0.53116439  0.91000101  1  0.101704  0.125359  0.000297  1.008212  0.0
H  H34  1  0.60339652  0.96874711  0.41001964  1  0.10162  0.125423  -0.000298  1.007834  0.0
H  H35  1  0.39662570  0.46886694  0.08996782  1  0.101725  0.125536  0.000297  1.007908  0.0
H  H36  1  0.20084620  0.93149579  0.57010896  1  0.099442  0.119467  0.000352  0.998332  0.0
H  H37  1  0.79924581  0.43152071  0.92989195  1  0.099491  0.119563  -0.000353  0.998327  0.0
H  H38  1  0.79914880  0.06861383  0.42982956  1  0.099469  0.119476  0.000352  0.998581  0.0
H  H39  1  0.20083443  0.56853299  0.07019508  1  0.099536  0.11962  -0.000353  0.998353  0.0
C  C40  1  0.23636658  0.47779868  0.50015844  1  0.112869  0.18987  -0.002781  3.989897  -0.003
C  C41  1  0.76361641  0.97786026  0.99984317  1  0.112872  0.190269  0.002783  3.98954  0.003
C  C42  1  0.76359383  0.52219095  0.49980926  1  0.112815  0.190193  -0.002779  3.990039  -0.003
C  C43  1  0.23647687  0.02218938  0.00019518  1  0.112693  0.190148  0.002778  3.989421  0.003
C  C44  1  0.37899795  0.91584768  0.72051118  1  0.205576  0.632315  -0.000305  4.125348  0.002
C  C45  1  0.62102569  0.41580328  0.77950797  1  0.205703  0.63283  0.000306  4.124642  -0.002
C  C46  1  0.62084233  0.08418565  0.27947994  1  0.20589  0.632646  -0.0003  4.124989  0.002
C  C47  1  0.37915847  0.58421384  0.22052947  1  0.2059  0.632729  0.000304  4.125294  -0.002
C  C48  1  0.31554142  0.60795780  0.48391038  1  0.089638  0.055933  0.003461  3.836716  0.004
C  C49  1  0.68447612  0.10795622  0.01610975  1  0.089371  0.055058  -0.00345  3.83812  -0.004
C  C50  1  0.68440846  0.39204199  0.51607958  1  0.089362  0.055591  0.003462  3.836313  0.004
C  C51  1  0.31560099  0.89209952  0.98391137  1  0.089496  0.055725  -0.003447  3.837128  -0.004
C  C52  1  0.43406714  0.82182635  0.55398068  1  -0.064083  -0.018997  -0.003519  3.924127  -0.002
C  C53  1  0.56599067  0.32173923  0.94604006  1  -0.064217  -0.019037  0.003521  3.924409  0.002
C  C54  1  0.56589090  0.17813175  0.44603056  1  -0.064367  -0.019067  -0.003518  3.924699  -0.002
C  C55  1  0.43402325  0.67827583  0.05393022  1  -0.064442  -0.019383  0.003519  3.923964  0.002
C  C56  1  0.18420856  0.37922971  0.42376703  1  -0.067627  -0.139238  -0.0011  3.901837  -0.001
C  C57  1  0.81575003  0.87931761  0.07623012  1  -0.06742  -0.13897  0.001101  3.902373  0.001
C  C58  1  0.81579184  0.62075381  0.57618344  1  -0.067528  -0.139593  -0.0011  3.901731  -0.001
C  C59  1  0.18423366  0.12074015  0.92381385  1  -0.067472  -0.139578  0.001104  3.901847  0.001
C  C60  1  0.14500876  0.34371786  0.61988256  1  0.058582  0.119465  0.000627  3.904984  0.002
C  C61  1  0.85498305  0.84385605  0.88011230  1  0.058201  0.118842  -0.000632  3.904351  -0.002
C  C62  1  0.85493551  0.65623312  0.38007238  1  0.058627  0.119352  0.000627  3.904546  0.002
C  C63  1  0.14514381  0.15617630  0.11995027  1  0.058588  0.119616  -0.000627  3.904414  -0.002
C  C64  1  0.10950014  0.25828725  0.44808741  1  -0.067837  -0.048862  0.003388  3.983909  0.003
C  C65  1  0.89040991  0.75842874  0.05187759  1  -0.068242  -0.049481  -0.00339  3.984344  -0.003
C  C66  1  0.89050555  0.74170340  0.55185341  1  -0.067884  -0.048557  0.003389  3.983541  0.003
C  C67  1  0.10951226  0.24160156  0.94816338  1  -0.068145  -0.048847  -0.003393  3.983867  -0.003
C  C68  1  0.09134466  0.23993210  0.54759739  1  -0.075229  -0.105634  -0.002474  3.92677  -0.003
C  C69  1  0.90860108  0.74005681  0.95237097  1  -0.074869  -0.104828  0.002478  3.925871  0.003
C  C70  1  0.90861427  0.76003820  0.45234926  1  -0.075196  -0.105438  -0.002476  3.926397  -0.003
C  C71  1  0.09142413  0.25995418  0.04768425  1  -0.075036  -0.105405  0.002479  3.926272  0.003
C  C72  1  0.34621429  0.93114730  0.60466912  1  -0.167528  -0.334324  -0.000693  3.938639  -0.001
C  C73  1  0.65386166  0.43111874  0.89535698  1  -0.167725  -0.334791  0.00069  3.939283  0.001
C  C74  1  0.65377180  0.06885148  0.39533653  1  -0.167555  -0.33438  -0.0007  3.938487  -0.001
C  C75  1  0.34622346  0.56891564  0.10466308  1  -0.1679  -0.335022  0.000697  3.938582  0.001
N  N76  1  0.21470432  0.45992498  0.59655432  1  -0.334711  -0.263986  -0.061524  3.591676  -0.077
N  N77  1  0.78527036  0.96003756  0.90342667  1  -0.334543  -0.263815  0.061463  3.590974  0.076
N  N78  1  0.78525753  0.54005346  0.40342772  1  -0.334682  -0.263897  -0.06154  3.591891  -0.077
N  N79  1  0.21483889  0.04002632  0.09660136  1  -0.334465  -0.263891  0.061563  3.590912  0.077
N  N80  1  0.35368421  0.69032271  0.56076688  1  -0.350294  -0.189469  -0.0726  3.581374  -0.091
N  N81  1  0.64639871  0.19031646  0.93927700  1  -0.349913  -0.188748  0.072641  3.58131  0.091
N  N82  1  0.64620155  0.30965470  0.43923011  1  -0.349976  -0.189069  -0.072603  3.581284  -0.091
N  N83  1  0.35367708  0.80972504  0.06074616  1  -0.350325  -0.189516  0.072589  3.581563  0.091
Cl  Cl84  1  0.17381967  0.55096411  0.81439428  1  -0.314394  -0.518347  -0.067368  1.157645  -0.076
Cl  Cl85  1  0.82622216  0.05107045  0.68559838  1  -0.314339  -0.518348  0.067387  1.158181  0.076
Cl  Cl86  1  0.82620654  0.44884452  0.18562166  1  -0.314507  -0.518477  -0.067327  1.157381  -0.076
Cl  Cl87  1  0.17378104  0.94886020  0.31437183  1  -0.314372  -0.518424  0.067313  1.158104  0.076
O  O88  1  0.41380972  0.02045050  0.77591986  1  -0.328472  -0.572987  -0.014308  2.242692  -0.018
O  O89  1  0.58607938  0.52031524  0.72406309  1  -0.328575  -0.573391  0.014321  2.243007  0.018
O  O90  1  0.58609743  0.97956657  0.22407728  1  -0.328815  -0.573477  -0.014318  2.24286  -0.018
O  O91  1  0.41396003  0.47964084  0.27592280  1  -0.328616  -0.573299  0.014297  2.243012  0.018
O  O92  1  0.36995603  0.79718919  0.76071217  1  -0.332877  -0.537329  -0.072008  2.33681  -0.098
O  O93  1  0.63015157  0.29714334  0.73931719  1  -0.332765  -0.537397  0.072019  2.336406  0.098
O  O94  1  0.62970104  0.20280445  0.23927162  1  -0.332742  -0.537117  -0.071989  2.337491  -0.098
O  O95  1  0.37014628  0.70284836  0.26072937  1  -0.332897  -0.53729  0.07199  2.337337  0.098
