# generated using pymatgen
data_DyAgH6C12(NO2)4
_symmetry_space_group_name_H-M   'P 1'
_cell_length_a   8.05571020
_cell_length_b   10.07522099
_cell_length_c   18.33306721
_cell_angle_alpha   90.00059677
_cell_angle_beta   89.99994131
_cell_angle_gamma   95.53545977
_symmetry_Int_Tables_number   1
_chemical_formula_structural   DyAgH6C12(NO2)4
_chemical_formula_sum   'Dy4 Ag4 H24 C48 N16 O32'
_cell_volume   1481.02898775
_cell_formula_units_Z   4
loop_
 _symmetry_equiv_pos_site_id
 _symmetry_equiv_pos_as_xyz
  1  'x, y, z'
loop_
 _atom_site_type_symbol
 _atom_site_label
 _atom_site_symmetry_multiplicity
 _atom_site_fract_x
 _atom_site_fract_y
 _atom_site_fract_z
 _atom_site_occupancy
 _atom_site_hle17_bader_spin_density
 _atom_site_hle17_ddec_charge
 _atom_site_hle17_ddec_spin_density
 _atom_site_hle17_ddec_sum_bond_order
 _atom_site_hle17_magmom
 _atom_site_hse06_10hf_bader_spin_density
 _atom_site_hse06_10hf_ddec_charge
 _atom_site_hse06_10hf_ddec_spin_density
 _atom_site_hse06_10hf_ddec_sum_bond_order
 _atom_site_hse06_10hf_magmom
 _atom_site_hse06_bader_spin_density
 _atom_site_hse06_ddec_charge
 _atom_site_hse06_ddec_spin_density
 _atom_site_hse06_ddec_sum_bond_order
 _atom_site_hse06_magmom
 _atom_site_pbe_bader_spin_density
 _atom_site_pbe_cm5_charge
 _atom_site_pbe_ddec_charge
 _atom_site_pbe_ddec_spin_density
 _atom_site_pbe_ddec_sum_bond_order
 _atom_site_pbe_magmom
Dy  Dy0  1  0.24230258  0.85840415  0.10606485  1  0  2.159347  0  1.675669  0  0  1.982846  0  2.181791  0  0  2.035232  0  2.140768  0  0  1.468131  1.942278  0  2.215033  0
Dy  Dy1  1  0.25769878  0.14159063  0.60606642  1  0  2.159335  0  1.675715  0  0  1.982829  0  2.181861  0  0  2.035218  0  2.140832  0  0  1.468097  1.942253  0  2.215115  0
Dy  Dy2  1  0.75770225  0.14159317  0.89393466  1  0  2.159317  0  1.67574  0  0  1.982813  0  2.181869  0  0  2.035202  0  2.140843  0  0  1.468112  1.942176  0  2.215215  0
Dy  Dy3  1  0.74229625  0.85840770  0.39393255  1  0  2.159277  0  1.675636  0  0  1.98273  0  2.181801  0  0  2.035117  0  2.140775  0  0  1.468093  1.942158  0  2.215054  0
Ag  Ag4  1  0.89667100  0.35203152  0.07358860  1  0  0.612462  0  1.293132  0  0  0.476764  0  1.723067  0  0  0.506673  0  1.673674  0  0  0.483814  0.45759  0  1.756468  0
Ag  Ag5  1  0.60334425  0.64796824  0.57358768  1  0  0.612336  0  1.293182  0  0  0.476712  0  1.723  0  0  0.50661  0  1.673638  0  0  0.483781  0.457537  0  1.7564  0
Ag  Ag6  1  0.10333804  0.64796979  0.92641582  1  0  0.612331  0  1.293211  0  0  0.476714  0  1.723035  0  0  0.506619  0  1.673655  0  0  0.483769  0.457539  0  1.756438  0
Ag  Ag7  1  0.39666019  0.35203606  0.42641292  1  0  0.612367  0  1.293206  0  0  0.476712  0  1.723057  0  0  0.506596  0  1.673713  0  0  0.483772  0.457539  0  1.75646  0
H  H8  1  0.88550427  0.65142410  0.08411306  1  0  0.115339  0  0.984853  0  0  0.116612  0  1.055829  0  0  0.121209  0  1.050455  0  0  0.125398  0.113119  0  1.060046  0
H  H9  1  0.61450304  0.34857189  0.58411097  1  0  0.115299  0  0.984996  0  0  0.116574  0  1.055955  0  0  0.121171  0  1.050582  0  0  0.125396  0.113085  0  1.060162  0
H  H10  1  0.11450501  0.34857921  0.91589245  1  0  0.115251  0  0.985043  0  0  0.116532  0  1.055995  0  0  0.121128  0  1.050625  0  0  0.125409  0.113045  0  1.060197  0
H  H11  1  0.38549756  0.65143142  0.41588854  1  0  0.115338  0  0.984906  0  0  0.116599  0  1.055909  0  0  0.121194  0  1.050536  0  0  0.125403  0.113111  0  1.060118  0
H  H12  1  0.68562114  0.82862051  0.09294193  1  0  0.09523  0  0.941194  0  0  0.103953  0  1.001475  0  0  0.105704  0  1.001515  0  0  0.126979  0.102542  0  1.001751  0
H  H13  1  0.81438481  0.17137465  0.59294309  1  0  0.095186  0  0.94128  0  0  0.103943  0  1.001544  0  0  0.105695  0  1.00158  0  0  0.126961  0.102531  0  1.001822  0
H  H14  1  0.31438542  0.17138080  0.90706468  1  0  0.09527  0  0.941267  0  0  0.103974  0  1.001585  0  0  0.105725  0  1.001627  0  0  0.127001  0.102562  0  1.001863  0
H  H15  1  0.18561070  0.82862767  0.40705314  1  0  0.095213  0  0.941231  0  0  0.103955  0  1.001538  0  0  0.105705  0  1.001581  0  0  0.12696  0.102544  0  1.001814  0
H  H16  1  0.48428344  0.35808239  0.08517651  1  0  0.113946  0  0.913089  0  0  0.121707  0  0.974224  0  0  0.124842  0  0.972172  0  0  0.128338  0.119456  0  0.975678  0
H  H17  1  0.01572797  0.64191298  0.58518105  1  0  0.113912  0  0.913153  0  0  0.121661  0  0.974321  0  0  0.124794  0  0.972274  0  0  0.128357  0.119409  0  0.975775  0
H  H18  1  0.51572573  0.64191992  0.91482082  1  0  0.113905  0  0.913135  0  0  0.121664  0  0.974287  0  0  0.124799  0  0.972235  0  0  0.128332  0.119413  0  0.975741  0
H  H19  1  0.98427362  0.35808833  0.41482064  1  0  0.113935  0  0.913142  0  0  0.121686  0  0.974295  0  0  0.124819  0  0.972249  0  0  0.128378  0.119436  0  0.97575  0
H  H20  1  0.23370638  0.36319789  0.25614852  1  0  0.095403  0  0.915035  0  0  0.104211  0  0.971791  0  0  0.107277  0  0.970146  0  0  0.124817  0.101948  0  0.973133  0
H  H21  1  0.26628665  0.63680273  0.75614910  1  0  0.095384  0  0.915074  0  0  0.104198  0  0.971818  0  0  0.107263  0  0.970177  0  0  0.124825  0.101935  0  0.973161  0
H  H22  1  0.76629037  0.63680443  0.74385153  1  0  0.095447  0  0.915018  0  0  0.104245  0  0.971774  0  0  0.107308  0  0.970133  0  0  0.124859  0.101982  0  0.973116  0
H  H23  1  0.73371010  0.36319958  0.24385205  1  0  0.095376  0  0.915065  0  0  0.104196  0  0.971795  0  0  0.107262  0  0.970153  0  0  0.124811  0.101934  0  0.973138  0
H  H24  1  0.37956008  0.05354780  0.38309090  1  0  0.088795  0  0.968551  0  0  0.095767  0  1.035608  0  0  0.098124  0  1.033198  0  0  0.124435  0.093795  0  1.03789  0
H  H25  1  0.12043046  0.94645524  0.88309277  1  0  0.088838  0  0.968519  0  0  0.095787  0  1.035605  0  0  0.098145  0  1.033194  0  0  0.124431  0.09381  0  1.037895  0
H  H26  1  0.62044200  0.94645750  0.61690970  1  0  0.088737  0  0.968545  0  0  0.095717  0  1.03562  0  0  0.09807  0  1.033217  0  0  0.124412  0.093751  0  1.037882  0
H  H27  1  0.87956393  0.05354808  0.11690620  1  0  0.088774  0  0.968609  0  0  0.095782  0  1.035609  0  0  0.098139  0  1.033199  0  0  0.124429  0.093804  0  1.037897  0
H  H28  1  0.19591518  0.20666319  0.14849125  1  0  0.114713  0  0.971688  0  0  0.115445  0  1.044147  0  0  0.120086  0  1.039558  0  0  0.123019  0.111771  0  1.047906  0
H  H29  1  0.30406980  0.79333041  0.64848998  1  0  0.114709  0  0.971744  0  0  0.11559  0  1.044003  0  0  0.12023  0  1.039426  0  0  0.123056  0.111913  0  1.047769  0
H  H30  1  0.80407352  0.79333415  0.85151154  1  0  0.114743  0  0.971721  0  0  0.115578  0  1.044032  0  0  0.120228  0  1.039422  0  0  0.123072  0.111902  0  1.047799  0
H  H31  1  0.69591765  0.20666693  0.35150790  1  0  0.114684  0  0.971756  0  0  0.115532  0  1.044079  0  0  0.120166  0  1.039513  0  0  0.12306  0.111859  0  1.04784  0
C  C32  1  0.75147134  0.62564951  0.08639414  1  0  0.106498  0  3.598377  0  0  0.076584  0  3.848495  0  0  0.08246  0  3.861862  0  0  0.065459  0.072406  0  3.840134  0
C  C33  1  0.74853734  0.37434751  0.58639105  1  0  0.10652  0  3.598667  0  0  0.076654  0  3.848784  0  0  0.082533  0  3.862149  0  0  0.065524  0.072473  0  3.840422  0
C  C34  1  0.24853770  0.37435179  0.91360918  1  0  0.106559  0  3.598737  0  0  0.076693  0  3.848862  0  0  0.082572  0  3.862226  0  0  0.065484  0.072512  0  3.8405  0
C  C35  1  0.25146302  0.62565381  0.41360628  1  0  0.106586  0  3.598525  0  0  0.076723  0  3.848659  0  0  0.082609  0  3.862019  0  0  0.065535  0.072537  0  3.840301  0
C  C36  1  0.64075841  0.72342753  0.09140725  1  0  0.127414  0  3.622387  0  0  0.100804  0  3.87437  0  0  0.102517  0  3.890632  0  0  0.071819  0.099332  0  3.863622  0
C  C37  1  0.85924381  0.27656760  0.59140736  1  0  0.127434  0  3.622468  0  0  0.100732  0  3.874546  0  0  0.102445  0  3.890808  0  0  0.071767  0.099259  0  3.863802  0
C  C38  1  0.35924815  0.27657378  0.90859717  1  0  0.127287  0  3.622496  0  0  0.100627  0  3.874568  0  0  0.102341  0  3.890823  0  0  0.071704  0.099153  0  3.863824  0
C  C39  1  0.14075269  0.72343272  0.40858888  1  0  0.127408  0  3.62236  0  0  0.100675  0  3.874507  0  0  0.102382  0  3.89077  0  0  0.071829  0.099205  0  3.863762  0
C  C40  1  0.42069838  0.56201547  0.09291450  1  0  0.052084  0  3.745884  0  0  0.063906  0  3.984515  0  0  0.058939  0  4.004967  0  0  0.119416  0.06674  0  3.971004  0
C  C41  1  0.07931278  0.43797805  0.59291511  1  0  0.052001  0  3.745866  0  0  0.063959  0  3.984345  0  0  0.058993  0  4.004786  0  0  0.119542  0.066796  0  3.970833  0
C  C42  1  0.57931178  0.43798484  0.90708665  1  0  0.052173  0  3.74567  0  0  0.064046  0  3.984245  0  0  0.059081  0  4.004692  0  0  0.119576  0.066879  0  3.97073  0
C  C43  1  0.92068957  0.56201927  0.40708167  1  0  0.05199  0  3.745848  0  0  0.063889  0  3.98443  0  0  0.058922  0  4.00487  0  0  0.119456  0.066726  0  3.970921  0
C  C44  1  0.53041643  0.46331895  0.08769520  1  0  0.075941  0  3.647997  0  0  0.036396  0  3.901899  0  0  0.040877  0  3.920459  0  0  0.059278  0.033555  0  3.889432  0
C  C45  1  0.96959572  0.53667610  0.58769894  1  0  0.075963  0  3.647652  0  0  0.036368  0  3.901613  0  0  0.040845  0  3.920173  0  0  0.059194  0.033529  0  3.889143  0
C  C46  1  0.46959633  0.53668235  0.91230485  1  0  0.075883  0  3.647846  0  0  0.036329  0  3.901776  0  0  0.040811  0  3.920336  0  0  0.059212  0.033489  0  3.889308  0
C  C47  1  0.03040687  0.46332322  0.41230003  1  0  0.075947  0  3.647751  0  0  0.036372  0  3.901731  0  0  0.04085  0  3.920288  0  0  0.059193  0.03353  0  3.889264  0
C  C48  1  0.23422324  0.53062595  0.09338900  1  0  0.631415  0  3.960899  0  0  0.576665  0  4.260785  0  0  0.611852  0  4.252378  0  0  0.212118  0.552947  0  4.265566  0
C  C49  1  0.26579153  0.46936658  0.59338808  1  0  0.631495  0  3.960456  0  0  0.57669  0  4.260383  0  0  0.611897  0  4.251932  0  0  0.212058  0.552965  0  4.265178  0
C  C50  1  0.76578903  0.46937136  0.90661051  1  0  0.631325  0  3.960543  0  0  0.576542  0  4.260464  0  0  0.611729  0  4.252057  0  0  0.211994  0.552824  0  4.265242  0
C  C51  1  0.73421107  0.53063274  0.40661143  1  0  0.631315  0  3.960432  0  0  0.576479  0  4.260449  0  0  0.611688  0  4.251999  0  0  0.21196  0.552754  0  4.265246  0
C  C52  1  0.25830912  0.25891209  0.26093629  1  0  0.078201  0  3.666049  0  0  0.049068  0  3.92229  0  0  0.052296  0  3.938863  0  0  0.05787  0.046734  0  3.911575  0
C  C53  1  0.24168107  0.74108564  0.76093638  1  0  0.07827  0  3.665932  0  0  0.04914  0  3.922207  0  0  0.052357  0  3.938796  0  0  0.057891  0.046805  0  3.911493  0
C  C54  1  0.74168751  0.74108923  0.73906541  1  0  0.078143  0  3.666093  0  0  0.049014  0  3.922332  0  0  0.052242  0  3.938904  0  0  0.057813  0.046679  0  3.911618  0
C  C55  1  0.75831184  0.25891568  0.23906313  1  0  0.078264  0  3.66593  0  0  0.04917  0  3.922171  0  0  0.052383  0  3.938769  0  0  0.057935  0.046834  0  3.911458  0
C  C56  1  0.34256618  0.08983142  0.33046807  1  0  0.103033  0  3.658724  0  0  0.065231  0  3.914656  0  0  0.070113  0  3.930283  0  0  0.06393  0.061795  0  3.904992  0
C  C57  1  0.15742822  0.91017161  0.83046862  1  0  0.102976  0  3.658898  0  0  0.065169  0  3.914781  0  0  0.070023  0  3.930385  0  0  0.063943  0.061732  0  3.905117  0
C  C58  1  0.65743318  0.91017189  0.66953363  1  0  0.10308  0  3.658802  0  0  0.065217  0  3.914677  0  0  0.070086  0  3.930292  0  0  0.063946  0.061783  0  3.905018  0
C  C59  1  0.84256990  0.08983170  0.16953034  1  0  0.103048  0  3.6588  0  0  0.065272  0  3.914687  0  0  0.070129  0  3.93029  0  0  0.063966  0.061836  0  3.905025  0
C  C60  1  0.23843916  0.17296790  0.20111409  1  0  0.090334  0  3.652636  0  0  0.063771  0  3.910696  0  0  0.065474  0  3.926695  0  0  0.057947  0.062366  0  3.900551  0
C  C61  1  0.26154818  0.82702570  0.70111303  1  0  0.090242  0  3.652441  0  0  0.063569  0  3.910539  0  0  0.065292  0  3.92649  0  0  0.05785  0.062165  0  3.900397  0
C  C62  1  0.76155350  0.82703143  0.79888761  1  0  0.090309  0  3.652663  0  0  0.063707  0  3.910662  0  0  0.065411  0  3.926663  0  0  0.057955  0.062302  0  3.900516  0
C  C63  1  0.73844436  0.17297263  0.29888594  1  0  0.090329  0  3.652564  0  0  0.063592  0  3.910762  0  0  0.065322  0  3.926705  0  0  0.057832  0.062186  0  3.900621  0
C  C64  1  0.33496505  0.00639983  0.26984677  1  0  0.051538  0  3.720695  0  0  0.059764  0  3.961121  0  0  0.056744  0  3.978899  0  0  0.12469  0.061318  0  3.949656  0
C  C65  1  0.16502265  0.99359807  0.76984616  1  0  0.051473  0  3.720963  0  0  0.059851  0  3.961169  0  0  0.056931  0  3.97881  0  0  0.124778  0.061405  0  3.949703  0
C  C66  1  0.66502401  0.99360050  0.73015492  1  0  0.051592  0  3.720791  0  0  0.059982  0  3.96095  0  0  0.057014  0  3.978658  0  0  0.124794  0.061532  0  3.949486  0
C  C67  1  0.83496493  0.00640027  0.23015172  1  0  0.05143  0  3.720707  0  0  0.059607  0  3.961165  0  0  0.056683  0  3.978813  0  0  0.124645  0.061161  0  3.9497  0
C  C68  1  0.39855504  0.87032188  0.27203707  1  0  0.687192  0  3.886625  0  0  0.637164  0  4.185047  0  0  0.672667  0  4.173724  0  0  0.231381  0.613154  0  4.191688  0
C  C69  1  0.10143514  0.12967606  0.77203646  1  0  0.687206  0  3.886634  0  0  0.637179  0  4.184964  0  0  0.672654  0  4.17363  0  0  0.231359  0.613167  0  4.191605  0
C  C70  1  0.60143650  0.12967845  0.72796735  1  0  0.687133  0  3.88674  0  0  0.637185  0  4.184919  0  0  0.672674  0  4.173586  0  0  0.231406  0.613174  0  4.191562  0
C  C71  1  0.89855988  0.87032227  0.22796250  1  0  0.687299  0  3.886581  0  0  0.637312  0  4.184953  0  0  0.672784  0  4.173631  0  0  0.231441  0.613303  0  4.191597  0
C  C72  1  0.54258892  0.03897315  0.03255701  1  0  0.56338  0  3.9164  0  0  0.522138  0  4.211896  0  0  0.552758  0  4.201403  0  0  0.20667  0.501608  0  4.217675  0
C  C73  1  0.95740386  0.96102486  0.53255390  1  0  0.563236  0  3.916622  0  0  0.522075  0  4.211998  0  0  0.552695  0  4.201508  0  0  0.206637  0.501545  0  4.217779  0
C  C74  1  0.45740659  0.96102917  0.96743814  1  0  0.562726  0  3.917031  0  0  0.52205  0  4.211877  0  0  0.552673  0  4.20138  0  0  0.206594  0.501518  0  4.217659  0
C  C75  1  0.04259079  0.03897047  0.46743689  1  0  0.562879  0  3.917188  0  0  0.52217  0  4.212049  0  0  0.552794  0  4.201554  0  0  0.206683  0.501639  0  4.217832  0
C  C76  1  0.04395304  0.06824872  0.01201236  1  0  0.541723  0  3.941515  0  0  0.496254  0  4.243084  0  0  0.526804  0  4.23258  0  0  0.205204  0.475469  0  4.249423  0
C  C77  1  0.45605601  0.93174626  0.51201181  1  0  0.541784  0  3.941461  0  0  0.496346  0  4.242998  0  0  0.526912  0  4.232469  0  0  0.205292  0.47556  0  4.249339  0
C  C78  1  0.95605155  0.93174661  0.98799151  1  0  0.541743  0  3.941342  0  0  0.496272  0  4.242946  0  0  0.526845  0  4.23241  0  0  0.20519  0.475487  0  4.249284  0
C  C79  1  0.54395690  0.06824607  0.48798661  1  0  0.541725  0  3.941516  0  0  0.496252  0  4.243118  0  0  0.526819  0  4.232586  0  0  0.20524  0.475469  0  4.249457  0
N  N80  1  0.69603132  0.49567927  0.08350611  1  0  -0.269177  0  3.273359  0  0  -0.198429  0  3.564793  0  0  -0.213814  0  3.579055  0  0  -0.31565  -0.18833  0  3.555217  0
N  N81  1  0.80397860  0.50431770  0.58350700  1  0  -0.269139  0  3.273285  0  0  -0.198427  0  3.564749  0  0  -0.213811  0  3.57901  0  0  -0.31569  -0.188326  0  3.555171  0
N  N82  1  0.30398021  0.50432204  0.91649395  1  0  -0.269059  0  3.273335  0  0  -0.198374  0  3.564818  0  0  -0.213761  0  3.579083  0  0  -0.315643  -0.188274  0  3.555241  0
N  N83  1  0.19602287  0.49568262  0.41649196  1  0  -0.269175  0  3.273359  0  0  -0.198442  0  3.564808  0  0  -0.213826  0  3.579065  0  0  -0.315698  -0.18834  0  3.555234  0
N  N84  1  0.47610267  0.69231285  0.09379578  1  0  -0.328686  0  3.235733  0  0  -0.281491  0  3.488882  0  0  -0.289639  0  3.507743  0  0  -0.329022  -0.275391  0  3.475983  0
N  N85  1  0.02390217  0.30767970  0.59379622  1  0  -0.328604  0  3.235822  0  0  -0.281416  0  3.488942  0  0  -0.289564  0  3.507804  0  0  -0.329001  -0.275315  0  3.476041  0
N  N86  1  0.52390377  0.30768746  0.90620755  1  0  -0.328649  0  3.23554  0  0  -0.281451  0  3.488689  0  0  -0.289596  0  3.507545  0  0  -0.329  -0.275342  0  3.475785  0
N  N87  1  0.97609522  0.69231764  0.40620002  1  0  -0.328593  0  3.235731  0  0  -0.281355  0  3.488869  0  0  -0.289501  0  3.507729  0  0  -0.328974  -0.275255  0  3.475967  0
N  N88  1  0.30635355  0.21635216  0.32621874  1  0  -0.251122  0  3.234535  0  0  -0.191108  0  3.526557  0  0  -0.20252  0  3.537521  0  0  -0.309897  -0.183735  0  3.519689  0
N  N89  1  0.19364184  0.78364879  0.82621964  1  0  -0.251059  0  3.234534  0  0  -0.191103  0  3.526559  0  0  -0.202519  0  3.537541  0  0  -0.309886  -0.183728  0  3.519688  0
N  N90  1  0.69364705  0.78365115  0.67378186  1  0  -0.25109  0  3.234609  0  0  -0.191096  0  3.526615  0  0  -0.20251  0  3.537588  0  0  -0.309904  -0.183724  0  3.519746  0
N  N91  1  0.80635479  0.21635253  0.17378041  1  0  -0.251056  0  3.234545  0  0  -0.191057  0  3.526544  0  0  -0.202471  0  3.537522  0  0  -0.309851  -0.183682  0  3.519674  0
N  N92  1  0.27541482  0.04625091  0.20591324  1  0  -0.326104  0  3.225634  0  0  -0.277929  0  3.477041  0  0  -0.28654  0  3.495662  0  0  -0.333265  -0.271755  0  3.464715  0
N  N93  1  0.22457525  0.95374478  0.70591183  1  0  -0.326068  0  3.22564  0  0  -0.277987  0  3.4771  0  0  -0.286634  0  3.495697  0  0  -0.333325  -0.271813  0  3.464772  0
N  N94  1  0.72457548  0.95374942  0.79408900  1  0  -0.326161  0  3.225751  0  0  -0.278117  0  3.477208  0  0  -0.286744  0  3.495818  0  0  -0.333381  -0.271933  0  3.464878  0
N  N95  1  0.77541233  0.04625356  0.29408604  1  0  -0.326107  0  3.225626  0  0  -0.277899  0  3.477094  0  0  -0.286547  0  3.495694  0  0  -0.333256  -0.271724  0  3.464768  0
O  O96  1  0.14891866  0.63094493  0.09270912  1  0  -0.710723  0  2.098016  0  0  -0.655308  0  2.367769  0  0  -0.680227  0  2.352336  0  0  -0.383598  -0.637389  0  2.377634  0
O  O97  1  0.35109326  0.36904460  0.59270649  1  0  -0.71075  0  2.097646  0  0  -0.655341  0  2.367437  0  0  -0.680261  0  2.351986  0  0  -0.383648  -0.637422  0  2.377309  0
O  O98  1  0.85109077  0.36904940  0.90729258  1  0  -0.71064  0  2.097628  0  0  -0.655242  0  2.367417  0  0  -0.680156  0  2.35198  0  0  -0.383595  -0.637316  0  2.377283  0
O  O99  1  0.64890600  0.63094774  0.40729084  1  0  -0.710645  0  2.097756  0  0  -0.655204  0  2.367563  0  0  -0.680127  0  2.352115  0  0  -0.383576  -0.637284  0  2.377433  0
O  O100  1  0.17818996  0.40946157  0.09226938  1  0  -0.590263  0  2.055126  0  0  -0.528731  0  2.326121  0  0  -0.557163  0  2.31382  0  0  -0.309126  -0.508782  0  2.333841  0
O  O101  1  0.32182468  0.59052994  0.59226585  1  0  -0.590212  0  2.054953  0  0  -0.528684  0  2.325961  0  0  -0.557125  0  2.313653  0  0  -0.309066  -0.508731  0  2.333684  0
O  O102  1  0.82182343  0.59053475  0.90772959  1  0  -0.590172  0  2.055065  0  0  -0.528623  0  2.326032  0  0  -0.557059  0  2.313735  0  0  -0.309051  -0.508673  0  2.333751  0
O  O103  1  0.67817966  0.40946339  0.40773421  1  0  -0.590195  0  2.054845  0  0  -0.528645  0  2.325877  0  0  -0.557083  0  2.313567  0  0  -0.309043  -0.508692  0  2.333602  0
O  O104  1  0.49247320  0.84610815  0.32492720  1  0  -0.717541  0  2.052273  0  0  -0.667134  0  2.317286  0  0  -0.694624  0  2.308411  0  0  -0.379929  -0.64718  0  2.322623  0
O  O105  1  0.00751214  0.15389180  0.82492514  1  0  -0.717552  0  2.052279  0  0  -0.667172  0  2.317277  0  0  -0.694695  0  2.308479  0  0  -0.380008  -0.6472  0  2.322598  0
O  O106  1  0.50751586  0.15389218  0.67507667  1  0  -0.717503  0  2.052251  0  0  -0.667176  0  2.317262  0  0  -0.694689  0  2.308439  0  0  -0.379961  -0.647215  0  2.322582  0
O  O107  1  0.99248549  0.84610753  0.17507273  1  0  -0.717651  0  2.05224  0  0  -0.667281  0  2.317262  0  0  -0.694787  0  2.308433  0  0  -0.380013  -0.647315  0  2.322573  0
O  O108  1  0.35431030  0.79276021  0.21975428  1  0  -0.675421  0  1.994285  0  0  -0.629359  0  2.233917  0  0  -0.653532  0  2.223791  0  0  -0.371067  -0.612078  0  2.240158  0
O  O109  1  0.14567876  0.20723774  0.71975355  1  0  -0.6754  0  1.994221  0  0  -0.629349  0  2.233829  0  0  -0.653519  0  2.22371  0  0  -0.371011  -0.612069  0  2.240071  0
O  O110  1  0.64567888  0.20724112  0.78024959  1  0  -0.67542  0  1.994342  0  0  -0.629405  0  2.233915  0  0  -0.653573  0  2.223789  0  0  -0.371079  -0.612115  0  2.240159  0
O  O111  1  0.85431402  0.79276259  0.28024323  1  0  -0.675421  0  1.994332  0  0  -0.629365  0  2.233944  0  0  -0.653537  0  2.22383  0  0  -0.371058  -0.612084  0  2.240185  0
O  O112  1  0.49851774  0.99949978  0.09592504  1  0  -0.658314  0  2.068594  0  0  -0.615796  0  2.317047  0  0  -0.64021  0  2.311764  0  0  -0.372954  -0.598318  0  2.320107  0
O  O113  1  0.00148223  0.00050379  0.59592702  1  0  -0.658338  0  2.068451  0  0  -0.615813  0  2.316796  0  0  -0.640235  0  2.311522  0  0  -0.372954  -0.598331  0  2.319855  0
O  O114  1  0.50147578  0.00050653  0.90406737  1  0  -0.658194  0  2.068704  0  0  -0.615737  0  2.316726  0  0  -0.640156  0  2.311448  0  0  -0.372881  -0.598246  0  2.319786  0
O  O115  1  0.99852308  0.99949753  0.40407086  1  0  -0.658238  0  2.069123  0  0  -0.615803  0  2.317225  0  0  -0.640222  0  2.311948  0  0  -0.372937  -0.598324  0  2.320286  0
O  O116  1  0.65044587  0.13442946  0.01662593  1  0  -0.677552  0  2.11805  0  0  -0.630731  0  2.380908  0  0  -0.656061  0  2.37344  0  0  -0.36909  -0.612731  0  2.385034  0
O  O117  1  0.84955162  0.86557622  0.51662560  1  0  -0.677442  0  2.118405  0  0  -0.630647  0  2.381214  0  0  -0.655972  0  2.373748  0  0  -0.369061  -0.612659  0  2.385337  0
O  O118  1  0.34955473  0.86557385  0.98336921  1  0  -0.677394  0  2.118559  0  0  -0.630721  0  2.381137  0  0  -0.656042  0  2.373652  0  0  -0.369068  -0.612735  0  2.385271  0
O  O119  1  0.15045295  0.13442908  0.48337064  1  0  -0.677454  0  2.118238  0  0  -0.630775  0  2.380819  0  0  -0.656097  0  2.373337  0  0  -0.369101  -0.612786  0  2.38495  0
O  O120  1  0.16345748  0.06540792  0.05659952  1  0  -0.65629  0  2.106187  0  0  -0.609828  0  2.362449  0  0  -0.634101  0  2.355281  0  0  -0.361607  -0.592502  0  2.366861  0
O  O121  1  0.33654264  0.93458592  0.55660067  1  0  -0.656346  0  2.106094  0  0  -0.609878  0  2.362304  0  0  -0.634158  0  2.35513  0  0  -0.361644  -0.592548  0  2.366714  0
O  O122  1  0.83655332  0.93458740  0.94340108  1  0  -0.656309  0  2.106151  0  0  -0.609842  0  2.362375  0  0  -0.634121  0  2.355191  0  0  -0.361589  -0.592506  0  2.366787  0
O  O123  1  0.66344965  0.06541042  0.44340156  1  0  -0.656274  0  2.10646  0  0  -0.609784  0  2.362662  0  0  -0.63406  0  2.355486  0  0  -0.361598  -0.592459  0  2.367074  0
O  O124  1  0.98698712  0.17084332  0.98540548  1  0  -0.642536  0  2.144709  0  0  -0.579118  0  2.40924  0  0  -0.604126  0  2.398954  0  0  -0.345441  -0.56163  0  2.415757  0
O  O125  1  0.51301969  0.82915630  0.48540603  1  0  -0.642551  0  2.144855  0  0  -0.579179  0  2.409401  0  0  -0.604191  0  2.399105  0  0  -0.345524  -0.561702  0  2.415922  0
O  O126  1  0.01301634  0.82915301  0.01460112  1  0  -0.642582  0  2.144636  0  0  -0.57917  0  2.409158  0  0  -0.604187  0  2.398863  0  0  -0.345502  -0.561691  0  2.415674  0
O  O127  1  0.48698190  0.17084502  0.51459948  1  0  -0.642553  0  2.144486  0  0  -0.579163  0  2.409032  0  0  -0.604179  0  2.398736  0  0  -0.345488  -0.561681  0  2.41555  0
