# generated using pymatgen
data_Cu3H4C8N7
_symmetry_space_group_name_H-M   'P 1'
_cell_length_a   7.65368381
_cell_length_b   8.81159436
_cell_length_c   9.27966656
_cell_angle_alpha   62.60340368
_cell_angle_beta   65.76834926
_cell_angle_gamma   77.63981890
_symmetry_Int_Tables_number   1
_chemical_formula_structural   Cu3H4C8N7
_chemical_formula_sum   'Cu6 H8 C16 N14'
_cell_volume   506.43893142
_cell_formula_units_Z   2
loop_
 _symmetry_equiv_pos_site_id
 _symmetry_equiv_pos_as_xyz
  1  'x, y, z'
loop_
 _atom_site_type_symbol
 _atom_site_label
 _atom_site_symmetry_multiplicity
 _atom_site_fract_x
 _atom_site_fract_y
 _atom_site_fract_z
 _atom_site_occupancy
 _atom_site_hle17_bader_spin_density
 _atom_site_hle17_ddec_charge
 _atom_site_hle17_ddec_spin_density
 _atom_site_hle17_ddec_sum_bond_order
 _atom_site_hle17_magmom
 _atom_site_hse06_10hf_bader_spin_density
 _atom_site_hse06_10hf_ddec_charge
 _atom_site_hse06_10hf_ddec_spin_density
 _atom_site_hse06_10hf_ddec_sum_bond_order
 _atom_site_hse06_10hf_magmom
 _atom_site_hse06_bader_spin_density
 _atom_site_hse06_ddec_charge
 _atom_site_hse06_ddec_spin_density
 _atom_site_hse06_ddec_sum_bond_order
 _atom_site_hse06_magmom
 _atom_site_pbe_bader_spin_density
 _atom_site_pbe_cm5_charge
 _atom_site_pbe_ddec_charge
 _atom_site_pbe_ddec_spin_density
 _atom_site_pbe_ddec_sum_bond_order
 _atom_site_pbe_magmom
Cu  Cu0  1  0.76711639  0.96447729  0.23939317  1  0  0.288598  0  2.529723  0  0  0.225234  0  3.012491  0  0  0.207805  0  2.975576  0  0  0.466329  0.240048  0  3.034801  0
Cu  Cu1  1  0.23288337  0.03551572  0.76061206  1  0  0.288499  0  2.529656  0  0  0.225104  0  3.012444  0  0  0.20767  0  2.975537  0  0  0.466268  0.239925  0  3.034619  0
Cu  Cu2  1  0.64477545  0.34526369  0.53242079  1  0  0.53824  0  2.101336  0  0  0.4531  0  2.58483  0  0  0.442602  0  2.545381  0  0  0.609906  0.463941  0  2.608645  0
Cu  Cu3  1  0.35523294  0.65472820  0.46757872  1  0  0.538227  0  2.101269  0  0  0.453106  0  2.584759  0  0  0.442609  0  2.545289  0  0  0.609786  0.463936  0  2.608467  0
Cu  Cu4  1  0.08148348  0.13158349  0.52835875  1  0  0.396096  0  1.825043  0  0  0.268557  0  2.290795  0  0  0.278194  0  2.238619  0  0  0.49387  0.265075  0  2.32486  0
Cu  Cu5  1  0.91850480  0.86843362  0.47163776  1  0  0.396181  0  1.825134  0  0  0.268697  0  2.290913  0  0  0.278291  0  2.238727  0  0  0.493858  0.26519  0  2.325077  0
H  H6  1  0.44681972  0.49390311  0.77850294  1  0  0.107351  0  0.952837  0  0  0.111097  0  1.026676  0  0  0.116426  0  1.02063  0  0  0.106292  0.107032  0  1.031123  0
H  H7  1  0.55317819  0.50609627  0.22149691  1  0  0.107364  0  0.952833  0  0  0.111091  0  1.026685  0  0  0.116412  0  1.020657  0  0  0.106283  0.107032  0  1.031131  0
H  H8  1  0.15784849  0.61889226  0.94603621  1  0  0.112571  0  0.952732  0  0  0.122555  0  1.012185  0  0  0.124793  0  1.012926  0  0  0.108115  0.12086  0  1.011923  0
H  H9  1  0.84215747  0.38111623  0.05395582  1  0  0.112507  0  0.952718  0  0  0.122426  0  1.012255  0  0  0.124661  0  1.013002  0  0  0.108077  0.120744  0  1.011984  0
H  H10  1  0.00740893  0.45583064  0.26803690  1  0  0.086041  0  0.960362  0  0  0.092002  0  1.029938  0  0  0.095654  0  1.025814  0  0  0.111837  0.08909  0  1.033259  0
H  H11  1  0.99259966  0.54418174  0.73195145  1  0  0.086025  0  0.960224  0  0  0.091985  0  1.029831  0  0  0.095637  0  1.025704  0  0  0.111796  0.089077  0  1.033138  0
H  H12  1  0.41677423  0.06116666  0.26759635  1  0  0.084044  0  0.969928  0  0  0.086201  0  1.051264  0  0  0.090859  0  1.045044  0  0  0.109686  0.082591  0  1.055992  0
H  H13  1  0.58321646  0.93883512  0.73241356  1  0  0.084041  0  0.970043  0  0  0.086218  0  1.051311  0  0  0.090877  0  1.045095  0  0  0.109712  0.082609  0  1.05604  0
C  C14  1  0.62833891  0.18829116  0.92356867  1  0  0.276676  0  3.74983  0  0  0.254539  0  4.010367  0  0  0.262263  0  4.030424  0  0  0.220555  0.24968  0  3.997001  0
C  C15  1  0.37165632  0.81170560  0.07643649  1  0  0.276683  0  3.749846  0  0  0.254616  0  4.010317  0  0  0.262338  0  4.030372  0  0  0.220579  0.249754  0  3.996944  0
C  C16  1  0.45530499  0.26676160  0.01020337  1  0  -0.038851  0  3.776499  0  0  -0.018349  0  4.010022  0  0  -0.024754  0  4.033595  0  0  0.001944  -0.014545  0  3.99449  0
C  C17  1  0.54469288  0.73323905  0.98979917  1  0  -0.038778  0  3.776423  0  0  -0.018302  0  4.00994  0  0  -0.02471  0  4.033519  0  0  0.001929  -0.014503  0  3.994409  0
C  C18  1  0.37947781  0.42513298  0.91909120  1  0  -0.012918  0  3.650547  0  0  -0.040183  0  3.895282  0  0  -0.035449  0  3.912117  0  0  -0.057328  -0.043165  0  3.884277  0
C  C19  1  0.62051871  0.57486510  0.08090647  1  0  -0.012985  0  3.650564  0  0  -0.040238  0  3.895325  0  0  -0.035503  0  3.912155  0  0  -0.057361  -0.043226  0  3.884325  0
C  C20  1  0.21860775  0.49501868  0.01233367  1  0  -0.108254  0  3.727241  0  0  -0.117257  0  3.971423  0  0  -0.126181  0  3.99573  0  0  -0.078773  -0.111711  0  3.955556  0
C  C21  1  0.78139931  0.50499496  0.98765251  1  0  -0.108121  0  3.727202  0  0  -0.117063  0  3.97139  0  0  -0.125988  0  3.995705  0  0  -0.078646  -0.111528  0  3.955522  0
C  C22  1  0.13531954  0.40579419  0.19168738  1  0  0.128358  0  3.643209  0  0  0.098027  0  3.883324  0  0  0.10625  0  3.899617  0  0  0.045438  0.092556  0  3.872881  0
C  C23  1  0.86468895  0.59422075  0.80830528  1  0  0.128371  0  3.643318  0  0  0.098075  0  3.883397  0  0  0.106262  0  3.899676  0  0  0.045389  0.092606  0  3.872948  0
C  C24  1  0.36403733  0.18492035  0.19105449  1  0  0.10971  0  3.621802  0  0  0.06902  0  3.865094  0  0  0.075624  0  3.883285  0  0  0.047563  0.064026  0  3.854624  0
C  C25  1  0.63595607  0.81508277  0.80894635  1  0  0.109665  0  3.621815  0  0  0.068996  0  3.865139  0  0  0.075577  0  3.883289  0  0  0.047566  0.063997  0  3.854662  0
C  C26  1  0.73266378  0.72683056  0.34194419  1  0  -0.059915  0  3.469959  0  0  -0.075905  0  3.838267  0  0  -0.054825  0  3.82452  0  0  -0.057502  -0.091046  0  3.847878  0
C  C27  1  0.26733636  0.27315479  0.65805779  1  0  -0.059872  0  3.469567  0  0  -0.075856  0  3.837882  0  0  -0.054766  0  3.824122  0  0  -0.057577  -0.091  0  3.84742  0
C  C28  1  0.74049386  0.09800554  0.35998934  1  0  -0.107518  0  3.605091  0  0  -0.108597  0  3.988268  0  0  -0.088547  0  3.972742  0  0  -0.080663  -0.123021  0  3.998862  0
C  C29  1  0.25952561  0.90196738  0.64000818  1  0  -0.107044  0  3.605576  0  0  -0.108054  0  3.988571  0  0  -0.088029  0  3.973074  0  0  -0.080285  -0.122456  0  3.999048  0
N  N30  1  0.74787801  0.07803756  0.00305229  1  0  -0.240071  0  3.245427  0  0  -0.192069  0  3.557388  0  0  -0.20095  0  3.564794  0  0  -0.248556  -0.186773  0  3.552396  0
N  N31  1  0.25211594  0.92195661  0.99695443  1  0  -0.240063  0  3.245526  0  0  -0.192096  0  3.557492  0  0  -0.200977  0  3.564897  0  0  -0.248537  -0.1868  0  3.552472  0
N  N32  1  0.89030549  0.03596214  0.88302375  1  0  -0.048743  0  3.036638  0  0  -0.035224  0  3.328322  0  0  -0.031279  0  3.334763  0  0  -0.111658  -0.038124  0  3.324587  0
N  N33  1  0.10968972  0.96403462  0.11697925  1  0  -0.048782  0  3.036646  0  0  -0.035247  0  3.328336  0  0  -0.031305  0  3.334779  0  0  -0.111683  -0.038147  0  3.324605  0
N  N34  1  0.86055303  0.11781366  0.73462675  1  0  -0.087681  0  3.346813  0  0  -0.02797  0  3.659431  0  0  -0.031372  0  3.662135  0  0  -0.16738  -0.026738  0  3.658835  0
N  N35  1  0.13944076  0.88218307  0.26537783  1  0  -0.087632  0  3.34667  0  0  -0.027942  0  3.659305  0  0  -0.031341  0  3.662005  0  0  -0.167385  -0.026707  0  3.658711  0
N  N36  1  0.69737295  0.21445827  0.75482226  1  0  -0.284681  0  3.213393  0  0  -0.24101  0  3.523447  0  0  -0.247433  0  3.528318  0  0  -0.256707  -0.237727  0  3.5206  0
N  N37  1  0.30261955  0.78553588  0.24518389  1  0  -0.284754  0  3.213281  0  0  -0.241114  0  3.523341  0  0  -0.247534  0  3.528198  0  0  -0.256726  -0.237822  0  3.520443  0
N  N38  1  0.20636094  0.25176767  0.28029228  1  0  -0.272782  0  3.395982  0  0  -0.181579  0  3.678716  0  0  -0.197835  0  3.690838  0  0  -0.364522  -0.171599  0  3.670859  0
N  N39  1  0.79364064  0.74824202  0.71969965  1  0  -0.272809  0  3.396148  0  0  -0.181683  0  3.67894  0  0  -0.19784  0  3.690964  0  0  -0.364491  -0.171698  0  3.671092  0
N  N40  1  0.70085444  0.57938140  0.41624964  1  0  -0.45522  0  3.393483  0  0  -0.38826  0  3.74211  0  0  -0.397945  0  3.734443  0  0  -0.4627  -0.382708  0  3.747273  0
N  N41  1  0.29915629  0.42061950  0.58374622  1  0  -0.455293  0  3.393178  0  0  -0.388325  0  3.741816  0  0  -0.398013  0  3.734141  0  0  -0.46262  -0.382767  0  3.746902  0
N  N42  1  0.69638120  0.19768680  0.42217972  1  0  -0.411115  0  3.312511  0  0  -0.354018  0  3.655422  0  0  -0.363975  0  3.65242  0  0  -0.435739  -0.347834  0  3.65699  0
N  N43  1  0.30362367  0.80231781  0.57782516  1  0  -0.411364  0  3.313546  0  0  -0.354307  0  3.656459  0  0  -0.364253  0  3.653426  0  0  -0.435936  -0.348125  0  3.657938  0
