# generated using pymatgen
data_ZnH15C21N2ClO4
_symmetry_space_group_name_H-M   'P 1'
_cell_length_a   7.97247037
_cell_length_b   9.47117492
_cell_length_c   31.06949916
_cell_angle_alpha   89.99977990
_cell_angle_beta   90.00017469
_cell_angle_gamma   117.58848094
_symmetry_Int_Tables_number   1
_chemical_formula_structural   ZnH15C21N2ClO4
_chemical_formula_sum   'Zn4 H60 C84 N8 Cl4 O16'
_cell_volume   2079.26651095
_cell_formula_units_Z   4
loop_
 _symmetry_equiv_pos_site_id
 _symmetry_equiv_pos_as_xyz
  1  'x, y, z'
loop_
 _atom_site_type_symbol
 _atom_site_label
 _atom_site_symmetry_multiplicity
 _atom_site_fract_x
 _atom_site_fract_y
 _atom_site_fract_z
 _atom_site_occupancy
 _atom_site_pbe_bader_charge
 _atom_site_pbe_bader_spin_density
 _atom_site_pbe_cm5_charge
 _atom_site_pbe_ddec_charge
 _atom_site_pbe_ddec_spin_density
 _atom_site_pbe_ddec_sum_bond_order
 _atom_site_pbe_magmom
Zn  Zn0  1  0.11980416  0.32851467  0.90269640  1  1.221898  0  0.60607  0.781182  0  2.502203  0
Zn  Zn1  1  0.38019647  0.17149680  0.40269786  1  1.221862  0  0.606047  0.781122  0  2.502266  0
Zn  Zn2  1  0.88018650  0.67150254  0.09730176  1  1.221822  0  0.606068  0.781132  0  2.50228  0
Zn  Zn3  1  0.61979942  0.82849608  0.59730127  1  1.221866  0  0.60606  0.781148  0  2.502299  0
H  H4  1  0.02762596  0.85731217  0.88023447  1  0.122211  0  0.107456  0.118908  0  1.008834  0
H  H5  1  0.47237476  0.64270010  0.38023410  1  0.122256  0  0.107416  0.118886  0  1.008758  0
H  H6  1  0.97237615  0.14270781  0.11976627  1  0.122253  0  0.107445  0.118939  0  1.008736  0
H  H7  1  0.52762390  0.35728588  0.61976406  1  0.122239  0  0.107441  0.118854  0  1.008776  0
H  H8  1  0.30601257  0.08064931  0.76258590  1  0.08921  0  0.099549  0.103713  0  1.022828  0
H  H9  1  0.19399355  0.41935667  0.26258499  1  0.089256  0  0.099497  0.103641  0  1.022801  0
H  H10  1  0.69398169  0.91935519  0.23741130  1  0.089441  0  0.099562  0.103742  0  1.022729  0
H  H11  1  0.80599608  0.58063132  0.73741156  1  0.089443  0  0.099523  0.103678  0  1.022727  0
H  H12  1  0.26395102  0.62517828  0.80068272  1  0.09763  0  0.108397  0.121063  0  1.001372  0
H  H13  1  0.23604106  0.87482389  0.30067965  1  0.097694  0  0.108395  0.121068  0  1.001339  0
H  H14  1  0.73603549  0.37482827  0.19931995  1  0.097633  0  0.108401  0.121013  0  1.001348  0
H  H15  1  0.76396069  0.12516571  0.69931948  1  0.097419  0  0.10843  0.121074  0  1.001344  0
H  H16  1  0.49501353  0.96547871  0.72520375  1  0.111275  0  0.114149  0.102784  0  1.02269  0
H  H17  1  0.00497182  0.53451458  0.22520382  1  0.111151  0  0.114139  0.102714  0  1.02273  0
H  H18  1  0.50497539  0.03453260  0.27479828  1  0.111329  0  0.114172  0.102761  0  1.022754  0
H  H19  1  0.99500850  0.46548473  0.77479338  1  0.111324  0  0.114165  0.102802  0  1.0227  0
H  H20  1  0.47770333  0.77978980  0.74071939  1  0.105709  0  0.122566  0.126306  0  0.981407  0
H  H21  1  0.02229722  0.72021325  0.24071571  1  0.105693  0  0.122543  0.126302  0  0.981438  0
H  H22  1  0.52229199  0.22022175  0.25928167  1  0.105657  0  0.122558  0.126271  0  0.981436  0
H  H23  1  0.97770728  0.27979164  0.75928181  1  0.105715  0  0.122546  0.12627  0  0.981394  0
H  H24  1  0.21830638  0.96390545  0.69163826  1  0.129145  0  0.138957  0.116513  0  0.965368  0
H  H25  1  0.28168019  0.53608118  0.19163338  1  0.129273  0  0.138908  0.116455  0  0.965387  0
H  H26  1  0.78169339  0.03610743  0.30836248  1  0.129309  0  0.138992  0.116587  0  0.965353  0
H  H27  1  0.71830386  0.46390075  0.80836382  1  0.129279  0  0.138952  0.116492  0  0.965452  0
H  H28  1  0.03417409  0.86246280  0.62347945  1  0.164289  0  0.107373  0.134481  0  1.029205  0
H  H29  1  0.46582338  0.63752722  0.12347811  1  0.164263  0  0.107376  0.134537  0  1.029381  0
H  H30  1  0.96582771  0.13754666  0.37651872  1  0.164334  0  0.107362  0.134416  0  1.029346  0
H  H31  1  0.53416963  0.36245505  0.87652070  1  0.16423  0  0.107342  0.134423  0  1.029271  0
H  H32  1  0.12979634  0.44882216  0.63513039  1  0.12957  0  0.122909  0.135786  0  0.972914  0
H  H33  1  0.37021979  0.05117954  0.13513166  1  0.129398  0  0.122921  0.13578  0  0.972945  0
H  H34  1  0.87020545  0.55118729  0.36487100  1  0.129424  0  0.122897  0.135784  0  0.973044  0
H  H35  1  0.62980720  0.94882268  0.86487101  1  0.129411  0  0.122929  0.135827  0  0.97302  0
H  H36  1  0.31360402  0.57018067  0.70155662  1  0.129367  0  0.139091  0.120519  0  0.968116  0
H  H37  1  0.18640289  0.92981364  0.20155441  1  0.129401  0  0.139121  0.120591  0  0.96821  0
H  H38  1  0.68640147  0.42983360  0.29844380  1  0.129375  0  0.139144  0.120697  0  0.967902  0
H  H39  1  0.81361198  0.07018696  0.79844440  1  0.129197  0  0.139105  0.120616  0  0.968082  0
H  H40  1  0.91694649  0.67448065  0.56893216  1  0.113535  0  0.100454  0.108787  0  1.04252  0
H  H41  1  0.58306042  0.82551552  0.06893033  1  0.113372  0  0.100429  0.108757  0  1.042598  0
H  H42  1  0.08306799  0.32551176  0.43106439  1  0.113371  0  0.100419  0.108736  0  1.042523  0
H  H43  1  0.41695236  0.17449085  0.93106719  1  0.113466  0  0.100429  0.108801  0  1.042543  0
H  H44  1  0.94889166  0.36227230  0.57907092  1  0.087216  0  0.109298  0.105553  0  0.996322  0
H  H45  1  0.55111695  0.13772443  0.07907155  1  0.087149  0  0.109248  0.105488  0  0.996342  0
H  H46  1  0.05109879  0.63770987  0.42092949  1  0.087229  0  0.109286  0.105505  0  0.996411  0
H  H47  1  0.44890788  0.86228589  0.92093144  1  0.087548  0  0.109304  0.105556  0  0.996359  0
H  H48  1  0.76718175  0.60542484  0.51133547  1  0.080159  0  0.111879  0.122983  0  1.004349  0
H  H49  1  0.73282604  0.89456956  0.01133527  1  0.080129  0  0.111925  0.123086  0  1.004275  0
H  H50  1  0.23281428  0.39456338  0.48866205  1  0.079943  0  0.111929  0.123105  0  1.004278  0
H  H51  1  0.26716562  0.10541499  0.98866322  1  0.080237  0  0.111884  0.122969  0  1.004242  0
H  H52  1  0.57232109  0.48933466  0.44609174  1  0.101027  0  0.120423  0.097498  0  0.988935  0
H  H53  1  0.92770503  0.01066514  0.94609314  1  0.100975  0  0.120373  0.097565  0  0.988902  0
H  H54  1  0.42769225  0.51065304  0.55390578  1  0.100948  0  0.120352  0.097464  0  0.988973  0
H  H55  1  0.07231361  0.98933794  0.05390857  1  0.100977  0  0.120378  0.097418  0  0.988956  0
H  H56  1  0.61242071  0.07010110  0.45755213  1  0.208704  0  0.118728  0.105675  0  1.032223  0
H  H57  1  0.88756168  0.42988645  0.95754816  1  0.208492  0  0.118714  0.10563  0  1.03225  0
H  H58  1  0.38756530  0.92987974  0.54245087  1  0.208319  0  0.118715  0.105665  0  1.032225  0
H  H59  1  0.11241644  0.57010110  0.04245291  1  0.208194  0  0.118707  0.105632  0  1.032206  0
H  H60  1  0.80865768  0.16629961  0.52446631  1  0.156101  0  0.101779  0.120382  0  1.031829  0
H  H61  1  0.69134417  0.33369504  0.02446326  1  0.156296  0  0.101771  0.120362  0  1.031596  0
H  H62  1  0.19134393  0.83369466  0.47553507  1  0.156275  0  0.101734  0.120306  0  1.031522  0
H  H63  1  0.30864870  0.66629190  0.97553716  1  0.156265  0  0.101787  0.120373  0  1.031731  0
C  C64  1  0.07335867  0.59283476  0.87504853  1  1.555156  0  0.192756  0.545738  0  4.267306  0
C  C65  1  0.42663411  0.90718426  0.37504588  1  1.554349  0  0.192739  0.545487  0  4.267492  0
C  C66  1  0.92663306  0.40718949  0.12495285  1  1.555114  0  0.192645  0.545377  0  4.267388  0
C  C67  1  0.57336480  0.09281458  0.62495196  1  1.55471  0  0.192733  0.545539  0  4.267375  0
C  C68  1  0.13057575  0.72423751  0.84226713  1  -0.013813  0  -0.022079  -0.029945  0  3.995332  0
C  C69  1  0.36942978  0.77577529  0.34226491  1  -0.013646  0  -0.022154  -0.029923  0  3.995365  0
C  C70  1  0.86942003  0.27577990  0.15773393  1  -0.013945  0  -0.022133  -0.029842  0  3.99538  0
C  C71  1  0.63058321  0.22422407  0.65773261  1  -0.014037  0  -0.022136  -0.029937  0  3.995433  0
C  C72  1  0.09717461  0.85405591  0.85038722  1  -0.038299  0  -0.076556  -0.103282  0  3.93456  0
C  C73  1  0.40283408  0.64596043  0.35038647  1  -0.037959  0  -0.076407  -0.103153  0  3.934636  0
C  C74  1  0.90283376  0.14596897  0.14961320  1  -0.033613  0  -0.076452  -0.103257  0  3.934488  0
C  C75  1  0.59717265  0.35403403  0.64961169  1  -0.033699  0  -0.076425  -0.103104  0  3.934499  0
C  C76  1  0.16124484  0.98214665  0.82173076  1  -0.004223  0  -0.024386  -0.033298  0  3.990317  0
C  C77  1  0.33876941  0.51786900  0.32173077  1  -0.004126  0  -0.024519  -0.033533  0  3.99044  0
C  C78  1  0.83876933  0.01787728  0.17826901  1  -0.007984  0  -0.024611  -0.0337  0  3.990374  0
C  C79  1  0.66122708  0.48212507  0.67826739  1  -0.008212  0  -0.024595  -0.033683  0  3.990284  0
C  C80  1  0.25471208  0.97758923  0.78399025  1  -0.045078  0  -0.088379  -0.157002  0  3.967026  0
C  C81  1  0.24529696  0.52241957  0.28398954  1  -0.045377  0  -0.088311  -0.156857  0  3.967037  0
C  C82  1  0.74529152  0.02242379  0.21601049  1  -0.045505  0  -0.088332  -0.156993  0  3.967003  0
C  C83  1  0.75469523  0.47756851  0.71600894  1  -0.044958  0  -0.088324  -0.156914  0  3.96686  0
C  C84  1  0.28966497  0.84847815  0.77552126  1  -0.062922  0  -0.026297  0.067146  0  4.037829  0
C  C85  1  0.21033970  0.65152473  0.27551973  1  -0.062813  0  -0.026334  0.067006  0  4.037951  0
C  C86  1  0.71033561  0.15152892  0.22447948  1  -0.062713  0  -0.026316  0.067191  0  4.037925  0
C  C87  1  0.78966003  0.34846830  0.72447908  1  -0.063161  0  -0.026365  0.067133  0  4.0378  0
C  C88  1  0.22962159  0.72324953  0.80515874  1  -0.083404  0  -0.088288  -0.156711  0  3.953807  0
C  C89  1  0.27038001  0.77675646  0.30515582  1  -0.083053  0  -0.088148  -0.156554  0  3.953593  0
C  C90  1  0.77036748  0.27675711  0.19484200  1  -0.083154  0  -0.088163  -0.156535  0  3.953701  0
C  C91  1  0.72962491  0.22323443  0.69484203  1  -0.082909  0  -0.088201  -0.156582  0  3.953496  0
C  C92  1  0.14637383  0.13125717  0.83273435  1  1.557895  0  0.191529  0.555191  0  4.263621  0
C  C93  1  0.35363392  0.36875522  0.33273394  1  1.557697  0  0.191621  0.555361  0  4.263402  0
C  C94  1  0.85363206  0.86876528  0.16726639  1  1.557317  0  0.191566  0.555321  0  4.263565  0
C  C95  1  0.64635685  0.63123747  0.66726487  1  1.557457  0  0.191642  0.55539  0  4.263543  0
C  C96  1  0.39595055  0.84496919  0.73586376  1  0.231949  0  -0.050119  -0.138235  0  3.863093  0
C  C97  1  0.10404566  0.65502790  0.23586118  1  0.232188  0  -0.050126  -0.138194  0  3.863086  0
C  C98  1  0.60404296  0.15503879  0.26413730  1  0.231763  0  -0.050214  -0.13829  0  3.863074  0
C  C99  1  0.89594941  0.34497079  0.76413666  1  0.232034  0  -0.050144  -0.138257  0  3.863177  0
C  C100  1  0.19198605  0.85031545  0.67761975  1  0.39442  0  0.071503  0.062827  0  3.839014  0
C  C101  1  0.30800033  0.64967364  0.17761539  1  0.393886  0  0.071522  0.062968  0  3.839108  0
C  C102  1  0.80800678  0.14969367  0.32238099  1  0.394473  0  0.071538  0.06284  0  3.838972  0
C  C103  1  0.69198870  0.35031315  0.82238181  1  0.394415  0  0.071513  0.062945  0  3.839184  0
C  C104  1  0.09054431  0.79234211  0.64031821  1  0.089808  0  -0.059789  -0.13293  0  3.863766  0
C  C105  1  0.40945578  0.70765018  0.14031514  1  0.090107  0  -0.059747  -0.133027  0  3.864084  0
C  C106  1  0.90945748  0.20766735  0.35968124  1  0.089095  0  -0.059749  -0.132892  0  3.863981  0
C  C107  1  0.59054341  0.29233932  0.85968302  1  0.089703  0  -0.059774  -0.132889  0  3.86387  0
C  C108  1  0.06377111  0.64526885  0.62314646  1  0.025058  0  0.029905  0.169837  0  3.965125  0
C  C109  1  0.43623833  0.85472745  0.12314485  1  0.025378  0  0.029917  0.169809  0  3.965193  0
C  C110  1  0.93623136  0.35473946  0.37685395  1  0.025416  0  0.029863  0.169885  0  3.965112  0
C  C111  1  0.56378557  0.14527116  0.87685686  1  0.025399  0  0.029825  0.1697  0  3.965319  0
C  C112  1  0.14300761  0.56239561  0.64623060  1  0.031356  0  -0.064555  -0.155663  0  3.919335  0
C  C113  1  0.35700142  0.93759930  0.14622850  1  0.030852  0  -0.064472  -0.155472  0  3.9193  0
C  C114  1  0.85699419  0.43761385  0.35377046  1  0.031152  0  -0.064506  -0.155635  0  3.919415  0
C  C115  1  0.64302565  0.06240059  0.85377288  1  0.031141  0  -0.064484  -0.155569  0  3.919497  0
C  C116  1  0.24470802  0.62666787  0.68333193  1  0.375463  0  0.069437  0.055781  0  3.85387  0
C  C117  1  0.25529114  0.87332398  0.18332855  1  0.375916  0  0.069285  0.055531  0  3.854321  0
C  C118  1  0.75529242  0.37334387  0.31666913  1  0.375385  0  0.069437  0.055645  0  3.853443  0
C  C119  1  0.74471431  0.12667043  0.81666993  1  0.37553  0  0.069334  0.055603  0  3.854111  0
C  C120  1  0.95892178  0.59036810  0.58330645  1  -0.028838  0  -0.077346  -0.12407  0  3.93027  0
C  C121  1  0.54109414  0.90963061  0.08330610  1  -0.028742  0  -0.077345  -0.124024  0  3.93044  0
C  C122  1  0.04108240  0.40962626  0.41669396  1  -0.028914  0  -0.077336  -0.123986  0  3.930257  0
C  C123  1  0.45893399  0.09037633  0.91669689  1  -0.028595  0  -0.077249  -0.123955  0  3.930195  0
C  C124  1  0.91006876  0.44785621  0.56435707  1  -0.053599  0  -0.0595  -0.07767  0  3.909904  0
C  C125  1  0.58994034  0.05214185  0.06435590  1  -0.05337  0  -0.059477  -0.077697  0  3.910039  0
C  C126  1  0.08992471  0.55213192  0.43564560  1  -0.053706  0  -0.059504  -0.077792  0  3.910184  0
C  C127  1  0.41007567  0.94786347  0.93564677  1  -0.054234  0  -0.059536  -0.077775  0  3.910071  0
C  C128  1  0.80114907  0.39335130  0.52476196  1  0.042373  0  0.013897  0.144403  0  3.994422  0
C  C129  1  0.69885782  0.10664587  0.02476016  1  0.042051  0  0.013897  0.144533  0  3.994218  0
C  C130  1  0.19883235  0.60663287  0.47524199  1  0.04291  0  0.01382  0.144535  0  3.99401  0
C  C131  1  0.30115456  0.89335230  0.97524187  1  0.042259  0  0.013868  0.14441  0  3.994333  0
C  C132  1  0.73536048  0.48526145  0.50133119  1  -0.055063  0  -0.074799  -0.164612  0  3.91391  0
C  C133  1  0.76465074  0.01473493  0.00133050  1  -0.05422  0  -0.074839  -0.164808  0  3.913898  0
C  C134  1  0.26462371  0.51471582  0.49867148  1  -0.055866  0  -0.074766  -0.164853  0  3.913769  0
C  C135  1  0.23535613  0.98525486  0.99867120  1  -0.055112  0  -0.074736  -0.164516  0  3.913724  0
C  C136  1  0.62680306  0.42176711  0.46470298  1  0.48408  0  0.043501  0.080499  0  3.960323  0
C  C137  1  0.87321109  0.07823090  0.96470265  1  0.48299  0  0.04361  0.080499  0  3.960535  0
C  C138  1  0.37319116  0.57821754  0.53529808  1  0.484186  0  0.043705  0.080768  0  3.960272  0
C  C139  1  0.12680385  0.92176737  0.03529938  1  0.484005  0  0.043522  0.080538  0  3.960386  0
C  C140  1  0.65011827  0.18724871  0.47128934  1  0.387181  0  0.051604  0.098035  0  3.890962  0
C  C141  1  0.84987951  0.31274162  0.97128645  1  0.387044  0  0.051561  0.09798  0  3.890991  0
C  C142  1  0.34986834  0.81273332  0.52871301  1  0.386786  0  0.05154  0.097877  0  3.890809  0
C  C143  1  0.15011645  0.68724893  0.02871494  1  0.387355  0  0.051511  0.097911  0  3.890683  0
C  C144  1  0.75896997  0.24236880  0.50828961  1  -0.026775  0  -0.066994  -0.132154  0  3.870262  0
C  C145  1  0.74103565  0.25762381  0.00828637  1  -0.026448  0  -0.066973  -0.132128  0  3.870226  0
C  C146  1  0.24100843  0.75760942  0.49171402  1  -0.026073  0  -0.066863  -0.131962  0  3.869707  0
C  C147  1  0.25897062  0.74236480  0.99171405  1  -0.026376  0  -0.066912  -0.132025  0  3.869929  0
N  N148  1  0.58182114  0.27419915  0.45006330  1  -1.251906  0  -0.330824  -0.240505  0  3.585371  0
N  N149  1  0.91818792  0.22579414  0.95006120  1  -1.25164  0  -0.330843  -0.240485  0  3.58542  0
N  N150  1  0.41816998  0.72578188  0.54993712  1  -1.251371  0  -0.330944  -0.240574  0  3.585268  0
N  N151  1  0.08181814  0.77420146  0.04993986  1  -1.251733  0  -0.330793  -0.240439  0  3.585293  0
N  N152  1  0.26950739  0.76906068  0.69849464  1  -1.209141  0  -0.207708  0.103761  0  3.727166  0
N  N153  1  0.23047856  0.73092704  0.19849013  1  -1.209189  0  -0.207658  0.103788  0  3.727349  0
N  N154  1  0.73048228  0.23094716  0.30150707  1  -1.208436  0  -0.207823  0.103668  0  3.726919  0
N  N155  1  0.76951672  0.26906466  0.80150772  1  -1.20907  0  -0.207636  0.103712  0  3.727499  0
Cl  Cl156  1  0.39909521  0.45707288  0.93685340  1  -0.671149  0  -0.341054  -0.527438  0  1.093501  0
Cl  Cl157  1  0.10091239  0.04292920  0.43685642  1  -0.671194  0  -0.341053  -0.52744  0  1.093496  0
Cl  Cl158  1  0.60090512  0.54292134  0.06314380  1  -0.671223  0  -0.341061  -0.527462  0  1.093521  0
Cl  Cl159  1  0.89908553  0.95706026  0.56314367  1  -0.671141  0  -0.341045  -0.527437  0  1.093515  0
O  O160  1  0.08500046  0.46826816  0.86117359  1  -1.169001  0  -0.341076  -0.57078  0  2.415389  0
O  O161  1  0.41498750  0.03174906  0.36117042  1  -1.169019  0  -0.341096  -0.570636  0  2.415385  0
O  O162  1  0.91496980  0.53174595  0.13882715  1  -1.169182  0  -0.341043  -0.570532  0  2.415254  0
O  O163  1  0.58501390  0.96825220  0.63882646  1  -1.169075  0  -0.341067  -0.570617  0  2.415397  0
O  O164  1  0.02318361  0.61163775  0.91165708  1  -1.1607  0  -0.311723  -0.527091  0  2.163238  0
O  O165  1  0.47680421  0.88838542  0.41165545  1  -1.160603  0  -0.311693  -0.527029  0  2.163435  0
O  O166  1  0.97682764  0.38839775  0.08834527  1  -1.160966  0  -0.311607  -0.526946  0  2.163431  0
O  O167  1  0.52318379  0.11161418  0.58834336  1  -1.160654  0  -0.311701  -0.527077  0  2.163376  0
O  O168  1  0.09709438  0.13607191  0.87233683  1  -1.181386  0  -0.339926  -0.570195  0  2.367541  0
O  O169  1  0.40290683  0.36393403  0.37233711  1  -1.181469  0  -0.339933  -0.570181  0  2.367364  0
O  O170  1  0.90290216  0.86394202  0.12766326  1  -1.181508  0  -0.339901  -0.5701  0  2.367409  0
O  O171  1  0.59708966  0.63606004  0.62766170  1  -1.181587  0  -0.33997  -0.570196  0  2.367514  0
O  O172  1  0.18287510  0.23580041  0.80463117  1  -1.166384  0  -0.341798  -0.563773  0  2.11068  0
O  O173  1  0.31713243  0.26421223  0.30463119  1  -1.166333  0  -0.341855  -0.563855  0  2.110694  0
O  O174  1  0.81713711  0.76422461  0.19537085  1  -1.166218  0  -0.341838  -0.563846  0  2.110727  0
O  O175  1  0.68285970  0.73577818  0.69536858  1  -1.166163  0  -0.341836  -0.563826  0  2.11068  0
