# generated using pymatgen
data_NiH5C5N2ClO3
_symmetry_space_group_name_H-M   'P 1'
_cell_length_a   7.55722429
_cell_length_b   10.39798910
_cell_length_c   11.11061192
_cell_angle_alpha   89.99955387
_cell_angle_beta   89.99973964
_cell_angle_gamma   90.00101341
_symmetry_Int_Tables_number   1
_chemical_formula_structural   NiH5C5N2ClO3
_chemical_formula_sum   'Ni4 H20 C20 N8 Cl4 O12'
_cell_volume   873.07117095
_cell_formula_units_Z   4
loop_
 _symmetry_equiv_pos_site_id
 _symmetry_equiv_pos_as_xyz
  1  'x, y, z'
loop_
 _atom_site_type_symbol
 _atom_site_label
 _atom_site_symmetry_multiplicity
 _atom_site_fract_x
 _atom_site_fract_y
 _atom_site_fract_z
 _atom_site_occupancy
 _atom_site_hle17_ddec_charge
 _atom_site_hle17_ddec_spin_density
 _atom_site_hle17_ddec_sum_bond_order
 _atom_site_hle17_magmom
 _atom_site_hse06_10hf_ddec_charge
 _atom_site_hse06_10hf_ddec_spin_density
 _atom_site_hse06_10hf_ddec_sum_bond_order
 _atom_site_hse06_10hf_magmom
 _atom_site_hse06_ddec_charge
 _atom_site_hse06_ddec_spin_density
 _atom_site_hse06_ddec_sum_bond_order
 _atom_site_hse06_magmom
 _atom_site_pbe_cm5_charge
 _atom_site_pbe_ddec_charge
 _atom_site_pbe_ddec_spin_density
 _atom_site_pbe_ddec_sum_bond_order
 _atom_site_pbe_magmom
Ni  Ni0  1  0.26850783  0.77587776  0.67516573  1  0.808171  1.838645  2.108568  1.483  0.819031  1.848671  2.498508  1.604  0.905619  1.915098  2.423977  1.695  0.622113  0.760113  1.787975  2.550572  1.525
Ni  Ni1  1  0.76852454  0.22412098  0.32483429  1  0.808259  1.838647  2.108487  1.483  0.819099  1.848667  2.498451  1.604  0.905694  1.915093  2.423911  1.695  0.622114  0.760164  1.787951  2.550552  1.525
Ni  Ni2  1  0.26851983  0.27587756  0.82483255  1  0.80819  -1.83864  2.108724  -1.483  0.819025  -1.848659  2.498689  -1.604  0.905608  -1.915089  2.424164  -1.695  0.622111  0.760103  -1.787938  2.550776  -1.525
Ni  Ni3  1  0.76850328  0.72412406  0.17516567  1  0.80824  -1.838654  2.108729  -1.483  0.819004  -1.848671  2.49877  -1.604  0.905596  -1.915095  2.424219  -1.695  0.62215  0.760135  -1.78798  2.550742  -1.525
H  H4  1  0.50235291  0.82378679  0.86120715  1  0.403695  -0.00047  0.888422  0.0  0.38147  -0.000121  0.948625  0.0  0.392965  -0.000133  0.932437  0.0  0.265951  0.373129  -0.000131  0.960276  0.0
H  H5  1  0.00235041  0.17621427  0.13878920  1  0.40357  -0.00047  0.888456  0.0  0.38131  -0.000121  0.948809  0.0  0.392806  -0.000134  0.932622  0.0  0.265863  0.372971  -0.000131  0.960456  0.0
H  H6  1  0.50237540  0.32379682  0.63880085  1  0.403492  0.00047  0.888452  0.0  0.381249  0.000121  0.948879  0.0  0.392743  0.000133  0.932694  0.0  0.265826  0.372913  0.000131  0.960522  0.0
H  H7  1  0.00235836  0.67621866  0.36119550  1  0.40363  0.000471  0.888315  0.0  0.381352  0.000121  0.948737  0.0  0.392844  0.000134  0.932556  0.0  0.265933  0.373015  0.000132  0.96038  0.0
H  H8  1  0.44688189  0.94643546  0.78619473  1  0.407877  -0.000522  0.885633  -0.001  0.383147  -6.1e-05  0.949563  0.0  0.394749  -0.000128  0.932858  0.0  0.290081  0.374979  -3.2e-05  0.961266  0.0
H  H9  1  0.94687669  0.05355790  0.21380203  1  0.407881  -0.000522  0.885571  -0.001  0.383129  -6.1e-05  0.949589  0.0  0.394735  -0.000129  0.932877  0.0  0.290076  0.374961  -3.2e-05  0.961292  0.0
H  H10  1  0.44688536  0.44644582  0.71380717  1  0.407947  0.000522  0.88561  0.001  0.383218  6.1e-05  0.949484  0.0  0.394821  0.000128  0.932778  0.0  0.290133  0.375051  3.2e-05  0.961187  0.0
H  H11  1  0.94688381  0.55356870  0.28618689  1  0.407915  0.000523  0.885617  0.001  0.383157  6.1e-05  0.949579  0.0  0.394763  0.000129  0.932866  0.0  0.290099  0.374991  3.2e-05  0.96128  0.0
H  H12  1  0.01100377  0.96896860  0.81594527  1  0.103215  0.000858  0.946872  0.002  0.10734  0.000434  1.010296  0.001  0.11033  0.00034  1.008022  0.001  0.120976  0.104867  0.000529  1.012754  0.001
H  H13  1  0.51100617  0.03102969  0.18404836  1  0.103272  0.000857  0.946871  0.002  0.107454  0.000434  1.010243  0.001  0.110444  0.000339  1.007967  0.001  0.120982  0.104978  0.000529  1.012706  0.001
H  H14  1  0.01103126  0.46897344  0.68404163  1  0.103202  -0.000859  0.946914  -0.002  0.107413  -0.000434  1.010251  -0.001  0.110403  -0.00034  1.007974  -0.001  0.120976  0.104942  -0.000529  1.012714  -0.001
H  H15  1  0.51101441  0.53102389  0.31595199  1  0.103215  -0.000858  0.946826  -0.002  0.107381  -0.000434  1.010202  -0.001  0.110371  -0.00034  1.007923  -0.001  0.12096  0.104907  -0.000529  1.012668  -0.001
H  H16  1  0.03666834  0.57044592  0.04564705  1  0.12589  -0.000845  0.908937  -0.002  0.130336  -0.00038  0.968636  -0.001  0.134372  -0.000285  0.964416  -0.001  0.136257  0.127189  -0.000459  0.971876  -0.001
H  H17  1  0.53668718  0.42956231  0.95436000  1  0.125904  -0.000846  0.908967  -0.002  0.130422  -0.00038  0.968574  -0.001  0.134458  -0.000285  0.964354  -0.001  0.136289  0.127273  -0.000459  0.971814  -0.001
H  H18  1  0.03669669  0.07044367  0.45435090  1  0.125776  0.000844  0.908964  0.002  0.130311  0.00038  0.968575  0.001  0.134345  0.000285  0.964358  0.001  0.136239  0.127163  0.000459  0.971813  0.001
H  H19  1  0.53668397  0.92955399  0.54563904  1  0.125888  0.000846  0.908886  0.002  0.130385  0.00038  0.968531  0.001  0.134423  0.000285  0.964308  0.001  0.136274  0.127236  0.000459  0.971769  0.001
H  H20  1  0.83575734  0.94104024  0.00527855  1  0.103856  -0.0011  0.937073  -0.002  0.106495  -0.000644  1.005089  -0.001  0.110354  -0.000491  1.000962  -0.001  0.121239  0.103199  -0.000808  1.009254  -0.001
H  H21  1  0.33577283  0.05896226  0.99471315  1  0.103824  -0.001098  0.937026  -0.002  0.106488  -0.000644  1.005081  -0.001  0.110326  -0.000491  1.000974  -0.001  0.121231  0.103193  -0.000808  1.009245  -0.001
H  H22  1  0.83579733  0.44104630  0.49470704  1  0.103716  0.001099  0.937132  0.002  0.106399  0.000644  1.005191  0.001  0.11029  0.000491  1.001024  0.001  0.121213  0.103105  0.000808  1.009353  0.001
H  H23  1  0.33576989  0.55895235  0.50528647  1  0.103861  0.001098  0.937165  0.002  0.106475  0.000643  1.005223  0.001  0.110331  0.000491  1.0011  0.001  0.12125  0.103181  0.000807  1.009387  0.001
C  C24  1  0.23112464  0.56580833  0.83656359  1  0.615916  -0.000781  3.895084  0.0  0.569373  -0.001282  4.198674  -0.001  0.607297  -0.000925  4.192111  -0.001  0.220863  0.542454  -0.001766  4.202993  -0.002
C  C25  1  0.73112366  0.43420339  0.16344014  1  0.615888  -0.000781  3.895295  0.0  0.569316  -0.001284  4.198999  -0.001  0.607239  -0.000924  4.192442  -0.001  0.220855  0.542391  -0.001764  4.203318  -0.002
C  C26  1  0.23113770  0.06579603  0.66343271  1  0.615744  0.000782  3.895713  0.0  0.569218  0.001284  4.199395  0.001  0.607141  0.000923  4.192839  0.001  0.220854  0.542291  0.001764  4.203707  0.002
C  C27  1  0.73113574  0.93419741  0.33656563  1  0.615774  0.000781  3.89536  0.0  0.56923  0.001282  4.198969  0.001  0.607155  0.000924  4.192416  0.001  0.220829  0.542309  0.001765  4.203281  0.002
C  C28  1  0.01717675  0.87920107  0.86589692  1  0.104463  -0.022509  3.623378  -0.027  0.081299  -0.006067  3.876086  -0.009  0.086836  -0.006291  3.886938  -0.009  0.06643  0.07579  -0.006284  3.872632  -0.009
C  C29  1  0.51719223  0.12079441  0.13409488  1  0.104239  -0.022508  3.623359  -0.027  0.081059  -0.006068  3.876061  -0.009  0.086599  -0.006291  3.88691  -0.009  0.066372  0.075553  -0.006284  3.872612  -0.009
C  C30  1  0.01719133  0.37919864  0.63410590  1  0.104373  0.022511  3.623552  0.027  0.081153  0.006067  3.876235  0.009  0.086693  0.006291  3.887093  0.009  0.066391  0.075639  0.006284  3.872797  0.009
C  C31  1  0.51718955  0.62079203  0.36590300  1  0.104354  0.022503  3.623502  0.027  0.081233  0.006065  3.876145  0.009  0.086774  0.006288  3.886988  0.009  0.06644  0.075716  0.006283  3.872702  0.009
C  C32  1  0.12434979  0.67348978  0.88804929  1  0.056179  -0.024515  3.719622  -0.03  0.063693  -0.007904  3.962217  -0.01  0.062285  -0.007669  3.977111  -0.01  0.120122  0.062646  -0.008566  3.955895  -0.011
C  C33  1  0.62435582  0.32651575  0.11196198  1  0.056329  -0.024525  3.719313  -0.03  0.063676  -0.007906  3.962177  -0.01  0.06227  -0.007671  3.977072  -0.01  0.120198  0.062647  -0.008569  3.955835  -0.011
C  C34  1  0.12435790  0.17348369  0.61196008  1  0.056267  0.024521  3.719511  0.03  0.063564  0.007907  3.962377  0.01  0.062156  0.00767  3.97727  0.01  0.120099  0.062541  0.008569  3.956024  0.011
C  C35  1  0.62435168  0.82651030  0.38805029  1  0.056166  0.024528  3.719441  0.03  0.063683  0.007907  3.962071  0.01  0.062274  0.007671  3.976968  0.01  0.120073  0.062631  0.00857  3.955753  0.011
C  C36  1  0.03052381  0.65947832  0.99457107  1  0.121146  0.02142  3.585627  0.025  0.085434  0.005178  3.832208  0.007  0.09463  0.005867  3.842967  0.008  0.078211  0.078721  0.004808  3.827101  0.007
C  C37  1  0.53053221  0.34052984  0.00543059  1  0.120909  0.02143  3.585318  0.025  0.085214  0.005179  3.832004  0.007  0.094415  0.005869  3.842758  0.008  0.078077  0.078501  0.00481  3.826899  0.007
C  C38  1  0.03054189  0.15947698  0.50542969  1  0.121049  -0.021417  3.585387  -0.025  0.085351  -0.005178  3.832023  -0.007  0.094549  -0.005868  3.842782  -0.008  0.078203  0.078637  -0.004808  3.82691  -0.007
C  C39  1  0.53053530  0.84051291  0.49456928  1  0.121063  -0.021414  3.585864  -0.025  0.085344  -0.005175  3.832505  -0.007  0.094536  -0.005865  3.84327  -0.008  0.078228  0.078638  -0.004805  3.827388  -0.007
C  C40  1  0.92102395  0.86473349  0.97188072  1  0.111001  0.02395  3.612533  0.028  0.082415  0.006196  3.863015  0.008  0.092047  0.006431  3.871762  0.009  0.069137  0.074055  0.006433  3.861291  0.008
C  C41  1  0.42104369  0.13526242  0.02810982  1  0.111134  0.023943  3.612243  0.028  0.082473  0.006194  3.862911  0.008  0.092121  0.006429  3.871671  0.009  0.069116  0.074118  0.006431  3.861187  0.008
C  C42  1  0.92104585  0.36473676  0.52811668  1  0.111213  -0.023949  3.612196  -0.028  0.082522  -0.006196  3.862828  -0.008  0.092131  -0.006432  3.871571  -0.009  0.069162  0.074166  -0.006432  3.861105  -0.008
C  C43  1  0.42103767  0.63524760  0.47188826  1  0.111039  -0.023959  3.612144  -0.028  0.082464  -0.006198  3.862736  -0.008  0.092103  -0.006433  3.871472  -0.009  0.069128  0.074103  -0.006436  3.861013  -0.008
N  N44  1  0.11795083  0.78332567  0.82389132  1  -0.24614  0.063317  3.346704  0.093  -0.214458  0.036167  3.627524  0.055  -0.232584  0.030653  3.644497  0.047  -0.311862  -0.204301  0.040782  3.619275  0.06
N  N45  1  0.61796702  0.21667785  0.17611097  1  -0.246152  0.063319  3.34684  0.093  -0.214391  0.036167  3.627653  0.055  -0.232517  0.030653  3.64463  0.047  -0.311823  -0.204235  0.040782  3.619413  0.06
N  N46  1  0.11796249  0.28332288  0.67611097  1  -0.246139  -0.063319  3.347053  -0.093  -0.214321  -0.036168  3.627849  -0.055  -0.232446  -0.030653  3.644822  -0.047  -0.311822  -0.204171  -0.040782  3.619609  -0.06
N  N47  1  0.61795801  0.71666429  0.32389131  1  -0.246024  -0.063324  3.346636  -0.093  -0.214378  -0.036168  3.627492  -0.055  -0.232503  -0.030653  3.644459  -0.047  -0.311857  -0.204229  -0.040784  3.61925  -0.06
N  N48  1  0.92755060  0.75491337  0.03535303  1  -0.216322  -0.067654  3.308627  -0.097  -0.173355  -0.039149  3.590987  -0.058  -0.19511  -0.033028  3.605283  -0.05  -0.314125  -0.160598  -0.044413  3.58359  -0.064
N  N49  1  0.42757475  0.24509032  0.96464559  1  -0.216127  -0.067654  3.308449  -0.097  -0.173221  -0.039147  3.590943  -0.058  -0.194975  -0.033027  3.605235  -0.05  -0.314016  -0.160458  -0.044412  3.583556  -0.064
N  N50  1  0.92757491  0.25491199  0.46464711  1  -0.216136  0.067655  3.308288  0.097  -0.173217  0.039148  3.590756  0.058  -0.194977  0.033028  3.605069  0.05  -0.314065  -0.160449  0.044414  3.583368  0.064
N  N51  1  0.42756632  0.74508304  0.53535781  1  -0.216207  0.067667  3.308304  0.097  -0.173361  0.039151  3.590842  0.058  -0.195116  0.033031  3.605137  0.05  -0.31411  -0.1606  0.044418  3.583441  0.064
Cl  Cl52  1  0.01664635  0.70341357  0.55744650  1  -0.577473  0.095613  0.785788  0.127  -0.5935  0.053893  1.010441  0.072  -0.629433  0.038963  0.992474  0.052  -0.334272  -0.562658  0.067195  1.021642  0.088
Cl  Cl53  1  0.51666271  0.29658863  0.44255611  1  -0.577503  0.0956  0.785795  0.127  -0.593532  0.053888  1.010479  0.072  -0.629466  0.038959  0.99251  0.052  -0.334274  -0.56268  0.06719  1.021685  0.088
Cl  Cl54  1  0.01664170  0.20341142  0.94254049  1  -0.577492  -0.095603  0.785817  -0.127  -0.59352  -0.05389  1.010483  -0.072  -0.62945  -0.038961  0.992509  -0.052  -0.334295  -0.562669  -0.067194  1.021686  -0.088
Cl  Cl55  1  0.51662899  0.79659271  0.05745942  1  -0.577486  -0.095615  0.785744  -0.127  -0.593529  -0.053893  1.010441  -0.072  -0.629465  -0.038963  0.992468  -0.052  -0.334289  -0.562691  -0.067198  1.021628  -0.088
O  O56  1  0.32130783  0.59087762  0.74184221  1  -0.581533  0.048559  2.078554  0.074  -0.543611  0.034107  2.329277  0.054  -0.581817  0.026408  2.321091  0.043  -0.290766  -0.515706  0.041295  2.333789  0.064
O  O57  1  0.82132945  0.40912565  0.25816395  1  -0.581485  0.048565  2.078265  0.074  -0.543572  0.03411  2.329049  0.054  -0.581798  0.026408  2.320888  0.043  -0.290696  -0.515662  0.0413  2.333565  0.064
O  O58  1  0.32132954  0.09087799  0.75815993  1  -0.581461  -0.048555  2.07857  -0.074  -0.543525  -0.034105  2.329301  -0.054  -0.58174  -0.026405  2.321125  -0.043  -0.290735  -0.515618  -0.041292  2.333816  -0.064
O  O59  1  0.82131965  0.90912239  0.24183452  1  -0.581488  -0.048563  2.078477  -0.074  -0.54357  -0.034109  2.329246  -0.054  -0.581771  -0.026408  2.321038  -0.043  -0.290738  -0.51567  -0.041298  2.33375  -0.064
O  O60  1  0.48670762  0.85590863  0.77764371  1  -0.777099  0.040515  1.916085  0.06  -0.749366  0.032902  2.089853  0.051  -0.77949  0.0255  2.055858  0.04  -0.56927  -0.72639  0.039548  2.113318  0.059
O  O61  1  0.98671117  0.14408812  0.22236013  1  -0.777002  0.040522  1.915999  0.06  -0.749215  0.032906  2.089956  0.051  -0.779346  0.025503  2.055962  0.04  -0.569179  -0.726233  0.039553  2.113422  0.059
O  O62  1  0.48672294  0.35592085  0.72236772  1  -0.776999  -0.040514  1.916109  -0.06  -0.749248  -0.032903  2.090044  -0.051  -0.779371  -0.025499  2.056048  -0.04  -0.569208  -0.726271  -0.039549  2.113507  -0.059
O  O63  1  0.98671702  0.64409130  0.27762892  1  -0.777082  -0.04052  1.91591  -0.06  -0.749252  -0.032906  2.089906  -0.051  -0.779378  -0.025502  2.055914  -0.04  -0.569267  -0.726283  -0.039553  2.113359  -0.059
O  O64  1  0.21914126  0.45834783  0.88887255  1  -0.562879  -0.040132  2.11847  -0.061  -0.535729  -0.02682  2.38645  -0.042  -0.573042  -0.021476  2.377829  -0.035  -0.291087  -0.50749  -0.0316  2.390687  -0.049
O  O65  1  0.71912734  0.54165219  0.11114293  1  -0.562941  -0.04012  2.118856  -0.061  -0.535697  -0.026815  2.386883  -0.042  -0.573002  -0.021475  2.378258  -0.035  -0.29117  -0.507472  -0.031594  2.391119  -0.049
O  O66  1  0.21914953  0.95835530  0.61112908  1  -0.562784  0.040116  2.11894  0.061  -0.535617  0.026811  2.38692  0.042  -0.572921  0.02147  2.378301  0.035  -0.29111  -0.507387  0.03159  2.391154  0.049
O  O67  1  0.71914950  0.04164761  0.38886660  1  -0.562778  0.040118  2.118688  0.061  -0.535617  0.026813  2.386679  0.042  -0.572926  0.021472  2.37806  0.035  -0.291088  -0.507383  0.031592  2.390919  0.049
