# generated using pymatgen
data_AgH27C38N8O3
_symmetry_space_group_name_H-M   'P 1'
_cell_length_a   9.07997793
_cell_length_b   14.57689098
_cell_length_c   14.57688619
_cell_angle_alpha   117.37434412
_cell_angle_beta   91.24052442
_cell_angle_gamma   91.24040634
_symmetry_Int_Tables_number   1
_chemical_formula_structural   AgH27C38N8O3
_chemical_formula_sum   'Ag2 H54 C76 N16 O6'
_cell_volume   1711.83053376
_cell_formula_units_Z   2
loop_
 _symmetry_equiv_pos_site_id
 _symmetry_equiv_pos_as_xyz
  1  'x, y, z'
loop_
 _atom_site_type_symbol
 _atom_site_label
 _atom_site_symmetry_multiplicity
 _atom_site_fract_x
 _atom_site_fract_y
 _atom_site_fract_z
 _atom_site_occupancy
 _atom_site_pbe_bader_charge
 _atom_site_pbe_bader_spin_density
 _atom_site_pbe_cm5_charge
 _atom_site_pbe_ddec_charge
 _atom_site_pbe_ddec_spin_density
 _atom_site_pbe_ddec_sum_bond_order
 _atom_site_pbe_magmom
Ag  Ag0  1  0.24999991  0.79065664  0.20934145  1  0.586919  0  0.472084  0.339124  0  1.916091  0
Ag  Ag1  1  0.74999933  0.20934255  0.79065973  1  0.586897  0  0.472047  0.339047  0  1.916103  0
H  H2  1  0.97046216  0.67621887  0.11615606  1  0.102603  0  0.111645  0.085063  0  1.026854  0
H  H3  1  0.52953654  0.88384188  0.32378072  1  0.102635  0  0.111642  0.08503  0  1.026805  0
H  H4  1  0.02953920  0.32377877  0.88384376  1  0.10259  0  0.111622  0.085006  0  1.026925  0
H  H5  1  0.47045948  0.11615887  0.67622181  1  0.102576  0  0.111643  0.08503  0  1.026787  0
H  H6  1  0.83167543  0.57788525  0.94640640  1  0.122689  0  0.107223  0.120801  0  1.012258  0
H  H7  1  0.66832452  0.05359081  0.42211088  1  0.122698  0  0.107202  0.120781  0  1.01235  0
H  H8  1  0.16832916  0.42211085  0.05359277  1  0.122771  0  0.10719  0.120739  0  1.012296  0
H  H9  1  0.33167468  0.94640758  0.57788720  1  0.122681  0  0.107197  0.120762  0  1.012351  0
H  H10  1  0.97249830  0.52176042  0.78412156  1  0.132364  0  0.105566  0.102355  0  1.037998  0
H  H11  1  0.52750158  0.21587608  0.47823414  1  0.132307  0  0.105543  0.102361  0  1.038033  0
H  H12  1  0.02750637  0.47823722  0.21587831  1  0.132269  0  0.105547  0.102352  0  1.037986  0
H  H13  1  0.47249990  0.78412387  0.52176535  1  0.132459  0  0.105565  0.102395  0  1.038052  0
H  H14  1  0.24014554  0.57004596  0.79738516  1  0.090271  0  0.104487  0.119345  0  1.030362  0
H  H15  1  0.25985043  0.20261344  0.42995253  1  0.090211  0  0.104502  0.119376  0  1.030296  0
H  H16  1  0.75985732  0.42995942  0.20261887  1  0.090302  0  0.1045  0.119354  0  1.030298  0
H  H17  1  0.74014762  0.79738421  0.57004794  1  0.090282  0  0.104497  0.119337  0  1.030371  0
H  H18  1  0.31851080  0.80117773  0.88893964  1  0.084542  0  0.107184  0.123448  0  0.992557  0
H  H19  1  0.18148866  0.11105705  0.19881731  1  0.084571  0  0.107196  0.123425  0  0.992418  0
H  H20  1  0.68149304  0.19882532  0.11106266  1  0.084673  0  0.107188  0.123456  0  0.992409  0
H  H21  1  0.81850940  0.88894056  0.80117972  1  0.084596  0  0.107191  0.123441  0  0.992437  0
H  H22  1  0.44490506  0.80813494  0.74049757  1  0.083433  0  0.103388  0.099152  0  1.007521  0
H  H23  1  0.05509119  0.25950311  0.19186494  1  0.083409  0  0.103405  0.099185  0  1.007566  0
H  H24  1  0.55509213  0.19186734  0.25950429  1  0.083461  0  0.103395  0.099156  0  1.007529  0
H  H25  1  0.94491139  0.74049683  0.80813389  1  0.083214  0  0.10339  0.099165  0  1.007567  0
H  H26  1  0.66003929  0.69410428  0.66444114  1  0.075109  0  0.099599  0.104202  0  1.039136  0
H  H27  1  0.83995881  0.33555889  0.30589704  1  0.07509  0  0.099621  0.104254  0  1.039127  0
H  H28  1  0.33995444  0.30589489  0.33555790  1  0.075048  0  0.099633  0.104242  0  1.039211  0
H  H29  1  0.16004936  0.66444263  0.69410601  1  0.075017  0  0.099633  0.104217  0  1.039256  0
H  H30  1  0.74000544  0.58038739  0.74170760  1  0.093033  0  0.109906  0.078543  0  1.014147  0
H  H31  1  0.75999161  0.25829119  0.41961261  1  0.093038  0  0.109887  0.078488  0  1.014079  0
H  H32  1  0.25998939  0.41961180  0.25829284  1  0.093002  0  0.109893  0.078519  0  1.014169  0
H  H33  1  0.24001558  0.74171266  0.58039215  1  0.093294  0  0.109909  0.07853  0  1.014113  0
H  H34  1  0.36933678  0.54961771  0.05449873  1  0.077076  0  0.1075  0.122086  0  0.999779  0
H  H35  1  0.13066075  0.94549832  0.45038178  1  0.077058  0  0.107486  0.122116  0  0.999762  0
H  H36  1  0.63066148  0.45038376  0.94549867  1  0.077015  0  0.107483  0.122071  0  0.999871  0
H  H37  1  0.86933841  0.05449932  0.54961733  1  0.077032  0  0.107501  0.122084  0  0.999774  0
H  H38  1  0.51527106  0.54839950  0.19667403  1  0.099854  0  0.102957  0.114471  0  1.043818  0
H  H39  1  0.98472746  0.80332336  0.45159725  1  0.09985  0  0.10297  0.11447  0  1.043899  0
H  H40  1  0.48472917  0.45159733  0.80332130  1  0.099739  0  0.102952  0.114467  0  1.043854  0
H  H41  1  0.01527276  0.19667348  0.54839946  1  0.099838  0  0.10296  0.114473  0  1.043833  0
H  H42  1  0.62277381  0.81236507  0.07340652  1  0.084088  0  0.105113  0.121544  0  0.987432  0
H  H43  1  0.87722392  0.92659014  0.18763212  1  0.084208  0  0.105064  0.121486  0  0.987403  0
H  H44  1  0.37722445  0.18763644  0.92659501  1  0.084137  0  0.105074  0.121453  0  0.987405  0
H  H45  1  0.12277319  0.07341059  0.81236836  1  0.084181  0  0.105085  0.12152  0  0.987464  0
H  H46  1  0.51352646  0.64411455  0.37197084  1  0.138547  0  0.104671  0.109568  0  1.077832  0
H  H47  1  0.98647461  0.62802526  0.35587881  1  0.138071  0  0.104646  0.109578  0  1.077746  0
H  H48  1  0.48647569  0.35587688  0.62802413  1  0.138087  0  0.104651  0.109588  0  1.077672  0
H  H49  1  0.01352695  0.37197616  0.64411381  1  0.138154  0  0.10467  0.109552  0  1.077892  0
H  H50  1  0.51245785  0.54394904  0.46781926  1  0.07595  0  0.099078  0.095396  0  1.041931  0
H  H51  1  0.98755187  0.53217930  0.45605103  1  0.075972  0  0.099072  0.095363  0  1.0418  0
H  H52  1  0.48755020  0.45605013  0.53217929  1  0.075866  0  0.099074  0.095363  0  1.041793  0
H  H53  1  0.01245985  0.46782682  0.54395140  1  0.075881  0  0.099069  0.095409  0  1.041845  0
H  H54  1  0.75000291  0.48617006  0.51383379  1  0.078884  0  0.101157  0.109725  0  1.018604  0
H  H55  1  0.25000444  0.51383687  0.48617168  1  0.078974  0  0.101119  0.109691  0  1.018659  0
C  C56  1  0.02435139  0.65367208  0.04330958  1  0.41396  0  0.037596  0.09933  0  3.955068  0
C  C57  1  0.47564655  0.95668912  0.34632759  1  0.413904  0  0.03763  0.099418  0  3.955002  0
C  C58  1  0.97565111  0.34632633  0.95669061  1  0.413974  0  0.037575  0.099328  0  3.954912  0
C  C59  1  0.52435147  0.04330777  0.65367391  1  0.413962  0  0.037509  0.099266  0  3.955117  0
C  C60  1  0.94822278  0.59859757  0.94937693  1  0.079158  0  -0.096251  -0.148798  0  3.978609  0
C  C61  1  0.55177895  0.05062042  0.40139964  1  0.079186  0  -0.096307  -0.148861  0  3.978675  0
C  C62  1  0.05178197  0.40140164  0.05062570  1  0.079044  0  -0.096207  -0.148699  0  3.978502  0
C  C63  1  0.44822037  0.94938031  0.59860155  1  0.079197  0  -0.09627  -0.148763  0  3.978679  0
C  C64  1  0.02664540  0.56958628  0.85913909  1  -0.098174  0  -0.072179  -0.012145  0  3.978779  0
C  C65  1  0.47335313  0.14086017  0.43041016  1  -0.098035  0  -0.072118  -0.012103  0  3.978707  0
C  C66  1  0.97335824  0.43041290  0.14086077  1  -0.098168  0  -0.072201  -0.012227  0  3.978891  0
C  C67  1  0.52664717  0.85913824  0.56958931  1  -0.098217  0  -0.072093  -0.012148  0  3.978756  0
C  C68  1  0.17545130  0.59639922  0.86636221  1  -0.044758  0  -0.096656  -0.221687  0  3.953981  0
C  C69  1  0.32454723  0.13363319  0.40359734  1  -0.044644  0  -0.096641  -0.221677  0  3.954016  0
C  C70  1  0.82455235  0.40359994  0.13363559  1  -0.044669  0  -0.096599  -0.221596  0  3.953975  0
C  C71  1  0.67545193  0.86636445  0.59640245  1  -0.044764  0  -0.096669  -0.221654  0  3.954051  0
C  C72  1  0.24457030  0.65438737  0.96461054  1  0.873188  0  0.218659  0.317369  0  4.023814  0
C  C73  1  0.25542782  0.03538877  0.34561142  1  0.873119  0  0.218625  0.317381  0  4.023993  0
C  C74  1  0.75543024  0.34561567  0.03539103  1  0.872999  0  0.218645  0.317395  0  4.023901  0
C  C75  1  0.74457032  0.96461041  0.65438837  1  0.873161  0  0.218641  0.31737  0  4.023856  0
C  C76  1  0.46579806  0.68737121  0.89150816  1  0.887785  0  0.214932  0.311059  0  4.057259  0
C  C77  1  0.03419830  0.10849067  0.31262478  1  0.887862  0  0.214949  0.311046  0  4.057399  0
C  C78  1  0.53420137  0.31263186  0.10849615  1  0.887044  0  0.214926  0.311126  0  4.057259  0
C  C79  1  0.96579874  0.89150851  0.68737499  1  0.88783  0  0.214922  0.311107  0  4.057299  0
C  C80  1  0.41275171  0.75391809  0.85398847  1  -0.023165  0  -0.093473  -0.222646  0  3.980888  0
C  C81  1  0.08723558  0.14601105  0.24608276  1  -0.017752  0  -0.093428  -0.222493  0  3.981062  0
C  C82  1  0.58724132  0.24608883  0.14601543  1  -0.017664  0  -0.093389  -0.222591  0  3.980992  0
C  C83  1  0.91276256  0.85398812  0.75391566  1  -0.01755  0  -0.093501  -0.222719  0  3.981058  0
C  C84  1  0.48306873  0.75720048  0.77156787  1  -0.092539  0  -0.076856  -0.027138  0  4.004657  0
C  C85  1  0.01693232  0.22842825  0.24279584  1  -0.09785  0  -0.07693  -0.027259  0  4.004803  0
C  C86  1  0.51693275  0.24279946  0.22843094  1  -0.098043  0  -0.076885  -0.027126  0  4.004625  0
C  C87  1  0.98307234  0.77156939  0.75720334  1  -0.097907  0  -0.076783  -0.026996  0  4.004596  0
C  C88  1  0.60311007  0.69480098  0.72969151  1  -0.007317  0  -0.096302  -0.151023  0  3.995311  0
C  C89  1  0.89688623  0.27030759  0.30520053  1  -0.007276  0  -0.096306  -0.151108  0  3.995225  0
C  C90  1  0.39688370  0.30519898  0.27030857  1  -0.007264  0  -0.096341  -0.151121  0  3.995326  0
C  C91  1  0.10311973  0.72969392  0.69480180  1  -0.006797  0  -0.096361  -0.151159  0  3.995497  0
C  C92  1  0.64861415  0.63217137  0.77339692  1  0.489683  0  0.042919  0.101545  0  3.983553  0
C  C93  1  0.85138518  0.22660143  0.36782583  1  0.489751  0  0.04297  0.101698  0  3.98338  0
C  C94  1  0.35137966  0.36782936  0.22660351  1  0.489805  0  0.042915  0.101621  0  3.983486  0
C  C95  1  0.14862303  0.77340085  0.63217618  1  0.488969  0  0.042905  0.101628  0  3.983506  0
C  C96  1  0.48492071  0.68233936  0.05701416  1  0.266454  0  0.072978  0.152445  0  4.078428  0
C  C97  1  0.01507816  0.94298239  0.31765913  1  0.266418  0  0.073008  0.152487  0  4.078335  0
C  C98  1  0.51507543  0.31766368  0.94298667  1  0.266369  0  0.072927  0.152306  0  4.07848  0
C  C99  1  0.98491875  0.05701447  0.68233891  1  0.266405  0  0.072964  0.152386  0  4.078375  0
C  C100  1  0.45745208  0.60780461  0.09160908  1  0.063548  0  -0.096514  -0.15519  0  4.009442  0
C  C101  1  0.04254726  0.90838865  0.39219335  1  0.063599  0  -0.096485  -0.155201  0  4.009434  0
C  C102  1  0.54254834  0.39219610  0.90838938  1  0.06377  0  -0.096514  -0.155111  0  4.009307  0
C  C103  1  0.95745308  0.09161051  0.60780509  1  0.06367  0  -0.096531  -0.155179  0  4.009428  0
C  C104  1  0.54040212  0.60696775  0.17216023  1  -0.005299  0  -0.098868  -0.152219  0  4.004361  0
C  C105  1  0.95959807  0.82783807  0.39303238  1  -0.005505  0  -0.098872  -0.152215  0  4.004201  0
C  C106  1  0.45959500  0.39303293  0.82783612  1  -0.005283  0  -0.098797  -0.152175  0  4.00425  0
C  C107  1  0.04039995  0.17215879  0.60696567  1  -0.005335  0  -0.098851  -0.15222  0  4.004344  0
C  C108  1  0.65331229  0.68219525  0.21829644  1  0.303626  0  0.09365  0.127456  0  4.000801  0
C  C109  1  0.84668385  0.78170111  0.31780243  1  0.303747  0  0.093616  0.127443  0  4.000728  0
C  C110  1  0.34668482  0.31780547  0.78170335  1  0.303715  0  0.093556  0.127371  0  4.00052  0
C  C111  1  0.15331311  0.21829651  0.68219458  1  0.303696  0  0.093632  0.127457  0  4.000778  0
C  C112  1  0.68766853  0.75525142  0.18168735  1  0.018676  0  -0.022593  -0.020124  0  4.05928  0
C  C113  1  0.81232988  0.81831144  0.24474829  1  -0.028374  0  -0.022581  -0.020159  0  4.05932  0
C  C114  1  0.31232846  0.24474699  0.81831207  1  -0.028464  0  -0.022555  -0.020097  0  4.059188  0
C  C115  1  0.18767046  0.18168775  0.75525222  1  0.018655  0  -0.022561  -0.020142  0  4.059243  0
C  C116  1  0.60119803  0.75558072  0.10107000  1  -0.016727  0  -0.095307  -0.204587  0  3.978875  0
C  C117  1  0.89880052  0.89892527  0.24441731  1  -0.016752  0  -0.095296  -0.204526  0  3.978819  0
C  C118  1  0.39880022  0.24442077  0.89892946  1  -0.016741  0  -0.095271  -0.204432  0  3.978811  0
C  C119  1  0.10119750  0.10107161  0.75558350  1  -0.016809  0  -0.095311  -0.204553  0  3.978839  0
C  C120  1  0.75000102  0.64259046  0.35740625  1  0.321911  0  0.094876  0.183179  0  4.014832  0
C  C121  1  0.25000687  0.35740559  0.64258883  1  0.321921  0  0.094893  0.183094  0  4.014848  0
C  C122  1  0.61688137  0.61737360  0.38835186  1  -0.039392  0  -0.096363  -0.174226  0  3.979104  0
C  C123  1  0.88311390  0.61164173  0.38262737  1  -0.038927  0  -0.096376  -0.17439  0  3.979387  0
C  C124  1  0.38310804  0.38262707  0.61164162  1  -0.039005  0  -0.096472  -0.174527  0  3.979783  0
C  C125  1  0.11687853  0.38835360  0.61737128  1  -0.038883  0  -0.096321  -0.174171  0  3.978861  0
C  C126  1  0.61772913  0.56119719  0.44393539  1  -0.068145  0  -0.097203  -0.079779  0  4.033358  0
C  C127  1  0.88226528  0.55606839  0.43879989  1  -0.067902  0  -0.097143  -0.079594  0  4.033639  0
C  C128  1  0.38226554  0.43879896  0.55606915  1  -0.067851  0  -0.097101  -0.079468  0  4.033505  0
C  C129  1  0.11773447  0.44394079  0.56119964  1  -0.068235  0  -0.097141  -0.079667  0  4.033347  0
C  C130  1  0.75000683  0.53001850  0.46998380  1  -0.121138  0  -0.101753  -0.116474  0  4.01904  0
C  C131  1  0.25000496  0.46998918  0.53002002  1  -0.121368  0  -0.101768  -0.116571  0  4.019173  0
N  N132  1  0.16812351  0.68325198  0.05164658  1  -1.208954  0  -0.349611  -0.288559  0  3.572267  0
N  N133  1  0.33187383  0.94835104  0.31674675  1  -1.209083  0  -0.349615  -0.28862  0  3.572366  0
N  N134  1  0.83187584  0.31674952  0.94835427  1  -1.208931  0  -0.349579  -0.288521  0  3.572226  0
N  N135  1  0.66812321  0.05164816  0.68325510  1  -1.209043  0  -0.34953  -0.288507  0  3.572259  0
N  N136  1  0.39535695  0.68069405  0.97451398  1  -1.203437  0  -0.252272  -0.212653  0  3.667939  0
N  N137  1  0.10464244  0.02548438  0.31930399  1  -1.203291  0  -0.252295  -0.212754  0  3.6678  0
N  N138  1  0.60464371  0.31931130  0.02548658  1  -1.202752  0  -0.252296  -0.212776  0  3.667852  0
N  N139  1  0.89535787  0.97451402  0.68069480  1  -1.203341  0  -0.252279  -0.21265  0  3.667855  0
N  N140  1  0.58220331  0.62813696  0.85288494  1  -1.195204  0  -0.315528  -0.321201  0  3.300974  0
N  N141  1  0.91779336  0.14711169  0.37185989  1  -1.195639  0  -0.315581  -0.321254  0  3.300904  0
N  N142  1  0.41779495  0.37186453  0.14711521  1  -1.195225  0  -0.315542  -0.321258  0  3.300885  0
N  N143  1  0.08221036  0.85288904  0.62814137  1  -1.195464  0  -0.315555  -0.321259  0  3.300736  0
N  N144  1  0.74999947  0.69931388  0.30068404  1  -1.267018  0  -0.235025  -0.089856  0  3.711458  0
N  N145  1  0.24999643  0.30068450  0.69931262  1  -1.266994  0  -0.235002  -0.089744  0  3.711131  0
N  N146  1  0.24999860  0.66750106  0.33249867  1  0.774769  0  0.087271  0.701877  0  4.426181  0
N  N147  1  0.74999607  0.33249502  0.66749829  1  0.774732  0  0.08716  0.701547  0  4.426642  0
O  O148  1  0.16388136  0.64008840  0.25362344  1  -0.561148  0  -0.197688  -0.441842  0  2.003189  0
O  O149  1  0.33611620  0.74637619  0.35991166  1  -0.561262  0  -0.197749  -0.441875  0  2.003216  0
O  O150  1  0.83611352  0.35991153  0.74637390  1  -0.561148  0  -0.197717  -0.441745  0  2.003135  0
O  O151  1  0.66388177  0.25361991  0.64008742  1  -0.561216  0  -0.197648  -0.441741  0  2.003539  0
O  O152  1  0.24999823  0.61656590  0.38343432  1  -0.509972  0  -0.20928  -0.470242  0  1.919709  0
O  O153  1  0.74999416  0.38342861  0.61655985  1  -0.509979  0  -0.209236  -0.4701  0  1.919761  0
