# generated using pymatgen
data_Fe2H15C12O7
_symmetry_space_group_name_H-M   'P 1'
_cell_length_a   5.02201423
_cell_length_b   12.09009720
_cell_length_c   12.42579648
_cell_angle_alpha   118.76573227
_cell_angle_beta   93.97064757
_cell_angle_gamma   90.96285315
_symmetry_Int_Tables_number   1
_chemical_formula_structural   Fe2H15C12O7
_chemical_formula_sum   'Fe4 H30 C24 O14'
_cell_volume   658.67686320
_cell_formula_units_Z   2
loop_
 _symmetry_equiv_pos_site_id
 _symmetry_equiv_pos_as_xyz
  1  'x, y, z'
loop_
 _atom_site_type_symbol
 _atom_site_label
 _atom_site_symmetry_multiplicity
 _atom_site_fract_x
 _atom_site_fract_y
 _atom_site_fract_z
 _atom_site_occupancy
 _atom_site_hse06_10hf_ddec_charge
 _atom_site_hse06_10hf_ddec_spin_density
 _atom_site_hse06_10hf_ddec_sum_bond_order
 _atom_site_hse06_10hf_magmom
 _atom_site_hse06_ddec_charge
 _atom_site_hse06_ddec_spin_density
 _atom_site_hse06_ddec_sum_bond_order
 _atom_site_hse06_magmom
 _atom_site_pbe_cm5_charge
 _atom_site_pbe_ddec_charge
 _atom_site_pbe_ddec_spin_density
 _atom_site_pbe_ddec_sum_bond_order
 _atom_site_pbe_magmom
Fe  Fe0  1  0.45733822  0.00148331  0.38120614  1  1.412149  4.227607  2.628504  3.979  1.589273  4.43234  2.510479  4.166  0.80846  1.26398  3.94818  2.722296  3.734
Fe  Fe1  1  0.55439258  0.00751502  0.62740952  1  1.183451  -3.984156  2.52796  -3.798  1.263909  -4.034103  2.457125  -3.872  0.724651  1.106828  -3.909976  2.590066  -3.702
Fe  Fe2  1  0.96421570  0.85750285  0.39187594  1  1.229417  -3.968991  2.485208  -3.783  1.294061  -3.996561  2.417141  -3.845  0.738295  1.161667  -3.878795  2.541505  -3.667
Fe  Fe3  1  0.03390899  0.13442751  0.60574794  1  1.233041  -3.98426  2.535222  -3.776  1.37447  -4.165975  2.441407  -3.951  0.725394  1.132527  -3.79629  2.60976  -3.582
H  H4  1  0.23285436  0.02987533  0.15017099  1  0.098209  0.000158  0.994065  0.0  0.1001  5.4e-05  0.993839  0.0  0.104598  0.096883  0.000241  0.994316  0.0
H  H5  1  0.76713326  0.96945531  0.84931575  1  0.100136  -0.000136  0.993346  -0.001  0.102725  -1.9e-05  0.992355  0.0  0.105169  0.098312  -0.000281  0.993953  -0.001
H  H6  1  0.66641909  0.08141268  0.08138567  1  0.085331  1.3e-05  1.009691  0.0  0.087042  -1.3e-05  1.008357  0.0  0.090299  0.083966  3.2e-05  1.010884  0.0
H  H7  1  0.33242256  0.91782447  0.91901104  1  0.085587  3e-06  1.010152  0.0  0.086923  2.7e-05  1.009443  0.0  0.090954  0.084625  -2.7e-05  1.010618  0.0
H  H8  1  0.90478033  0.19589167  0.19121488  1  0.092369  -3e-05  0.980783  0.0  0.092536  -2e-05  0.981948  0.0  0.092716  0.09192  -4.3e-05  0.980337  0.0
H  H9  1  0.09426081  0.80334529  0.80895633  1  0.092531  4.2e-05  0.982586  0.0  0.09365  3.7e-05  0.98294  0.0  0.092513  0.091108  3.2e-05  0.982921  0.0
H  H10  1  0.10354679  0.80502119  0.01235284  1  0.089331  -7e-05  1.001831  0.0  0.090552  -5.1e-05  1.001726  0.0  0.091617  0.088508  -8.3e-05  1.001997  0.0
H  H11  1  0.89527861  0.19435429  0.98789913  1  0.08845  5e-05  1.003026  0.0  0.089633  6.1e-05  1.002942  0.0  0.091093  0.087355  3e-05  1.003332  0.0
H  H12  1  0.78688242  0.84317158  0.97118499  1  0.083172  -8e-06  0.996162  0.0  0.084136  -1.4e-05  0.99628  0.0  0.090104  0.082216  -2e-06  0.996416  0.0
H  H13  1  0.21187185  0.15624532  0.02910296  1  0.083537  1e-05  0.996354  0.0  0.084095  1.4e-05  0.997024  0.0  0.090328  0.083043  1e-06  0.995948  0.0
H  H14  1  0.70925406  0.58496640  0.16571353  1  0.101154  -2.2e-05  0.983226  0.0  0.103775  2.1e-05  0.982003  0.0  0.106411  0.098987  -5.6e-05  0.984542  0.0
H  H15  1  0.29201109  0.41350783  0.83316044  1  0.101668  -5.9e-05  0.980927  0.0  0.10381  3e-05  0.980223  0.0  0.106771  0.100254  -0.000147  0.981314  -0.001
H  H16  1  0.32147845  0.44447162  0.15218816  1  0.087005  -3.6e-05  1.003723  0.0  0.08769  -2.4e-05  1.004252  0.0  0.090806  0.086311  -4.6e-05  1.003513  0.0
H  H17  1  0.67971309  0.55426674  0.84697841  1  0.087012  1e-05  1.004437  0.0  0.087385  1.5e-05  1.005155  0.0  0.090864  0.086388  0.0  1.004227  0.0
H  H18  1  0.13387344  0.48639696  0.05370485  1  0.083249  -1.2e-05  1.027676  0.0  0.084273  1.6e-05  1.027518  0.0  0.088669  0.082347  -3.8e-05  1.027991  0.0
H  H19  1  0.86731541  0.51238758  0.94554530  1  0.083185  -5e-06  1.027256  0.0  0.08472  1.5e-05  1.026308  0.0  0.088549  0.082136  -2.7e-05  1.027764  0.0
H  H20  1  0.34770330  0.65284624  0.00041623  1  0.082381  -2.3e-05  0.994081  0.0  0.082672  -1.5e-05  0.994814  0.0  0.088839  0.081974  -2.7e-05  0.993812  0.0
H  H21  1  0.65323508  0.34584259  0.99871519  1  0.082221  -7e-06  0.994623  0.0  0.083006  -1e-06  0.994751  0.0  0.088739  0.0816  -1.4e-05  0.994659  0.0
H  H22  1  0.67205079  0.71951259  0.06890899  1  0.095262  1.9e-05  1.011482  0.0  0.096254  6e-06  1.011811  0.0  0.094083  0.094923  2.8e-05  1.010943  0.0
H  H23  1  0.32867934  0.27923994  0.93035839  1  0.092792  0.000278  1.013703  0.0  0.093686  0.00029  1.014394  0.0  0.093141  0.092243  0.000255  1.012946  0.0
H  H24  1  0.12301499  0.42227165  0.46069541  1  0.084372  0.000213  0.989624  0.0  0.086779  0.000192  0.988907  0.0  0.100671  0.082438  0.000198  0.990372  0.0
H  H25  1  0.87346223  0.58084259  0.54141170  1  0.082278  -0.000125  0.992198  0.0  0.082473  -0.000102  0.993225  0.0  0.100228  0.082539  -0.000252  0.99128  0.0
H  H26  1  0.69295064  0.34432252  0.39818434  1  0.088034  2.8e-05  1.010521  0.0  0.088874  0.0  1.009921  0.0  0.090992  0.087518  3.6e-05  1.010838  0.0
H  H27  1  0.30345297  0.65814449  0.60403044  1  0.089664  6e-05  1.010529  0.0  0.091781  8.6e-05  1.009603  0.0  0.090932  0.087905  4.7e-05  1.011671  0.0
H  H28  1  0.41929364  0.31479573  0.28982653  1  0.086776  -3.6e-05  0.989952  0.0  0.086829  -3.9e-05  0.990741  0.0  0.090244  0.087241  -5.1e-05  0.988976  0.0
H  H29  1  0.57787246  0.68760197  0.71220316  1  0.086199  7e-05  0.990195  0.0  0.086465  6.4e-05  0.991188  0.0  0.089697  0.086249  6e-05  0.989403  0.0
H  H30  1  0.29358127  0.49793337  0.67663885  1  0.092863  -2e-06  0.988344  0.0  0.093735  2.1e-05  0.988546  0.0  0.092518  0.092281  -2.5e-05  0.9882  0.0
H  H31  1  0.70463110  0.50420382  0.32554638  1  0.092747  -2.9e-05  0.988254  0.0  0.093991  -0.0  0.988442  0.0  0.092376  0.092226  -5.2e-05  0.987798  0.0
H  H32  1  0.62073614  0.45583756  0.63210325  1  0.09296  8.8e-05  0.985482  0.0  0.093299  8.6e-05  0.986167  0.0  0.092347  0.092671  8e-05  0.98505  0.0
H  H33  1  0.37681748  0.54625032  0.36905941  1  0.094314  8.9e-05  0.985044  0.0  0.095831  9.4e-05  0.984914  0.0  0.092372  0.093442  7.2e-05  0.985017  0.0
C  C34  1  0.90275455  0.97710349  0.21621898  1  0.677548  0.002658  4.034411  0.005  0.720177  0.001796  4.02209  0.003  0.238502  0.645275  0.003633  4.043382  0.006
C  C35  1  0.10138397  0.02091873  0.78417596  1  0.680771  -0.003316  4.021461  -0.005  0.72031  -0.001415  4.011226  -0.002  0.242114  0.650804  -0.004282  4.02899  -0.006
C  C36  1  0.01904505  0.00256915  0.12056443  1  -0.136327  0.000198  3.881569  0.001  -0.143836  0.000235  3.895197  0.001  -0.091153  -0.130836  -6.6e-05  3.87266  0.0
C  C37  1  0.98068565  0.99674674  0.87949088  1  -0.137582  -0.002666  3.880569  -0.005  -0.144787  -0.001912  3.893954  -0.004  -0.090511  -0.132182  -0.003332  3.87164  -0.006
C  C38  1  0.88244765  0.10618227  0.10392375  1  -0.153782  -0.000343  3.938875  0.0  -0.153305  -0.000269  3.951628  0.0  -0.162813  -0.153961  -0.000431  3.930326  -0.001
C  C39  1  0.11646563  0.89298347  0.89628691  1  -0.154917  -0.000314  3.941346  0.0  -0.154661  -0.000203  3.953942  0.0  -0.162773  -0.154846  -0.000398  3.932958  -0.001
C  C40  1  0.99902021  0.87674189  0.99812872  1  -0.152234  -0.000103  3.915795  0.0  -0.152424  -0.000119  3.928583  0.0  -0.158789  -0.152065  -7.8e-05  3.907041  0.0
C  C41  1  0.99983850  0.12261189  0.00206502  1  -0.153237  -0.000149  3.914455  0.0  -0.153614  -2.5e-05  3.927959  0.0  -0.158423  -0.152705  -0.000233  3.905081  0.0
C  C42  1  0.39410624  0.70689696  0.23685103  1  0.668041  -0.001621  4.038401  -0.004  0.706091  -0.001433  4.030953  -0.004  0.237416  0.638449  -0.001291  4.045135  -0.003
C  C43  1  0.60691640  0.29158463  0.76241237  1  0.666634  -0.004012  4.031113  -0.007  0.708162  -0.002478  4.020325  -0.005  0.238249  0.637031  -0.004819  4.036194  -0.008
C  C44  1  0.50783625  0.59537209  0.13143691  1  -0.134683  0.00034  3.888179  0.0  -0.141737  0.000595  3.90167  0.001  -0.089565  -0.129509  -8.2e-05  3.879628  0.0
C  C45  1  0.49333120  0.40317266  0.86756885  1  -0.133053  -0.002354  3.884868  -0.004  -0.140396  -0.00182  3.898567  -0.004  -0.088955  -0.127484  -0.002708  3.874825  -0.005
C  C46  1  0.33824992  0.47188616  0.08030327  1  -0.163834  1.4e-05  3.962286  0.0  -0.16357  7.6e-05  3.975664  0.0  -0.1659  -0.163791  -7.9e-05  3.953204  0.0
C  C47  1  0.66289270  0.52675577  0.91880056  1  -0.163908  -0.000279  3.95939  0.0  -0.163724  -0.000156  3.972503  0.0  -0.165516  -0.163768  -0.000392  3.950209  -0.001
C  C48  1  0.54433653  0.63216195  0.02989908  1  -0.149875  -3.3e-05  3.895635  0.0  -0.150134  -1.5e-05  3.909338  0.0  -0.159209  -0.149548  -3.8e-05  3.885749  0.0
C  C49  1  0.45658411  0.36649373  0.96924042  1  -0.149421  -3e-06  3.896298  0.0  -0.149696  8.7e-05  3.909415  0.0  -0.15955  -0.148976  -9.7e-05  3.886826  0.0
C  C50  1  0.26700665  0.26635093  0.47679814  1  0.661133  0.000911  4.064149  0.001  0.704338  0.000959  4.052204  0.001  0.235367  0.62948  0.00069  4.071441  0.001
C  C51  1  0.72929884  0.73609820  0.52477456  1  0.651681  0.000419  4.078  0.001  0.688598  0.000565  4.073214  0.001  0.232535  0.62669  -0.003064  4.076818  -0.004
C  C52  1  0.31901909  0.39183936  0.47900964  1  -0.117876  0.001261  3.876305  0.002  -0.124748  0.001146  3.887897  0.002  -0.087822  -0.112929  0.000879  3.868946  0.001
C  C53  1  0.67712060  0.61095756  0.52305493  1  -0.118209  -0.003079  3.882115  -0.006  -0.124185  -0.002343  3.89641  -0.004  -0.087217  -0.114545  -0.003694  3.872546  -0.006
C  C54  1  0.50560541  0.38296948  0.38322660  1  -0.162423  -0.000358  3.952349  -0.001  -0.161278  -0.000349  3.965142  0.0  -0.166403  -0.162911  -0.000419  3.942718  -0.001
C  C55  1  0.49102649  0.61957480  0.61884091  1  -0.16227  -0.000254  3.951816  0.0  -0.162548  -0.000114  3.964969  0.0  -0.165833  -0.162128  -0.000403  3.94288  -0.001
C  C56  1  0.43427572  0.49050119  0.60974748  1  -0.163259  9.2e-05  3.917525  0.0  -0.163445  0.000129  3.931779  0.0  -0.16195  -0.163024  1.2e-05  3.907637  0.0
C  C57  1  0.56284325  0.51188629  0.39214652  1  -0.164391  7.4e-05  3.915115  0.0  -0.165424  8.5e-05  3.928151  0.0  -0.162464  -0.163359  -0.000196  3.905347  0.0
O  O58  1  0.65569674  0.98805393  0.22977826  1  -0.561934  0.033422  2.277355  0.055  -0.602052  0.030663  2.264095  0.051  -0.293939  -0.531596  0.03323  2.286851  0.053
O  O59  1  0.34827599  0.01187045  0.77287342  1  -0.538271  -0.032069  2.294629  -0.051  -0.571556  -0.02591  2.28401  -0.041  -0.28741  -0.513998  -0.036539  2.307312  -0.06
O  O60  1  0.06309218  0.93794397  0.27454945  1  -0.648621  0.001502  2.45394  -0.002  -0.69617  0.003563  2.446956  0.004  -0.314189  -0.608474  -0.001573  2.456119  -0.009
O  O61  1  0.94295684  0.05707972  0.72174883  1  -0.655141  -0.046196  2.518423  -0.074  -0.700966  -0.040589  2.502888  -0.065  -0.32016  -0.615965  -0.052412  2.525073  -0.083
O  O62  1  0.14917725  0.70467002  0.25431565  1  -0.544628  -0.028925  2.275447  -0.042  -0.577504  -0.023723  2.264294  -0.032  -0.292684  -0.519638  -0.032452  2.285882  -0.049
O  O63  1  0.85141137  0.29191011  0.74481047  1  -0.540526  -0.029738  2.274965  -0.047  -0.577611  -0.026415  2.262225  -0.042  -0.287299  -0.512548  -0.031694  2.285883  -0.051
O  O64  1  0.55570799  0.80445838  0.30100584  1  -0.650235  0.008403  2.484113  0.019  -0.694835  0.010478  2.473325  0.024  -0.312597  -0.612187  0.004123  2.488404  0.009
O  O65  1  0.44331772  0.19401698  0.69777960  1  -0.649264  -0.045271  2.513219  -0.065  -0.698446  -0.040685  2.507064  -0.058  -0.319821  -0.610227  -0.047778  2.517161  -0.069
O  O66  1  0.08464808  0.25931673  0.53961136  1  -0.577672  -0.026601  2.308978  -0.04  -0.618263  -0.025945  2.296119  -0.04  -0.307539  -0.543927  -0.029039  2.313034  -0.043
O  O67  1  0.91815463  0.74200516  0.46368565  1  -0.591334  -0.03625  2.331756  -0.058  -0.628723  -0.029444  2.320482  -0.046  -0.315969  -0.558942  -0.041308  2.335843  -0.065
O  O68  1  0.41613798  0.17764270  0.41365072  1  -0.575826  0.046864  2.351827  0.078  -0.62373  0.043978  2.340499  0.075  -0.304465  -0.54002  0.043933  2.361386  0.07
O  O69  1  0.57848281  0.82506826  0.58347505  1  -0.566685  -0.033241  2.372643  -0.056  -0.604721  -0.027959  2.361279  -0.046  -0.304118  -0.532727  -0.037775  2.372611  -0.061
O  O70  1  0.75556601  0.01527022  0.48656442  1  -0.980641  -0.038284  2.316771  -0.039  -1.085174  -0.034502  2.312487  -0.036  -0.541516  -0.902049  -0.04539  2.338392  -0.057
O  O71  1  0.24886504  0.98716783  0.49896532  1  -0.996596  -0.051434  2.318251  -0.069  -1.094847  -0.043067  2.302058  -0.052  -0.543071  -0.911474  -0.067514  2.325212  -0.102
