# generated using pymatgen
data_AlH15C27(N5O3)2
_symmetry_space_group_name_H-M   'P 1'
_cell_length_a   3.90475050
_cell_length_b   18.06548891
_cell_length_c   18.11336510
_cell_angle_alpha   119.56672335
_cell_angle_beta   89.20285885
_cell_angle_gamma   90.91673361
_symmetry_Int_Tables_number   1
_chemical_formula_structural   AlH15C27(N5O3)2
_chemical_formula_sum   'Al1 H15 C27 N10 O6'
_cell_volume   1111.18508919
_cell_formula_units_Z   1
loop_
 _symmetry_equiv_pos_site_id
 _symmetry_equiv_pos_as_xyz
  1  'x, y, z'
loop_
 _atom_site_type_symbol
 _atom_site_label
 _atom_site_symmetry_multiplicity
 _atom_site_fract_x
 _atom_site_fract_y
 _atom_site_fract_z
 _atom_site_occupancy
 _atom_site_pbe_bader_charge
 _atom_site_pbe_bader_spin_density
 _atom_site_pbe_cm5_charge
 _atom_site_pbe_ddec_charge
 _atom_site_pbe_ddec_spin_density
 _atom_site_pbe_ddec_sum_bond_order
 _atom_site_pbe_magmom
Al  Al0  1  0.03656526  0.99977154  0.50051478  1  2.500991  0  0.420532  1.580789  0  2.583893  0
H  H1  1  0.77740085  0.30553591  0.41035950  1  0.080003  0  0.107089  0.117299  0  1.001348  0
H  H2  1  0.83229149  0.09348521  0.89132181  1  0.103247  0  0.106985  0.117933  0  1.002273  0
H  H3  1  0.79030823  0.60987291  0.19746627  1  0.138513  0  0.10672  0.117541  0  1.001273  0
H  H4  1  0.33015194  0.30755327  0.89941228  1  0.124236  0  0.108082  0.124412  0  1.002309  0
H  H5  1  0.82577660  0.01956767  0.73218094  1  0.09658  0  0.108202  0.11362  0  0.987263  0
H  H6  1  0.80262832  0.76927793  0.28509833  1  0.08547  0  0.107223  0.111776  0  0.988292  0
H  H7  1  0.27361029  0.59743707  0.40237264  1  0.108894  0  0.108119  0.124186  0  1.001702  0
H  H8  1  0.38076201  0.08746356  0.18758231  1  0.106722  0  0.108255  0.123404  0  1.000739  0
H  H9  1  0.78805768  0.21927999  0.48467005  1  0.085182  0  0.107805  0.112155  0  0.985939  0
H  H10  1  0.23074352  0.96335640  0.29258284  1  0.474515  0  0.303858  0.314627  0  0.965383  0
H  H11  1  0.17345368  0.97011764  0.20238407  1  0.445753  0  0.31034  0.308127  0  0.932333  0
H  H12  1  0.14012913  0.82481805  0.52642021  1  0.478337  0  0.304656  0.315811  0  0.966815  0
H  H13  1  0.04039820  0.72601368  0.51395348  1  0.449819  0  0.311313  0.311089  0  0.929339  0
H  H14  1  0.17384868  0.20176138  0.67331085  1  0.485355  0  0.304336  0.315084  0  0.967311  0
H  H15  1  0.09106342  0.28901708  0.77093431  1  0.441853  0  0.310965  0.310098  0  0.930065  0
C  C16  1  0.55037716  0.06379734  0.43126063  1  1.527717  0  0.270585  0.656475  0  4.05185  0
C  C17  1  0.53986280  0.06844355  0.63271640  1  1.543954  0  0.26809  0.652099  0  4.054032  0
C  C18  1  0.53060816  0.86710955  0.43584655  1  1.550637  0  0.267544  0.650845  0  4.055855  0
C  C19  1  0.68878401  0.23965369  0.37942139  1  -0.076429  0  -0.094791  -0.138438  0  3.988868  0
C  C20  1  0.57766407  0.20034829  0.29462397  1  0.011907  0  -0.00198  0.034382  0  4.005866  0
C  C21  1  0.71636685  0.12241054  0.85753277  1  -0.064132  0  -0.095843  -0.141306  0  3.990483  0
C  C22  1  0.58067291  0.20496673  0.90365673  1  0.023891  0  -0.001273  0.037635  0  4.000869  0
C  C23  1  0.53178958  0.59536601  0.29617270  1  -0.084141  0  -0.001554  0.036576  0  4.00546  0
C  C24  1  0.67487100  0.64279974  0.26047327  1  0.006566  0  -0.096002  -0.141359  0  3.990712  0
C  C25  1  0.43280646  0.24359649  0.86183896  1  -0.058964  0  -0.092975  -0.229998  0  3.91342  0
C  C26  1  0.40092426  0.20033626  0.77286517  1  0.443611  0  0.110073  0.299039  0  4.074441  0
C  C27  1  0.54935095  0.11804371  0.72611287  1  0.00601  0  -0.022443  -0.165579  0  3.921395  0
C  C28  1  0.70995018  0.08183952  0.76985825  1  -0.028651  0  -0.079971  -0.066326  0  4.003243  0
C  C29  1  0.67931012  0.73060078  0.30888427  1  -0.051311  0  -0.07979  -0.065934  0  4.005084  0
C  C30  1  0.52187054  0.77333487  0.38952755  1  -0.035625  0  -0.022748  -0.165101  0  3.923165  0
C  C31  1  0.36005551  0.72535818  0.42374012  1  0.403961  0  0.110184  0.298551  0  4.072977  0
C  C32  1  0.38246989  0.63605900  0.37669030  1  0.012899  0  -0.092633  -0.227942  0  3.912671  0
C  C33  1  0.46147832  0.11612621  0.25355403  1  0.016563  0  -0.092204  -0.224895  0  3.908831  0
C  C34  1  0.43631730  0.06931452  0.29659780  1  0.483631  0  0.109498  0.298295  0  4.070437  0
C  C35  1  0.56028264  0.10821835  0.38137747  1  -0.060023  0  -0.019907  -0.156749  0  3.915796  0
C  C36  1  0.69103336  0.19200485  0.42022526  1  0.000637  0  -0.079178  -0.067345  0  4.003521  0
C  C37  1  0.55742855  0.37765468  0.25427598  1  1.496865  0  0.355157  0.504428  0  4.086056  0
C  C38  1  0.59841045  0.24428976  0.11988073  1  1.472623  0  0.355388  0.503788  0  4.085607  0
C  C39  1  0.58181365  0.24826992  0.24828947  1  1.123923  0  0.2614  0.393502  0  4.022723  0
C  C40  1  0.54387216  0.50167584  0.24896426  1  1.137311  0  0.261166  0.393969  0  4.023327  0
C  C41  1  0.56991348  0.37947301  0.12033431  1  1.570894  0  0.355819  0.505463  0  4.0865  0
C  C42  1  0.58998339  0.25130445  0.99715533  1  1.042836  0  0.26147  0.393367  0  4.022439  0
N  N43  1  0.57510298  0.33383748  0.16483631  1  -1.25215  0  -0.194052  -0.241542  0  3.55064  0
N  N44  1  0.59976567  0.20212603  0.16295057  1  -1.206274  0  -0.321057  -0.444842  0  3.209863  0
N  N45  1  0.56456323  0.33361883  0.29546566  1  -1.151679  0  -0.318529  -0.440496  0  3.202344  0
N  N46  1  0.53351229  0.46222363  0.29560965  1  -1.108252  0  -0.321625  -0.446669  0  3.209204  0
N  N47  1  0.56430716  0.46429847  0.16380533  1  -1.285228  0  -0.319732  -0.441671  0  3.202043  0
N  N48  1  0.61535826  0.20381936  0.03529817  1  -1.166621  0  -0.319276  -0.440734  0  3.20278  0
N  N49  1  0.56878405  0.33675008  0.03575501  1  -1.134716  0  -0.321756  -0.446357  0  3.211522  0
N  N50  1  0.31622742  0.98662727  0.25466283  1  -1.255267  0  -0.597165  -0.62549  0  3.305545  0
N  N51  1  0.20626390  0.76288035  0.50239903  1  -1.254944  0  -0.59538  -0.621612  0  3.309885  0
N  N52  1  0.24944483  0.24033061  0.73423292  1  -1.245304  0  -0.594826  -0.619771  0  3.310009  0
O  O53  1  0.29712675  0.90703077  0.49218593  1  -1.262845  0  -0.239571  -0.603824  0  2.393362  0
O  O54  1  0.31040860  0.00855004  0.41616417  1  -1.252041  0  -0.23747  -0.603343  0  2.390285  0
O  O55  1  0.30466285  0.08411292  0.59331396  1  -1.257052  0  -0.23733  -0.600576  0  2.387968  0
O  O56  1  0.76960804  0.90542188  0.41838848  1  -1.261606  0  -0.242358  -0.601108  0  2.375035  0
O  O57  1  0.76699907  0.01131009  0.59416004  1  -1.264752  0  -0.244903  -0.605826  0  2.378285  0
O  O58  1  0.77895742  0.08222890  0.48782452  1  -1.263896  0  -0.242529  -0.601529  0  2.366607  0
