# generated using pymatgen
data_ZnH9C15(NO2)3
_symmetry_space_group_name_H-M   'P 1'
_cell_length_a   8.61637606
_cell_length_b   9.61519346
_cell_length_c   10.23059658
_cell_angle_alpha   61.39047591
_cell_angle_beta   83.51330315
_cell_angle_gamma   77.58361782
_symmetry_Int_Tables_number   1
_chemical_formula_structural   ZnH9C15(NO2)3
_chemical_formula_sum   'Zn2 H18 C30 N6 O12'
_cell_volume   726.64496006
_cell_formula_units_Z   2
loop_
 _symmetry_equiv_pos_site_id
 _symmetry_equiv_pos_as_xyz
  1  'x, y, z'
loop_
 _atom_site_type_symbol
 _atom_site_label
 _atom_site_symmetry_multiplicity
 _atom_site_fract_x
 _atom_site_fract_y
 _atom_site_fract_z
 _atom_site_occupancy
 _atom_site_pbe_bader_spin_density
 _atom_site_pbe_cm5_charge
 _atom_site_pbe_ddec_charge
 _atom_site_pbe_ddec_spin_density
 _atom_site_pbe_ddec_sum_bond_order
 _atom_site_pbe_magmom
Zn  Zn0  1  0.66129714  0.55568622  0.85455334  1  0  0.713267  0.892628  0  2.308527  0
Zn  Zn1  1  0.33870396  0.44431336  0.14544739  1  0  0.713266  0.892635  0  2.308565  0
H  H2  1  0.43446181  0.15048846  0.63216674  1  0  0.314481  0.300841  0  0.974434  0
H  H3  1  0.56553812  0.84951112  0.36783410  1  0  0.31448  0.300822  0  0.974465  0
H  H4  1  0.61045866  0.58203429  0.33965263  1  0  0.112021  0.114013  0  1.016954  0
H  H5  1  0.38954199  0.41796770  0.66034608  1  0  0.112028  0.114027  0  1.016951  0
H  H6  1  0.95671366  0.22367769  0.27365589  1  0  0.119738  0.130319  0  1.009616  0
H  H7  1  0.04328605  0.77632309  0.72634443  1  0  0.119743  0.130331  0  1.009589  0
H  H8  1  0.97685747  0.28541043  0.66218911  1  0  0.118689  0.126369  0  1.021926  0
H  H9  1  0.02314224  0.71459035  0.33781121  1  0  0.118687  0.126378  0  1.021915  0
H  H10  1  0.44128990  0.88209966  0.63846279  1  0  0.138042  0.098193  0  1.003882  0
H  H11  1  0.55871003  0.11789992  0.36153610  1  0  0.138046  0.098212  0  1.003874  0
H  H12  1  0.58107961  0.25294688  0.80992734  1  0  0.100852  0.118374  0  1.037797  0
H  H13  1  0.41892054  0.74705149  0.19007304  1  0  0.100867  0.118386  0  1.037768  0
H  H14  1  0.78668478  0.14303973  0.00344081  1  0  0.101366  0.108353  0  1.002107  0
H  H15  1  0.21331632  0.85695985  0.99655894  1  0  0.101363  0.108337  0  1.002117  0
H  H16  1  0.92683696  0.86045636  0.10676102  1  0  0.097879  0.097957  0  1.033397  0
H  H17  1  0.07316509  0.13954443  0.89323810  1  0  0.097899  0.098004  0  1.033394  0
H  H18  1  0.86453116  0.67384333  0.02444385  1  0  0.101819  0.115217  0  1.020776  0
H  H19  1  0.13546900  0.32615505  0.97555555  1  0  0.101818  0.115193  0  1.020736  0
C  C20  1  0.79112793  0.44914523  0.50639713  1  0  -0.010384  -0.024825  0  3.956497  0
C  C21  1  0.20887178  0.55085555  0.49360221  1  0  -0.010375  -0.024861  0  3.956516  0
C  C22  1  0.71559400  0.48771748  0.37651724  1  0  -0.054327  -0.061558  0  3.867375  0
C  C23  1  0.28440570  0.51228330  0.62348308  1  0  -0.054324  -0.061546  0  3.867393  0
C  C24  1  0.77330446  0.40661150  0.29291852  1  0  -0.008342  -0.024123  0  3.951185  0
C  C25  1  0.22669524  0.59338929  0.70708082  1  0  -0.008365  -0.024172  0  3.951196  0
C  C26  1  0.90897907  0.28617118  0.33850168  1  0  -0.059892  -0.110146  0  3.89668  0
C  C27  1  0.09102180  0.71382961  0.66149853  1  0  -0.059896  -0.110154  0  3.896621  0
C  C28  1  0.97725330  0.24364080  0.47292136  1  0  0.078361  0.06464  0  3.952731  0
C  C29  1  0.02274641  0.75635998  0.52707896  1  0  0.07835  0.064666  0  3.952667  0
C  C30  1  0.92089465  0.32190569  0.55789927  1  0  -0.058196  -0.108124  0  3.905305  0
C  C31  1  0.07910483  0.67809630  0.44210053  1  0  -0.058185  -0.108143  0  3.905305  0
C  C32  1  0.73032130  0.53992021  0.59282184  1  0  0.205634  0.568111  0  4.227622  0
C  C33  1  0.26967863  0.46007937  0.40717802  1  0  0.205697  0.568304  0  4.227637  0
C  C34  1  0.68633006  0.44976047  0.15637917  1  0  0.223719  0.586622  0  4.183531  0
C  C35  1  0.31367103  0.55023911  0.84362058  1  0  0.223779  0.586703  0  4.183499  0
C  C36  1  0.51116320  0.89959297  0.70935576  1  0  0.164701  0.203202  0  3.936352  0
C  C37  1  0.48883695  0.10040541  0.29064462  1  0  0.164656  0.203174  0  3.936369  0
C  C38  1  0.60591199  0.02205938  0.81046857  1  0  0.095911  0.14902  0  3.995784  0
C  C39  1  0.39408816  0.97793900  0.18953181  1  0  0.095886  0.149013  0  3.995858  0
C  C40  1  0.64108950  0.12776736  0.85540876  1  0  -0.094746  -0.162669  0  3.976412  0
C  C41  1  0.35891043  0.87223221  0.14459110  1  0  -0.094741  -0.16269  0  3.976583  0
C  C42  1  0.75611550  0.06501714  0.96436496  1  0  -0.094415  -0.077361  0  4.005092  0
C  C43  1  0.24388582  0.93498123  0.03563629  1  0  -0.094378  -0.077262  0  4.005156  0
C  C44  1  0.83496678  0.90313023  0.02440678  1  0  -0.097946  -0.08581  0  4.019039  0
C  C45  1  0.16503571  0.09686815  0.97559240  1  0  -0.097971  -0.085893  0  4.019049  0
C  C46  1  0.79970929  0.79742721  0.98002951  1  0  -0.099358  -0.166605  0  3.985129  0
C  C47  1  0.20029320  0.20257117  0.01997065  1  0  -0.099377  -0.166566  0  3.985057  0
C  C48  1  0.68089640  0.85789579  0.87374842  1  0  0.084367  0.146682  0  4.039334  0
C  C49  1  0.31910353  0.14210379  0.12625046  1  0  0.084372  0.146657  0  4.039323  0
N  N50  1  0.11017974  0.10737967  0.53055670  1  0  0.053684  0.510032  0  4.200231  0
N  N51  1  0.88982112  0.89262112  0.46944449  1  0  0.053688  0.51007  0  4.200184  0
N  N52  1  0.61700202  0.78454642  0.80847548  1  0  -0.366123  -0.386669  0  3.588002  0
N  N53  1  0.38299908  0.21545316  0.19152428  1  0  -0.366111  -0.386669  0  3.587904  0
N  N54  1  0.50075535  0.04270921  0.70695111  1  0  -0.369224  -0.255223  0  3.607349  0
N  N55  1  0.49924458  0.95729036  0.29304973  1  0  -0.369196  -0.255182  0  3.60739  0
O  O56  1  0.78565920  0.47296451  0.72605473  1  0  -0.325747  -0.542824  0  2.308599  0
O  O57  1  0.21434073  0.52703507  0.27394610  1  0  -0.325746  -0.54289  0  2.308584  0
O  O58  1  0.63181316  0.66967557  0.53565366  1  0  -0.317925  -0.56403  0  2.194361  0
O  O59  1  0.36818610  0.33032762  0.46434562  1  0  -0.318005  -0.56415  0  2.194484  0
O  O60  1  0.54081008  0.51704187  0.14786686  1  0  -0.317104  -0.571539  0  2.411259  0
O  O61  1  0.45918846  0.48295891  0.85213357  1  0  -0.317132  -0.571579  0  2.411328  0
O  O62  1  0.76355616  0.42167319  0.05456885  1  0  -0.307865  -0.52209  0  2.271069  0
O  O63  1  0.23644260  0.57832638  0.94543210  1  0  -0.3079  -0.522123  0  2.27105  0
O  O64  1  0.17094514  0.04789001  0.44821236  1  0  -0.122996  -0.336363  0  2.021666  0
O  O65  1  0.82905479  0.95210957  0.55178848  1  0  -0.122993  -0.336376  0  2.02172  0
O  O66  1  0.15377327  0.05630067  0.65985493  1  0  -0.11993  -0.330618  0  1.975836  0
O  O67  1  0.84622504  0.94370132  0.34014498  1  0  -0.119936  -0.33065  0  1.975734  0
