# generated using pymatgen
data_Cd3H46C52(N4O7)2
_symmetry_space_group_name_H-M   'P 1'
_cell_length_a   9.79527762
_cell_length_b   9.79153092
_cell_length_c   14.81490000
_cell_angle_alpha   76.20372207
_cell_angle_beta   76.20910351
_cell_angle_gamma   83.06652860
_symmetry_Int_Tables_number   1
_chemical_formula_structural   Cd3H46C52(N4O7)2
_chemical_formula_sum   'Cd3 H46 C52 N8 O14'
_cell_volume   1337.05842707
_cell_formula_units_Z   1
loop_
 _symmetry_equiv_pos_site_id
 _symmetry_equiv_pos_as_xyz
  1  'x, y, z'
loop_
 _atom_site_type_symbol
 _atom_site_label
 _atom_site_symmetry_multiplicity
 _atom_site_fract_x
 _atom_site_fract_y
 _atom_site_fract_z
 _atom_site_occupancy
 _atom_site_hle17_bader_spin_density
 _atom_site_hle17_ddec_charge
 _atom_site_hle17_ddec_spin_density
 _atom_site_hle17_ddec_sum_bond_order
 _atom_site_hle17_magmom
 _atom_site_hse06_10hf_bader_spin_density
 _atom_site_hse06_10hf_ddec_charge
 _atom_site_hse06_10hf_ddec_spin_density
 _atom_site_hse06_10hf_ddec_sum_bond_order
 _atom_site_hse06_10hf_magmom
 _atom_site_hse06_bader_spin_density
 _atom_site_hse06_ddec_charge
 _atom_site_hse06_ddec_spin_density
 _atom_site_hse06_ddec_sum_bond_order
 _atom_site_hse06_magmom
 _atom_site_pbe_bader_charge
 _atom_site_pbe_bader_spin_density
 _atom_site_pbe_cm5_charge
 _atom_site_pbe_ddec_charge
 _atom_site_pbe_ddec_spin_density
 _atom_site_pbe_ddec_sum_bond_order
 _atom_site_pbe_magmom
Cd  Cd0  1  0.53881195  0.46123763  0.99993279  1  0  1.181793  0  1.61899  0  0  1.008733  0  2.058578  0  0  1.073079  0  1.99892  0  1.286477  0  0.748148  0.958205  0  2.102939  0
Cd  Cd1  1  0.62774830  0.62244092  0.72135355  1  0  1.140781  0  1.690817  0  0  0.951653  0  2.136919  0  0  1.00712  0  2.085997  0  1.267971  0  0.795544  0.912656  0  2.171409  0
Cd  Cd2  1  0.37757045  0.37224733  0.27865817  1  0  1.140874  0  1.690352  0  0  0.951708  0  2.136448  0  0  1.007189  0  2.08554  0  1.268137  0  0.795556  0.91271  0  2.170931  0
H  H3  1  0.06064246  0.47527442  0.97138283  1  0  0.100628  0  0.960945  0  0  0.106658  0  1.032258  0  0  0.110996  0  1.028164  0  0.071451  0  0.102313  0.103263  0  1.035642  0
H  H4  1  0.52473579  0.93937064  0.02863577  1  0  0.10045  0  0.960948  0  0  0.10644  0  1.032312  0  0  0.110737  0  1.028268  0  0.071849  0  0.102218  0.103104  0  1.035632  0
H  H5  1  0.91050227  0.53463853  0.71360392  1  0  0.092401  0  0.974126  0  0  0.099603  0  1.048703  0  0  0.104027  0  1.043059  0  0.099319  0  0.101998  0.096431  0  1.052696  0
H  H6  1  0.46541141  0.08955211  0.28639854  1  0  0.092315  0  0.974395  0  0  0.099662  0  1.048817  0  0  0.104137  0  1.043136  0  0.098963  0  0.102095  0.0965  0  1.052774  0
H  H7  1  0.33428005  0.62438880  0.69880781  1  0  0.110293  0  0.985348  0  0  0.116555  0  1.056057  0  0  0.12039  0  1.052842  0  0.146524  0  0.10175  0.113777  0  1.058475  0
H  H8  1  0.37559376  0.66566014  0.30121179  1  0  0.110164  0  0.98582  0  0  0.116403  0  1.056554  0  0  0.12024  0  1.053336  0  0.146016  0  0.101715  0.113676  0  1.058916  0
H  H9  1  0.11988100  0.73302554  0.56413487  1  0  0.070184  0  0.906789  0  0  0.088019  0  0.962893  0  0  0.088474  0  0.96203  0  0.076087  0  0.109982  0.087885  0  0.963007  0
H  H10  1  0.26706648  0.88014672  0.43585908  1  0  0.070278  0  0.906656  0  0  0.088082  0  0.962751  0  0  0.088536  0  0.961892  0  0.046126  0  0.110043  0.087949  0  0.962866  0
H  H11  1  0.25895974  0.59968924  0.55469515  1  0  0.049514  0  0.937964  0  0  0.061126  0  1.010635  0  0  0.061904  0  1.009373  0  0.056919  0  0.097269  0.060435  0  1.011668  0
H  H12  1  0.40032549  0.74099100  0.44533391  1  0  0.049386  0  0.938075  0  0  0.06096  0  1.010761  0  0  0.061729  0  1.009512  0  0.056277  0  0.097208  0.060274  0  1.011785  0
H  H13  1  0.16054418  0.35813044  0.60856502  1  0  0.040261  0  0.922565  0  0  0.04804  0  0.98702  0  0  0.049054  0  0.987163  0  0.029367  0  0.098907  0.047346  0  0.986946  0
H  H14  1  0.64180338  0.83943719  0.39142944  1  0  0.040017  0  0.9226  0  0  0.047863  0  0.987168  0  0  0.048883  0  0.987313  0  0.028706  0  0.098782  0.047159  0  0.987096  0
H  H15  1  0.90768869  0.32531469  0.62347430  1  0  0.107886  0  0.947035  0  0  0.127274  0  1.011046  0  0  0.12879  0  1.011058  0  0.043025  0  0.088227  0.126236  0  1.010962  0
H  H16  1  0.67465934  0.09238645  0.37650242  1  0  0.107785  0  0.946808  0  0  0.127101  0  1.010919  0  0  0.128612  0  1.010932  0  0.042338  0  0.088103  0.126068  0  1.010836  0
H  H17  1  0.01735028  0.21692354  0.54923847  1  0  0.103305  0  0.952977  0  0  0.125173  0  1.01253  0  0  0.126649  0  1.012054  0  0.014283  0  0.09006  0.124157  0  1.012658  0
H  H18  1  0.78299287  0.98265943  0.45074955  1  0  0.10339  0  0.95305  0  0  0.125306  0  1.012498  0  0  0.126799  0  1.011997  0  0.014852  0  0.090158  0.124284  0  1.012636  0
H  H19  1  0.92810515  0.37572254  0.49775600  1  0  0.111074  0  0.944705  0  0  0.131172  0  1.006955  0  0  0.132727  0  1.006971  0  0.055676  0  0.091063  0.130007  0  1.00691  0
H  H20  1  0.62428077  0.07196001  0.50222106  1  0  0.111153  0  0.944585  0  0  0.131149  0  1.006918  0  0  0.132698  0  1.006936  0  0.055521  0  0.091064  0.129989  0  1.006871  0
H  H21  1  0.55927048  0.46153277  0.56413034  1  0  0.099218  0  0.972221  0  0  0.111355  0  1.029598  0  0  0.113436  0  1.028987  0  0.106313  0  0.117406  0.109879  0  1.029999  0
H  H22  1  0.53849619  0.44076060  0.43585547  1  0  0.099114  0  0.972117  0  0  0.111389  0  1.029317  0  0  0.11342  0  1.028787  0  0.106565  0  0.117368  0.109911  0  1.029719  0
H  H23  1  0.44183506  0.19934198  0.61530945  1  0  0.135848  0  0.932819  0  0  0.14743  0  0.987174  0  0  0.151013  0  0.98465  0  0.120923  0  0.133463  0.144672  0  0.989368  0
H  H24  1  0.80065954  0.55809220  0.38469367  1  0  0.136013  0  0.932616  0  0  0.147426  0  0.987162  0  0  0.151007  0  0.984637  0  0.123269  0  0.133497  0.144672  0  0.989348  0
H  H25  1  0.56974163  0.28030675  0.85075941  1  0  0.114186  0  0.974088  0  0  0.120119  0  1.04618  0  0  0.123434  0  1.041483  0  0.206411  0  0.134507  0.117656  0  1.049735  0
H  H26  1  0.71962155  0.43022010  0.14924443  1  0  0.114194  0  0.973969  0  0  0.120149  0  1.046044  0  0  0.123463  0  1.041349  0  0.206405  0  0.134473  0.117684  0  1.049597  0
H  H27  1  0.48353649  0.05369227  0.87499586  1  0  0.093969  0  0.915217  0  0  0.110695  0  0.976493  0  0  0.111569  0  0.975411  0  0.083684  0  0.119874  0.109948  0  0.977694  0
H  H28  1  0.94625740  0.51630649  0.12503142  1  0  0.093994  0  0.915499  0  0  0.110899  0  0.976545  0  0  0.111788  0  0.975448  0  0.082704  0  0.120085  0.110148  0  0.977749  0
H  H29  1  0.50187963  0.98188681  0.77310344  1  0  0.09593  0  0.919147  0  0  0.110427  0  0.98004  0  0  0.111204  0  0.980022  0  0.104576  0  0.117225  0.109405  0  0.980656  0
H  H30  1  0.01800151  0.49797655  0.22694830  1  0  0.095805  0  0.919532  0  0  0.110279  0  0.980526  0  0  0.111038  0  0.980529  0  0.105242  0  0.117205  0.109258  0  0.981125  0
H  H31  1  0.31832446  0.82557432  0.85901881  1  0  0.107718  0  0.97091  0  0  0.11914  0  1.028363  0  0  0.121998  0  1.027353  0  0.101694  0  0.101515  0.117087  0  1.029416  0
H  H32  1  0.17433913  0.68158578  0.14099885  1  0  0.107719  0  0.970767  0  0  0.119106  0  1.028295  0  0  0.121974  0  1.027276  0  0.100908  0  0.10151  0.117042  0  1.029341  0
H  H33  1  0.06279975  0.79046496  0.90047489  1  0  0.089573  0  0.959498  0  0  0.101044  0  1.021077  0  0  0.102664  0  1.022043  0  0.071373  0  0.098423  0.099853  0  1.020576  0
H  H34  1  0.20943992  0.93719402  0.09953298  1  0  0.089585  0  0.95969  0  0  0.101002  0  1.021321  0  0  0.102631  0  1.022264  0  0.072111  0  0.098427  0.099812  0  1.020817  0
H  H35  1  0.97171787  0.23989973  0.84449068  1  0  0.089855  0  0.974829  0  0  0.101702  0  1.034955  0  0  0.103367  0  1.035563  0  0.064944  0  0.096863  0.100439  0  1.034805  0
H  H36  1  0.76017807  0.02835817  0.15548237  1  0  0.089992  0  0.974518  0  0  0.101867  0  1.034631  0  0  0.103525  0  1.035229  0  0.063999  0  0.096967  0.100614  0  1.034471  0
H  H37  1  0.22660207  0.27611795  0.80620009  1  0  0.088708  0  0.985738  0  0  0.094673  0  1.0577  0  0  0.096039  0  1.059657  0  0.085302  0  0.09554  0.093844  0  1.056297  0
H  H38  1  0.72396335  0.77339251  0.19377715  1  0  0.08854  0  0.985708  0  0  0.09453  0  1.057608  0  0  0.095893  0  1.059571  0  0.085348  0  0.095485  0.093683  0  1.056233  0
H  H39  1  0.81068170  0.91631750  0.96230445  1  0  0.094953  0  0.913633  0  0  0.111747  0  0.972908  0  0  0.112349  0  0.973115  0  0.090648  0  0.119118  0.111438  0  0.972794  0
H  H40  1  0.08366759  0.18943707  0.03769336  1  0  0.095129  0  0.913582  0  0  0.111868  0  0.972759  0  0  0.112462  0  0.972971  0  0.089629  0  0.119132  0.11156  0  0.972638  0
H  H41  1  0.78077148  0.09073370  0.89817981  1  0  0.094537  0  0.9178  0  0  0.10847  0  0.980579  0  0  0.109745  0  0.979146  0  0.092922  0  0.112084  0.107562  0  0.981736  0
H  H42  1  0.90932577  0.21936999  0.10181484  1  0  0.094565  0  0.918019  0  0  0.108477  0  0.980683  0  0  0.109804  0  0.979181  0  0.092112  0  0.112026  0.107532  0  0.981879  0
H  H43  1  0.94190331  0.05745312  0.69478719  1  0  0.116116  0  0.965498  0  0  0.128908  0  1.021201  0  0  0.131083  0  1.02079  0  0.127264  0  0.125471  0.127413  0  1.021384  0
H  H44  1  0.94254431  0.05817093  0.30521299  1  0  0.11609  0  0.965592  0  0  0.128828  0  1.021346  0  0  0.131006  0  1.020933  0  0.12787  0  0.125395  0.127339  0  1.021535  0
H  H45  1  0.83634645  0.88416265  0.60540662  1  0  0.110337  0  0.958023  0  0  0.12165  0  1.013984  0  0  0.123965  0  1.013223  0  0.112473  0  0.12086  0.120104  0  1.014273  0
H  H46  1  0.11585664  0.16364130  0.39460105  1  0  0.110481  0  0.958163  0  0  0.121743  0  1.014143  0  0  0.124105  0  1.013323  0  0.112489  0  0.120877  0.120199  0  1.014429  0
H  H47  1  0.67701822  0.77040217  0.90260197  1  0  0.118921  0  0.975651  0  0  0.124617  0  1.045242  0  0  0.128362  0  1.040434  0  0.197046  0  0.13503  0.121833  0  1.048738  0
H  H48  1  0.22962941  0.32300210  0.09740268  1  0  0.118825  0  0.975812  0  0  0.1246  0  1.045332  0  0  0.128222  0  1.040685  0  0.196588  0  0.135003  0.121822  0  1.048819  0
C  C49  1  0.32919321  0.53616901  0.88947802  1  0  0.650989  0  3.91101  0  0  0.597961  0  4.201622  0  0  0.633193  0  4.19528  0  1.553626  0  0.203416  0.574368  0  4.204775  0
C  C50  1  0.46376933  0.67076069  0.11052749  1  0  0.651073  0  3.911354  0  0  0.598102  0  4.201965  0  0  0.63333  0  4.195608  0  1.553126  0  0.203616  0.574511  0  4.205115  0
C  C51  1  0.82408766  0.47440694  0.90837792  1  0  0.636604  0  3.928555  0  0  0.587967  0  4.216753  0  0  0.622885  0  4.21085  0  1.510623  0  0.193173  0.564556  0  4.219449  0
C  C52  1  0.52563802  0.17598739  0.09162949  1  0  0.63585  0  3.928819  0  0  0.586943  0  4.217427  0  0  0.621871  0  4.211523  0  1.51102  0  0.192634  0.563536  0  4.22011  0
C  C53  1  0.21099693  0.54565652  0.84010839  1  0  -0.068226  0  3.780712  0  0  -0.040566  0  4.017411  0  0  -0.049497  0  4.039103  0  -0.011833  0  -0.020134  -0.035294  0  4.002983  0
C  C54  1  0.45435243  0.78897137  0.15990330  1  0  -0.068187  0  3.780627  0  0  -0.040622  0  4.017363  0  0  -0.049553  0  4.039042  0  -0.012864  0  -0.020092  -0.035344  0  4.002946  0
C  C55  1  0.07830348  0.50652279  0.89414957  1  0  -0.075973  0  3.713216  0  0  -0.117129  0  3.966786  0  0  -0.113305  0  3.982805  0  0.007337  0  -0.081322  -0.118532  0  3.956232  0
C  C56  1  0.49350606  0.92170686  0.10586653  1  0  -0.0757  0  3.713449  0  0  -0.116733  0  3.967127  0  0  -0.112873  0  3.983153  0  0.00878  0  -0.081258  -0.118179  0  3.95653  0
C  C57  1  0.96766866  0.50771387  0.84939868  1  0  -0.073855  0  3.79351  0  0  -0.045451  0  4.027691  0  0  -0.055007  0  4.050866  0  0.033381  0  -0.023578  -0.039544  0  4.013014  0
C  C58  1  0.49232650  0.03237305  0.15060661  1  0  -0.073831  0  3.794009  0  0  -0.045594  0  4.028537  0  0  -0.05516  0  4.051718  0  0.032291  0  -0.023536  -0.03969  0  4.013871  0
C  C59  1  0.99322476  0.54101975  0.74982581  1  0  -0.087315  0  3.695851  0  0  -0.125312  0  3.944389  0  0  -0.123012  0  3.962904  0  -0.125114  0  -0.079569  -0.127481  0  3.932826  0
C  C60  1  0.45902036  0.00680916  0.25018075  1  0  -0.087263  0  3.696267  0  0  -0.125348  0  3.944769  0  0  -0.123104  0  3.963243  0  -0.124936  0  -0.079668  -0.127517  0  3.933219  0
C  C61  1  0.12479082  0.58129606  0.69504649  1  0  0.048624  0  3.747745  0  0  0.073135  0  3.989822  0  0  0.069623  0  4.01439  0  -0.011887  0  -0.012563  0.075569  0  3.97398  0
C  C62  1  0.41873604  0.87519690  0.30496119  1  0  0.04822  0  3.74779  0  0  0.072838  0  3.989687  0  0  0.069324  0  4.014268  0  -0.012477  0  -0.01287  0.075273  0  3.973863  0
C  C63  1  0.23275228  0.58757504  0.74070793  1  0  -0.096351  0  3.663955  0  0  -0.130238  0  3.906424  0  0  -0.128367  0  3.924896  0  -0.106985  0  -0.077554  -0.132289  0  3.895365  0
C  C64  1  0.41243690  0.76719680  0.25930631  1  0  -0.096065  0  3.663897  0  0  -0.129942  0  3.906407  0  0  -0.128042  0  3.924821  0  -0.105821  0  -0.07737  -0.132051  0  3.895337  0
C  C65  1  0.14686647  0.61958549  0.58756740  1  0  0.055723  0  3.678088  0  0  -0.011646  0  3.949802  0  0  -0.003928  0  3.955152  0  0.434722  0  -0.061512  -0.016805  0  3.945967  0
C  C66  1  0.38045334  0.85312930  0.41244132  1  0  0.055966  0  3.677772  0  0  -0.011288  0  3.949305  0  0  -0.003589  0  3.95466  0  0.465861  0  -0.061347  -0.01645  0  3.945477  0
C  C67  1  0.10927528  0.40735142  0.54861604  1  0  0.111637  0  3.649491  0  0  0.098659  0  3.89734  0  0  0.100234  0  3.906824  0  0.484088  0  -0.002765  0.097323  0  3.890929  0
C  C68  1  0.59262149  0.89073360  0.45137265  1  0  0.111803  0  3.649391  0  0  0.098413  0  3.897837  0  0  0.099949  0  3.907332  0  0.485195  0  -0.002717  0.097111  0  3.891416  0
C  C69  1  0.21847698  0.39842994  0.45556625  1  0  0.591144  0  3.913076  0  0  0.54457  0  4.214148  0  0  0.576307  0  4.210901  0  1.552445  0  0.176618  0.523104  0  4.215442  0
C  C70  1  0.60155928  0.78151080  0.54443129  1  0  0.59104  0  3.913312  0  0  0.544628  0  4.214335  0  0  0.576376  0  4.211077  0  1.552632  0  0.176695  0.52315  0  4.215641  0
C  C71  1  0.98268978  0.32584593  0.55525871  1  0  -0.324515  0  3.693449  0  0  -0.408221  0  3.934174  0  0  -0.410437  0  3.942578  0  -0.063468  0  -0.242153  -0.406507  0  3.928335  0
C  C72  1  0.67411861  0.01735599  0.44472279  1  0  -0.324614  0  3.693168  0  0  -0.408033  0  3.933971  0  0  -0.410245  0  3.942356  0  -0.063632  0  -0.242124  -0.40633  0  3.928141  0
C  C73  1  0.54393793  0.38410013  0.63067185  1  0  -0.004407  0  3.781733  0  0  -0.037849  0  4.046132  0  0  -0.036449  0  4.068695  0  0.422777  0  -0.003397  -0.038475  0  4.030284  0
C  C74  1  0.61591181  0.45606119  0.36931695  1  0  -0.00451  0  3.781922  0  0  -0.038055  0  4.046295  0  0  -0.036632  0  4.068911  0  0.423392  0  -0.003399  -0.038674  0  4.030441  0
C  C75  1  0.48678272  0.25536686  0.65509036  1  0  -0.068906  0  3.657637  0  0  -0.109522  0  3.914584  0  0  -0.108256  0  3.932989  0  0.303454  0  0.005237  -0.110218  0  3.902081  0
C  C76  1  0.74463438  0.51315382  0.34491000  1  0  -0.069168  0  3.657791  0  0  -0.109629  0  3.914793  0  0  -0.108363  0  3.933192  0  0.300368  0  0.005213  -0.110323  0  3.902277  0
C  C77  1  0.55313647  0.29644636  0.77893287  1  0  0.164017  0  3.627936  0  0  0.100442  0  3.891931  0  0  0.114639  0  3.904895  0  0.939986  0  0.140706  0.090976  0  3.883458  0
C  C78  1  0.70350619  0.44682666  0.22107097  1  0  0.163812  0  3.627853  0  0  0.100217  0  3.891863  0  0  0.114416  0  3.904818  0  0.94095  0  0.140693  0.090756  0  3.883392  0
C  C79  1  0.44729931  0.06624073  0.80843334  1  0  -0.038611  0  3.635141  0  0  -0.105899  0  3.885052  0  0  -0.10117  0  3.895207  0  0.280547  0  -0.039356  -0.109003  0  3.878445  0
C  C80  1  0.93370469  0.55257109  0.19158826  1  0  -0.038245  0  3.635635  0  0  -0.105668  0  3.885375  0  0  -0.100937  0  3.895525  0  0.281341  0  -0.039323  -0.10877  0  3.87878  0
C  C81  1  0.28988851  0.05293757  0.83043116  1  0  0.071681  0  3.745679  0  0  0.092368  0  3.980988  0  0  0.091686  0  4.005295  0  -0.038555  0  -0.010173  0.09294  0  3.964352  0
C  C82  1  0.94704553  0.71005146  0.16956274  1  0  0.071358  0  3.745366  0  0  0.092091  0  3.980672  0  0  0.091403  0  4.004987  0  -0.040774  0  -0.010133  0.092668  0  3.964025  0
C  C83  1  0.24204630  0.91663161  0.85742318  1  0  -0.109826  0  3.72496  0  0  -0.125541  0  3.9633  0  0  -0.128722  0  3.985076  0  -0.01428  0  -0.089282  -0.123619  0  3.948894  0
C  C84  1  0.08331144  0.75789164  0.14257735  1  0  -0.109771  0  3.724187  0  0  -0.125507  0  3.962557  0  0  -0.128697  0  3.984341  0  -0.01281  0  -0.089587  -0.123564  0  3.948129  0
C  C85  1  0.09859427  0.89701047  0.88052791  1  0  -0.095312  0  3.745215  0  0  -0.118204  0  3.995134  0  0  -0.120158  0  4.017689  0  -0.088292  0  -0.088295  -0.116534  0  3.979592  0
C  C86  1  0.10292204  0.90140586  0.11946989  1  0  -0.095246  0  3.745586  0  0  -0.118322  0  3.995406  0  0  -0.120277  0  4.01797  0  -0.088028  0  -0.088113  -0.116653  0  3.979867  0
C  C87  1  0.99990255  0.01319355  0.87595736  1  0  0.054278  0  3.78149  0  0  0.073717  0  4.023136  0  0  0.072634  0  4.047481  0  0.03249  0  -0.018111  0.074649  0  4.006534  0
C  C88  1  0.98680676  0.00014757  0.12401781  1  0  0.054163  0  3.78186  0  0  0.074133  0  4.022581  0  0  0.073036  0  4.046941  0  0.032368  0  -0.018055  0.075056  0  4.00599  0
C  C89  1  0.04767638  0.14882979  0.84897367  1  0  -0.120734  0  3.765415  0  0  -0.137498  0  4.007664  0  0  -0.140358  0  4.030686  0  -0.114737  0  -0.09507  -0.135255  0  3.991797  0
C  C90  1  0.85121260  0.95236602  0.15099946  1  0  -0.120742  0  3.76541  0  0  -0.137791  0  4.007579  0  0  -0.140631  0  4.030584  0  -0.113282  0  -0.095228  -0.135552  0  3.99171  0
C  C91  1  0.19181079  0.16919404  0.82695512  1  0  -0.122461  0  3.762761  0  0  -0.142769  0  4.011335  0  0  -0.145404  0  4.034049  0  -0.042141  0  -0.098139  -0.140429  0  3.995123  0
C  C92  1  0.83085499  0.80817827  0.17302876  1  0  -0.122219  0  3.762967  0  0  -0.142504  0  4.011481  0  0  -0.145138  0  4.034195  0  -0.041156  0  -0.098054  -0.140159  0  3.995277  0
C  C93  1  0.84514577  0.99128683  0.89456144  1  0  -0.040559  0  3.630073  0  0  -0.110537  0  3.883486  0  0  -0.105425  0  3.892739  0  0.278248  0  -0.044472  -0.11434  0  3.877908  0
C  C94  1  0.00872860  0.15495804  0.10543327  1  0  -0.041326  0  3.630719  0  0  -0.111121  0  3.883411  0  0  -0.106014  0  3.892604  0  0.279097  0  -0.044587  -0.114891  0  3.877844  0
C  C95  1  0.87000421  0.97414903  0.72279129  1  0  -0.069627  0  3.684782  0  0  -0.109052  0  3.935773  0  0  -0.107908  0  3.955717  0  0.285322  0  -0.0005  -0.109724  0  3.922284  0
C  C96  1  0.02586286  0.13003923  0.27721012  1  0  -0.069303  0  3.684558  0  0  -0.108645  0  3.935517  0  0  -0.107508  0  3.955482  0  0.284371  0  -0.000252  -0.10933  0  3.922043  0
C  C97  1  0.81798437  0.88828820  0.67980483  1  0  -0.001173  0  3.76373  0  0  -0.033406  0  4.025198  0  0  -0.031664  0  4.04713  0  0.42598  0  -0.002475  -0.034615  0  4.010235  0
C  C98  1  0.11173710  0.18201024  0.32020080  1  0  -0.001795  0  3.763735  0  0  -0.034007  0  4.025249  0  0  -0.032305  0  4.047158  0  0.42646  0  -0.002691  -0.03522  0  4.010297  0
C  C99  1  0.73418656  0.82281798  0.83289931  1  0  0.152293  0  3.638104  0  0  0.089665  0  3.905545  0  0  0.103012  0  3.919167  0  0.943529  0  0.139854  0.080832  0  3.896007  0
C  C100  1  0.17721167  0.26583147  0.16710735  1  0  0.152421  0  3.637999  0  0  0.089687  0  3.905553  0  0  0.103126  0  3.919229  0  0.944714  0  0.139831  0.080852  0  3.896017  0
N  N101  1  0.58500931  0.40832853  0.70806526  1  0  -0.398049  0  3.293463  0  0  -0.316821  0  3.576299  0  0  -0.339913  0  3.595046  0  -1.215349  0  -0.364711  -0.301141  0  3.563296  0
N  N102  1  0.59165307  0.41500383  0.29192882  1  0  -0.398012  0  3.293324  0  0  -0.316797  0  3.576191  0  0  -0.339883  0  3.594929  0  -1.215312  0  -0.364768  -0.301122  0  3.563183  0
N  N103  1  0.49370669  0.20151649  0.74937197  1  0  -0.051762  0  3.573834  0  0  0.042617  0  3.793239  0  0  0.028355  0  3.818978  0  -1.226996  0  -0.238904  0.052039  0  3.775841  0
N  N104  1  0.79845732  0.50620869  0.25063537  1  0  -0.051397  0  3.574369  0  0  0.042978  0  3.793712  0  0  0.028728  0  3.819434  0  -1.228427  0  -0.238871  0.052397  0  3.776313  0
N  N105  1  0.73345003  0.79473597  0.74914721  1  0  -0.396448  0  3.297851  0  0  -0.315057  0  3.581359  0  0  -0.33854  0  3.601327  0  -1.205189  0  -0.363627  -0.298662  0  3.567035  0
N  N106  1  0.20530419  0.26652820  0.25085934  1  0  -0.396406  0  3.297551  0  0  -0.315017  0  3.581075  0  0  -0.33849  0  3.601014  0  -1.206206  0  -0.363606  -0.298622  0  3.566747  0
N  N107  1  0.81577432  0.93146526  0.81942390  1  0  -0.05549  0  3.559461  0  0  0.039829  0  3.779474  0  0  0.025092  0  3.805826  0  -1.22337  0  -0.237657  0.04975  0  3.761611  0
N  N108  1  0.06855335  0.18428171  0.18057852  1  0  -0.055057  0  3.559713  0  0  0.040082  0  3.779741  0  0  0.025338  0  3.806075  0  -1.223451  0  -0.237529  0.050002  0  3.761877  0
O  O109  1  0.43536972  0.60962683  0.85075117  1  0  -0.67208  0  2.059759  0  0  -0.600349  0  2.31982  0  0  -0.629454  0  2.306881  0  -1.201371  0  -0.335928  -0.579223  0  2.328144  0
O  O110  1  0.39026920  0.56460307  0.14922968  1  0  -0.67203  0  2.059933  0  0  -0.600271  0  2.319734  0  0  -0.629432  0  2.306967  0  -1.200184  0  -0.336114  -0.579159  0  2.328052  0
O  O111  1  0.31935871  0.45202418  0.97084075  1  0  -0.632864  0  2.000508  0  0  -0.569526  0  2.244996  0  0  -0.599425  0  2.234888  0  -1.157803  0  -0.323934  -0.547847  0  2.251098  0
O  O112  1  0.54791616  0.68060552  0.02917361  1  0  -0.632964  0  2.000724  0  0  -0.569574  0  2.245264  0  0  -0.599504  0  2.235127  0  -1.157868  0  -0.323954  -0.54789  0  2.251394  0
O  O113  1  0.80418855  0.44642085  0.99823148  1  0  -0.632312  0  1.940624  0  0  -0.583068  0  2.177553  0  0  -0.609473  0  2.168228  0  -1.151668  0  -0.328353  -0.564429  0  2.183336  0
O  O114  1  0.55362944  0.19589629  0.00176747  1  0  -0.632147  0  1.940882  0  0  -0.582661  0  2.177816  0  0  -0.609081  0  2.168471  0  -1.151955  0  -0.328268  -0.564018  0  2.183616  0
O  O115  1  0.72337136  0.47843552  0.86496925  1  0  -0.692833  0  2.060221  0  0  -0.617432  0  2.322597  0  0  -0.650499  0  2.312228  0  -1.174762  0  -0.337941  -0.593707  0  2.328954  0
O  O116  1  0.52158997  0.27675354  0.13502797  1  0  -0.692225  0  2.059966  0  0  -0.616619  0  2.322277  0  0  -0.649684  0  2.311932  0  -1.175149  0  -0.337451  -0.592902  0  2.328618  0
O  O117  1  0.05789678  0.54861734  0.55354039  1  0  -0.294419  0  2.234611  0  0  -0.23179  0  2.473447  0  0  -0.245143  0  2.472529  0  -1.035093  0  -0.223322  -0.222493  0  2.473969  0
O  O118  1  0.45141224  0.94213436  0.44645611  1  0  -0.294309  0  2.234544  0  0  -0.23167  0  2.473562  0  0  -0.244979  0  2.472623  0  -1.035508  0  -0.223386  -0.222387  0  2.474088  0
O  O119  1  0.29314941  0.28278271  0.45349306  1  0  -0.647756  0  1.888886  0  0  -0.595343  0  2.116776  0  0  -0.62174  0  2.107043  0  -1.178805  0  -0.350614  -0.576905  0  2.122679  0
O  O120  1  0.71716887  0.70684294  0.54652321  1  0  -0.647645  0  1.88899  0  0  -0.595274  0  2.116855  0  0  -0.621665  0  2.107115  0  -1.178956  0  -0.350718  -0.576837  0  2.122765  0
O  O121  1  0.22478042  0.50245311  0.38440671  1  0  -0.632215  0  1.945996  0  0  -0.574423  0  2.180011  0  0  -0.601378  0  2.16989  0  -1.170456  0  -0.342106  -0.555575  0  2.186552  0
O  O122  1  0.49756785  0.77519072  0.61558643  1  0  -0.632291  0  1.945972  0  0  -0.574518  0  2.179956  0  0  -0.601478  0  2.169828  0  -1.17027  0  -0.342132  -0.555658  0  2.186496  0
