# generated using pymatgen
data_FeNiP2H44C42S4(NO2)2
_symmetry_space_group_name_H-M   'P 1'
_cell_length_a   8.90042682
_cell_length_b   10.43496329
_cell_length_c   12.80666690
_cell_angle_alpha   115.44949177
_cell_angle_beta   96.38271275
_cell_angle_gamma   96.70539685
_symmetry_Int_Tables_number   1
_chemical_formula_structural   FeNiP2H44C42S4(NO2)2
_chemical_formula_sum   'Fe1 Ni1 P2 H44 C42 S4 N2 O4'
_cell_volume   1049.25847674
_cell_formula_units_Z   1
loop_
 _symmetry_equiv_pos_site_id
 _symmetry_equiv_pos_as_xyz
  1  'x, y, z'
loop_
 _atom_site_type_symbol
 _atom_site_label
 _atom_site_symmetry_multiplicity
 _atom_site_fract_x
 _atom_site_fract_y
 _atom_site_fract_z
 _atom_site_occupancy
 _atom_site_hle17_bader_spin_density
 _atom_site_hle17_ddec_charge
 _atom_site_hle17_ddec_spin_density
 _atom_site_hle17_ddec_sum_bond_order
 _atom_site_hle17_magmom
 _atom_site_hse06_10hf_bader_spin_density
 _atom_site_hse06_10hf_ddec_charge
 _atom_site_hse06_10hf_ddec_spin_density
 _atom_site_hse06_10hf_ddec_sum_bond_order
 _atom_site_hse06_10hf_magmom
 _atom_site_hse06_bader_spin_density
 _atom_site_hse06_ddec_charge
 _atom_site_hse06_ddec_spin_density
 _atom_site_hse06_ddec_sum_bond_order
 _atom_site_hse06_magmom
 _atom_site_pbe_bader_spin_density
 _atom_site_pbe_cm5_charge
 _atom_site_pbe_ddec_charge
 _atom_site_pbe_ddec_spin_density
 _atom_site_pbe_ddec_sum_bond_order
 _atom_site_pbe_magmom
Fe  Fe0  1  0.99999861  0.49999900  0.00000179  1  0  0.062139  0  3.572074  0  0  0.161116  0  3.981755  0  0  0.161849  0  3.973722  0  0  0.520975  0.170575  0  3.978057  0
Ni  Ni1  1  0.99999847  0.99999472  0.49999400  1  0  0.352174  0  2.629986  0  0  0.343603  0  3.083451  0  0  0.398861  0  3.026733  0  0  0.460728  0.32022  0  3.114909  0
P  P2  1  0.92016248  0.17914737  0.35721298  1  0  0.831917  0  4.628845  0  0  0.749535  0  5.107494  0  0  0.789954  0  5.092605  0  0  0.193909  0.721651  0  5.117368  0
P  P3  1  0.07982638  0.82086776  0.64279605  1  0  0.831936  0  4.628542  0  0  0.74972  0  5.107231  0  0  0.790142  0  5.092338  0  0  0.1939  0.721833  0  5.117109  0
H  H4  1  0.64888005  0.95836339  0.24580631  1  0  0.083869  0  0.966558  0  0  0.092971  0  1.031724  0  0  0.094454  0  1.032122  0  0  0.095528  0.091841  0  1.031661  0
H  H5  1  0.35112913  0.04165614  0.75419671  1  0  0.083887  0  0.966495  0  0  0.092966  0  1.031659  0  0  0.094444  0  1.032066  0  0  0.095475  0.091837  0  1.031595  0
H  H6  1  0.40167444  0.93979108  0.12749670  1  0  0.105013  0  0.959315  0  0  0.118922  0  1.015587  0  0  0.122132  0  1.014471  0  0  0.103161  0.11645  0  1.016878  0
H  H7  1  0.59832892  0.06021009  0.87250177  1  0  0.105009  0  0.959367  0  0  0.118908  0  1.015644  0  0  0.122118  0  1.014528  0  0  0.103146  0.116436  0  1.016936  0
H  H8  1  0.53991398  0.37572178  0.17929633  1  0  0.095116  0  0.982611  0  0  0.10274  0  1.052625  0  0  0.104917  0  1.052667  0  0  0.097703  0.10133  0  1.0527  0
H  H9  1  0.46007247  0.62428469  0.82069620  1  0  0.094896  0  0.982782  0  0  0.102653  0  1.052685  0  0  0.10483  0  1.052727  0  0  0.097696  0.101245  0  1.052756  0
H  H10  1  0.78973437  0.39444579  0.29867927  1  0  0.096145  0  0.960066  0  0  0.10537  0  1.024588  0  0  0.108124  0  1.022811  0  0  0.104273  0.10303  0  1.02663  0
H  H11  1  0.21025333  0.60557363  0.70132098  1  0  0.096303  0  0.960034  0  0  0.105541  0  1.024509  0  0  0.108307  0  1.022728  0  0  0.104331  0.103201  0  1.026549  0
H  H12  1  0.25940799  0.93227936  0.97005970  1  0  0.076351  0  0.966397  0  0  0.091351  0  1.036673  0  0  0.090136  0  1.039771  0  0  0.090715  0.092125  0  1.03478  0
H  H13  1  0.74060193  0.06772077  0.02993979  1  0  0.076219  0  0.966404  0  0  0.091221  0  1.036691  0  0  0.090011  0  1.039783  0  0  0.090676  0.092007  0  1.034788  0
H  H14  1  0.12814141  0.04585293  0.96239281  1  0  0.095474  0  0.967635  0  0  0.112664  0  1.03153  0  0  0.113276  0  1.031826  0  0  0.09435  0.112239  0  1.031151  0
H  H15  1  0.87185845  0.95414065  0.03759569  1  0  0.095492  0  0.967634  0  0  0.112669  0  1.031542  0  0  0.113281  0  1.031837  0  0  0.094382  0.112244  0  1.031165  0
H  H16  1  0.15806214  0.01471654  0.09030466  1  0  0.077572  0  0.983269  0  0  0.092338  0  1.054914  0  0  0.093  0  1.054363  0  0  0.084136  0.091814  0  1.055281  0
H  H17  1  0.84192673  0.98527377  0.90968874  1  0  0.077595  0  0.983223  0  0  0.092382  0  1.054843  0  0  0.093046  0  1.054286  0  0  0.08418  0.091858  0  1.055212  0
H  H18  1  0.17288058  0.36928656  0.52056834  1  0  0.038281  0  0.950744  0  0  0.049702  0  1.021413  0  0  0.049356  0  1.021894  0  0  0.0909  0.049622  0  1.021482  0
H  H19  1  0.82709878  0.63072099  0.47944266  1  0  0.038368  0  0.950826  0  0  0.049778  0  1.021463  0  0  0.049434  0  1.021938  0  0  0.090938  0.049699  0  1.021532  0
H  H20  1  0.16726943  0.51334765  0.48176519  1  0  0.055174  0  0.934056  0  0  0.067996  0  0.999631  0  0  0.068464  0  0.999259  0  0  0.09795  0.067497  0  1.000038  0
H  H21  1  0.83272266  0.48666104  0.51824424  1  0  0.055254  0  0.934048  0  0  0.068082  0  0.99959  0  0  0.068552  0  0.999217  0  0  0.097962  0.067582  0  1.000001  0
H  H22  1  0.28720746  0.23365472  0.34224837  1  0  0.099764  0  0.985633  0  0  0.115425  0  1.056212  0  0  0.115896  0  1.058337  0  0  0.078052  0.114988  0  1.05481  0
H  H23  1  0.71278799  0.76635508  0.65777034  1  0  0.099779  0  0.98556  0  0  0.115389  0  1.056171  0  0  0.115858  0  1.058302  0  0  0.078016  0.114952  0  1.054766  0
H  H24  1  0.39988309  0.40955228  0.42674856  1  0  0.099847  0  0.952564  0  0  0.123082  0  1.011639  0  0  0.123636  0  1.012831  0  0  0.086851  0.122792  0  1.010612  0
H  H25  1  0.60010735  0.59045535  0.57327207  1  0  0.099775  0  0.952514  0  0  0.123045  0  1.011548  0  0  0.123602  0  1.012737  0  0  0.086827  0.122754  0  1.010522  0
H  H26  1  0.26972293  0.37055246  0.29656687  1  0  0.112755  0  0.961253  0  0  0.133325  0  1.021122  0  0  0.134477  0  1.022357  0  0  0.087523  0.132446  0  1.020388  0
H  H27  1  0.73028042  0.62945091  0.70344798  1  0  0.112688  0  0.961258  0  0  0.133213  0  1.021194  0  0  0.134364  0  1.02243  0  0  0.087454  0.132338  0  1.020453  0
H  H28  1  0.17905789  0.28074510  0.92075128  1  0  0.115731  0  0.952916  0  0  0.128882  0  1.012919  0  0  0.131235  0  1.012298  0  0  0.105738  0.127441  0  1.013218  0
H  H29  1  0.82093329  0.71925170  0.07924614  1  0  0.115743  0  0.952967  0  0  0.128932  0  1.012929  0  0  0.131287  0  1.012304  0  0  0.105737  0.127488  0  1.013229  0
H  H30  1  0.86980613  0.20576782  0.88046790  1  0  0.114902  0  0.954911  0  0  0.132923  0  1.005705  0  0  0.135014  0  1.005497  0  0  0.102499  0.131376  0  1.006309  0
H  H31  1  0.13018445  0.79423222  0.11953371  1  0  0.114949  0  0.954845  0  0  0.132985  0  1.005617  0  0  0.135085  0  1.005403  0  0  0.102505  0.131436  0  1.006222  0
H  H32  1  0.76777147  0.37183035  0.07757608  1  0  0.103215  0  0.964459  0  0  0.118519  0  1.020579  0  0  0.120585  0  1.02061  0  0  0.103031  0.117184  0  1.020651  0
H  H33  1  0.23222295  0.62817295  0.92243325  1  0  0.103316  0  0.964329  0  0  0.118547  0  1.020536  0  0  0.120614  0  1.020562  0  0  0.103047  0.117213  0  1.020608  0
H  H34  1  0.01296471  0.55654272  0.23833696  1  0  0.114915  0  0.959183  0  0  0.127485  0  1.020679  0  0  0.130526  0  1.0191  0  0  0.102085  0.125242  0  1.022114  0
H  H35  1  0.98704539  0.44345310  0.76166574  1  0  0.114894  0  0.959093  0  0  0.127365  0  1.020746  0  0  0.130406  0  1.019166  0  0  0.102047  0.125159  0  1.022145  0
H  H36  1  0.38993662  0.49522062  0.08947956  1  0  0.077149  0  0.945046  0  0  0.092276  0  1.003124  0  0  0.094312  0  1.000465  0  0  0.100991  0.090604  0  1.005545  0
H  H37  1  0.61006124  0.50475787  0.91051290  1  0  0.077172  0  0.945148  0  0  0.092323  0  1.003192  0  0  0.094368  0  1.000518  0  0  0.101028  0.09065  0  1.005612  0
H  H38  1  0.27318753  0.64539980  0.32313056  1  0  0.095777  0  0.978635  0  0  0.110653  0  1.037393  0  0  0.114156  0  1.036958  0  0  0.093396  0.108062  0  1.037989  0
H  H39  1  0.72682408  0.35459710  0.67686639  1  0  0.0958  0  0.978574  0  0  0.110635  0  1.037356  0  0  0.114083  0  1.036989  0  0  0.093395  0.10805  0  1.037948  0
H  H40  1  0.44634687  0.82905858  0.48598655  1  0  0.108754  0  0.963361  0  0  0.116474  0  1.028133  0  0  0.12017  0  1.027619  0  0  0.101149  0.113833  0  1.028618  0
H  H41  1  0.55365658  0.17091457  0.51401082  1  0  0.108772  0  0.963547  0  0  0.116455  0  1.028359  0  0  0.120151  0  1.027845  0  0  0.101129  0.113815  0  1.028842  0
H  H42  1  0.70867633  0.97813100  0.57796488  1  0  0.082948  0  0.942938  0  0  0.091526  0  1.006697  0  0  0.094207  0  1.003248  0  0  0.112134  0.089227  0  1.009662  0
H  H43  1  0.29133234  0.02186265  0.42203303  1  0  0.082987  0  0.943031  0  0  0.091516  0  1.006818  0  0  0.094187  0  1.003394  0  0  0.112114  0.089218  0  1.009784  0
H  H44  1  0.88134690  0.75804846  0.27565694  1  0  0.082386  0  0.966972  0  0  0.089611  0  1.036517  0  0  0.092126  0  1.033087  0  0  0.10999  0.087558  0  1.03918  0
H  H45  1  0.11866025  0.24195379  0.72433522  1  0  0.082404  0  0.966967  0  0  0.089617  0  1.036496  0  0  0.092134  0  1.033064  0  0  0.109982  0.087565  0  1.039161  0
H  H46  1  0.62935502  0.60317423  0.16951913  1  0  0.097998  0  0.956899  0  0  0.110425  0  1.016156  0  0  0.113586  0  1.015119  0  0  0.104649  0.10808  0  1.017269  0
H  H47  1  0.37065622  0.39681941  0.83046807  1  0  0.098159  0  0.956959  0  0  0.110609  0  1.016187  0  0  0.11373  0  1.015198  0  0  0.104686  0.108275  0  1.01729  0
C  C48  1  0.73695543  0.17717606  0.27995141  1  0  -0.194774  0  3.80549  0  0  -0.162051  0  4.050378  0  0  -0.173069  0  4.074017  0  0  -0.042373  -0.154741  0  4.034271  0
C  C49  1  0.26303230  0.82284445  0.72005547  1  0  -0.194594  0  3.805676  0  0  -0.161957  0  4.050592  0  0  -0.172973  0  4.074237  0  0  -0.042316  -0.154646  0  4.034483  0
C  C50  1  0.62509467  0.05088979  0.23219717  1  0  -0.021007  0  3.76823  0  0  -0.040117  0  4.013063  0  0  -0.036499  0  4.033475  0  0  -0.081921  -0.041901  0  3.998636  0
C  C51  1  0.37490745  0.94912215  0.76780101  1  0  -0.021097  0  3.76839  0  0  -0.040159  0  4.013297  0  0  -0.03654  0  4.033707  0  0  -0.081836  -0.041946  0  3.998871  0
C  C52  1  0.48582160  0.03952181  0.16444021  1  0  -0.20454  0  3.740529  0  0  -0.222146  0  3.987009  0  0  -0.229526  0  4.006115  0  0  -0.10863  -0.217385  0  3.974357  0
C  C53  1  0.51417899  0.96048258  0.83555912  1  0  -0.204309  0  3.740697  0  0  -0.221931  0  3.987073  0  0  -0.229309  0  4.006181  0  0  -0.108506  -0.217171  0  3.974422  0
C  C54  1  0.45727471  0.15629138  0.14248394  1  0  0.286291  0  3.814854  0  0  0.27803  0  4.069949  0  0  0.292391  0  4.08458  0  0  0.091368  0.268166  0  4.059978  0
C  C55  1  0.54271687  0.84371944  0.85751837  1  0  0.285934  0  3.814938  0  0  0.277804  0  4.069867  0  0  0.29216  0  4.084501  0  0  0.091322  0.26794  0  4.059897  0
C  C56  1  0.56677757  0.28473859  0.19366842  1  0  -0.199471  0  3.762104  0  0  -0.217649  0  4.016649  0  0  -0.224942  0  4.03607  0  0  -0.10747  -0.212831  0  4.003507  0
C  C57  1  0.43321614  0.71527116  0.80633137  1  0  -0.198999  0  3.761942  0  0  -0.217317  0  4.016395  0  0  -0.224607  0  4.035823  0  0  -0.107462  -0.212503  0  4.003254  0
C  C58  1  0.70472303  0.29529339  0.26154757  1  0  -0.030055  0  3.773822  0  0  -0.053081  0  4.022349  0  0  -0.048783  0  4.041107  0  0  -0.084589  -0.055651  0  4.009856  0
C  C59  1  0.29526901  0.70471958  0.73845396  1  0  -0.030546  0  3.774023  0  0  -0.053556  0  4.022638  0  0  -0.049277  0  4.041383  0  0  -0.084708  -0.056124  0  4.010143  0
C  C60  1  0.21232252  0.02837707  0.02173886  1  0  -0.075695  0  3.606775  0  0  -0.168075  0  3.86169  0  0  -0.161298  0  3.86663  0  0  -0.147197  -0.172119  0  3.857751  0
C  C61  1  0.78767975  0.97161871  0.97825999  1  0  -0.075588  0  3.606636  0  0  -0.167953  0  3.861519  0  0  -0.16118  0  3.86646  0  0  -0.147153  -0.172007  0  3.857577  0
C  C62  1  0.16317117  0.39658089  0.44631405  1  0  0.181927  0  3.587744  0  0  0.130382  0  3.854358  0  0  0.140217  0  3.858692  0  0  -0.064461  0.12394  0  3.85093  0
C  C63  1  0.83682411  0.60342674  0.55369530  1  0  0.181608  0  3.588292  0  0  0.130181  0  3.854828  0  0  0.140014  0  3.859171  0  0  -0.064519  0.123737  0  3.851398  0
C  C64  1  0.28674093  0.34908660  0.37324233  1  0  -0.336934  0  3.723141  0  0  -0.413671  0  3.966646  0  0  -0.417572  0  3.977536  0  0  -0.258578  -0.410671  0  3.958761  0
C  C65  1  0.71325434  0.65092212  0.62677521  1  0  -0.336816  0  3.723005  0  0  -0.413484  0  3.9665  0  0  -0.417387  0  3.97739  0  0  -0.258482  -0.410484  0  3.958614  0
C  C66  1  0.15259160  0.44501143  0.09974856  1  0  0.064054  0  3.788461  0  0  0.07199  0  4.042555  0  0  0.068282  0  4.062469  0  0  -0.067917  0.073983  0  4.029397  0
C  C67  1  0.84741458  0.55498113  0.90024953  1  0  0.063881  0  3.78849  0  0  0.07181  0  4.042588  0  0  0.0681  0  4.062502  0  0  -0.068049  0.073793  0  4.029453  0
C  C68  1  0.10367614  0.32944676  0.98207164  1  0  -0.139544  0  3.687312  0  0  -0.175091  0  3.962659  0  0  -0.177307  0  3.978975  0  0  -0.147287  -0.174802  0  3.952131  0
C  C69  1  0.89632110  0.67055870  0.01793323  1  0  -0.139513  0  3.687116  0  0  -0.175088  0  3.962449  0  0  -0.177307  0  3.978774  0  0  -0.147212  -0.174795  0  3.951919  0
C  C70  1  0.94060531  0.28786323  0.96183990  1  0  -0.097749  0  3.72463  0  0  -0.125403  0  3.994061  0  0  -0.128777  0  4.012581  0  0  -0.150576  -0.124056  0  3.98237  0
C  C71  1  0.05939201  0.71213036  0.03815853  1  0  -0.097789  0  3.72465  0  0  -0.125438  0  3.994044  0  0  -0.128824  0  4.012579  0  0  -0.150556  -0.12409  0  3.98235  0
C  C72  1  0.88681917  0.37698989  0.06591778  1  0  -0.096436  0  3.729329  0  0  -0.123677  0  3.999667  0  0  -0.127184  0  4.019041  0  0  -0.148379  -0.122187  0  3.986916  0
C  C73  1  0.11317998  0.62300804  0.93408622  1  0  -0.096561  0  3.729449  0  0  -0.123755  0  3.999783  0  0  -0.127258  0  4.019147  0  0  -0.148435  -0.122266  0  3.98704  0
C  C74  1  0.01618025  0.47438287  0.15069464  1  0  -0.133659  0  3.654651  0  0  -0.165441  0  3.920261  0  0  -0.168247  0  3.936904  0  0  -0.144759  -0.164161  0  3.909293  0
C  C75  1  0.98382929  0.52562157  0.84930865  1  0  -0.133508  0  3.654663  0  0  -0.165207  0  3.920294  0  0  -0.168006  0  3.936932  0  0  -0.144681  -0.163959  0  3.909315  0
C  C76  1  0.30846549  0.52214229  0.15033381  1  0  -0.043174  0  3.731612  0  0  -0.065627  0  3.990974  0  0  -0.057097  0  4.004299  0  0  -0.072274  -0.072335  0  3.983007  0
C  C77  1  0.69153800  0.47784810  0.84966407  1  0  -0.043089  0  3.731537  0  0  -0.065563  0  3.990888  0  0  -0.057031  0  4.004203  0  0  -0.072257  -0.072267  0  3.982922  0
C  C78  1  0.35682284  0.62136258  0.26412660  1  0  -0.148366  0  3.74071  0  0  -0.166396  0  3.987059  0  0  -0.175364  0  4.006663  0  0  -0.099317  -0.160498  0  3.974481  0
C  C79  1  0.64318234  0.37862349  0.73586055  1  0  -0.148474  0  3.740369  0  0  -0.166494  0  3.986739  0  0  -0.175422  0  4.006365  0  0  -0.099364  -0.160602  0  3.974158  0
C  C80  1  0.51102134  0.70308358  0.31771764  1  0  0.146028  0  3.816652  0  0  0.161137  0  4.043239  0  0  0.172036  0  4.062149  0  0  0.004378  0.153749  0  4.030798  0
C  C81  1  0.48898645  0.29689280  0.68226952  1  0  0.14606  0  3.816618  0  0  0.161284  0  4.043059  0  0  0.172186  0  4.061944  0  0  0.004437  0.153897  0  4.030625  0
C  C82  1  0.53961215  0.81017377  0.43564086  1  0  -0.165925  0  3.67927  0  0  -0.176564  0  3.914664  0  0  -0.185865  0  3.932135  0  0  -0.084385  -0.170687  0  3.903175  0
C  C83  1  0.46040135  0.18979725  0.56434652  1  0  -0.165936  0  3.679341  0  0  -0.176608  0  3.91476  0  0  -0.185905  0  3.932225  0  0  -0.08443  -0.170729  0  3.90327  0
C  C84  1  0.68466916  0.89413020  0.48750438  1  0  0.123258  0  3.694311  0  0  0.092821  0  3.942888  0  0  0.104922  0  3.957196  0  0  0.043691  0.084965  0  3.93407  0
C  C85  1  0.31533596  0.10585048  0.51248715  1  0  0.123345  0  3.694394  0  0  0.093003  0  3.942967  0  0  0.105099  0  3.957276  0  0  0.043766  0.085145  0  3.934152  0
C  C86  1  0.78134233  0.77039353  0.31828910  1  0  0.103773  0  3.728054  0  0  0.071487  0  3.982809  0  0  0.083093  0  3.997098  0  0  0.033824  0.063892  0  3.974673  0
C  C87  1  0.21867539  0.22960555  0.68170760  1  0  0.104092  0  3.72818  0  0  0.07187  0  3.982956  0  0  0.083477  0  3.997228  0  0  0.033978  0.064275  0  3.974825  0
C  C88  1  0.63904844  0.68445570  0.26014911  1  0  -0.179716  0  3.715257  0  0  -0.193247  0  3.956822  0  0  -0.202464  0  3.975376  0  0  -0.091375  -0.187733  0  3.945763  0
C  C89  1  0.36096992  0.31552827  0.73983852  1  0  -0.180137  0  3.715945  0  0  -0.19374  0  3.957536  0  0  -0.202929  0  3.976106  0  0  -0.091507  -0.188233  0  3.946474  0
S  S90  1  0.01413646  0.01324560  0.26717535  1  0  -0.550611  0  1.933513  0  0  -0.527151  0  2.269998  0  0  -0.54577  0  2.254595  0  0  -0.185354  -0.513952  0  2.280071  0
S  S91  1  0.98584898  0.98676194  0.73282059  1  0  -0.550601  0  1.933581  0  0  -0.527161  0  2.270055  0  0  -0.545777  0  2.254643  0  0  -0.185322  -0.513974  0  2.28015  0
S  S92  1  0.89298307  0.19092113  0.51840428  1  0  -0.440933  0  2.127046  0  0  -0.453197  0  2.523843  0  0  -0.484059  0  2.509093  0  0  -0.174339  -0.434261  0  2.534167  0
S  S93  1  0.10701829  0.80908111  0.48159203  1  0  -0.440883  0  2.126865  0  0  -0.453142  0  2.523623  0  0  -0.483983  0  2.508831  0  0  -0.174307  -0.434201  0  2.533935  0
N  N94  1  0.80483123  0.87632643  0.42997724  1  0  -0.242283  0  3.455712  0  0  -0.173376  0  3.722169  0  0  -0.199094  0  3.74114  0  0  -0.3499  -0.160134  0  3.711486  0
N  N95  1  0.19518149  0.12367047  0.57002060  1  0  -0.242495  0  3.45565  0  0  -0.173683  0  3.722184  0  0  -0.199398  0  3.741146  0  0  -0.349929  -0.160441  0  3.711508  0
O  O96  1  0.00928864  0.33386405  0.37640002  1  0  -0.421589  0  2.27621  0  0  -0.336193  0  2.517336  0  0  -0.357943  0  2.513323  0  0  -0.20985  -0.320524  0  2.519306  0
O  O97  1  0.99069815  0.66615106  0.62360178  1  0  -0.421421  0  2.276524  0  0  -0.336298  0  2.517783  0  0  -0.35806  0  2.51379  0  0  -0.209826  -0.320626  0  2.519749  0
O  O98  1  0.32986770  0.15577542  0.07365032  1  0  -0.25114  0  2.345004  0  0  -0.174295  0  2.578919  0  0  -0.194218  0  2.583684  0  0  -0.183947  -0.159942  0  2.574778  0
O  O99  1  0.67012868  0.84423112  0.92635250  1  0  -0.251059  0  2.344806  0  0  -0.17428  0  2.578699  0  0  -0.194205  0  2.583473  0  0  -0.184096  -0.159925  0  2.574563  0
