# generated using pymatgen
data_KCoH12C12(NO4)2
_symmetry_space_group_name_H-M   'P 1'
_cell_length_a   7.39211126
_cell_length_b   13.89185232
_cell_length_c   14.02678981
_cell_angle_alpha   90.00043468
_cell_angle_beta   95.51813787
_cell_angle_gamma   90.00035943
_symmetry_Int_Tables_number   1
_chemical_formula_structural   KCoH12C12(NO4)2
_chemical_formula_sum   'K4 Co4 H48 C48 N8 O32'
_cell_volume   1433.73754909
_cell_formula_units_Z   4
loop_
 _symmetry_equiv_pos_site_id
 _symmetry_equiv_pos_as_xyz
  1  'x, y, z'
loop_
 _atom_site_type_symbol
 _atom_site_label
 _atom_site_symmetry_multiplicity
 _atom_site_fract_x
 _atom_site_fract_y
 _atom_site_fract_z
 _atom_site_occupancy
 _atom_site_hle17_bader_spin_density
 _atom_site_hle17_ddec_charge
 _atom_site_hle17_ddec_spin_density
 _atom_site_hle17_ddec_sum_bond_order
 _atom_site_hle17_magmom
 _atom_site_hse06_10hf_bader_spin_density
 _atom_site_hse06_10hf_ddec_charge
 _atom_site_hse06_10hf_ddec_spin_density
 _atom_site_hse06_10hf_ddec_sum_bond_order
 _atom_site_hse06_10hf_magmom
 _atom_site_hse06_bader_spin_density
 _atom_site_hse06_ddec_charge
 _atom_site_hse06_ddec_spin_density
 _atom_site_hse06_ddec_sum_bond_order
 _atom_site_hse06_magmom
 _atom_site_pbe_bader_spin_density
 _atom_site_pbe_cm5_charge
 _atom_site_pbe_ddec_charge
 _atom_site_pbe_ddec_spin_density
 _atom_site_pbe_ddec_sum_bond_order
 _atom_site_pbe_magmom
K  K0  1  0.74925890  0.06522297  0.94723315  1  0  0.927753  0  0.416072  0  0  0.886548  0  0.587139  0  0  0.899682  0  0.565385  0  0  0.729174  0.876621  0  0.602662  0
K  K1  1  0.75073722  0.56522461  0.55276593  1  0  0.927754  0  0.416091  0  0  0.886568  0  0.587145  0  0  0.899702  0  0.565388  0  0  0.729208  0.876643  0  0.602666  0
K  K2  1  0.25074326  0.93477733  0.05276579  1  0  0.927759  0  0.41608  0  0  0.886566  0  0.587131  0  0  0.899689  0  0.565386  0  0  0.729203  0.876649  0  0.60265  0
K  K3  1  0.24925543  0.43477569  0.44723327  1  0  0.927763  0  0.416078  0  0  0.886566  0  0.587133  0  0  0.89969  0  0.565387  0  0  0.729221  0.876651  0  0.602654  0
Co  Co4  1  0.77450545  0.18403962  0.62433315  1  0  0.758463  0  2.822836  0  0  0.821457  0  3.215992  0  0  0.916307  0  3.139845  0  0  0.768914  0.771115  0  3.261273  0
Co  Co5  1  0.72549222  0.68403430  0.87566404  1  0  0.758292  0  2.822907  0  0  0.8214  0  3.215943  0  0  0.916261  0  3.139791  0  0  0.768833  0.771043  0  3.261256  0
Co  Co6  1  0.22550075  0.81595996  0.37566384  1  0  0.75825  0  2.823026  0  0  0.821281  0  3.216136  0  0  0.916159  0  3.139937  0  0  0.76883  0.770931  0  3.26143  0
Co  Co7  1  0.27450179  0.31596168  0.12433522  1  0  0.758276  0  2.822945  0  0  0.821344  0  3.216029  0  0  0.916232  0  3.139818  0  0  0.768839  0.770977  0  3.261346  0
H  H8  1  0.35117046  0.94968505  0.86676077  1  0  0.420152  0  0.877796  0  0  0.393363  0  0.936197  0  0  0.403174  0  0.921688  0  0  0.284875  0.38646  0  0.94638  0
H  H9  1  0.14882393  0.44968282  0.63323433  1  0  0.420132  0  0.877839  0  0  0.393303  0  0.936313  0  0  0.40312  0  0.921796  0  0  0.28481  0.386401  0  0.946496  0
H  H10  1  0.64882485  0.05032101  0.13323356  1  0  0.420248  0  0.877677  0  0  0.393428  0  0.936138  0  0  0.403242  0  0.921622  0  0  0.28486  0.386526  0  0.94632  0
H  H11  1  0.85116735  0.55031964  0.36676481  1  0  0.42021  0  0.877717  0  0  0.393395  0  0.936166  0  0  0.403208  0  0.921654  0  0  0.284898  0.386494  0  0.946348  0
H  H12  1  0.26453223  0.05390295  0.85576180  1  0  0.426125  0  0.868296  0  0  0.398141  0  0.928103  0  0  0.408441  0  0.912986  0  0  0.29084  0.39091  0  0.938649  0
H  H13  1  0.23546101  0.55390165  0.64423454  1  0  0.426199  0  0.868197  0  0  0.398211  0  0.928015  0  0  0.408511  0  0.912898  0  0  0.290886  0.39098  0  0.938562  0
H  H14  1  0.73546581  0.94610311  0.14423338  1  0  0.426208  0  0.86819  0  0  0.39825  0  0.927957  0  0  0.408549  0  0.912841  0  0  0.290914  0.391021  0  0.938501  0
H  H15  1  0.76452216  0.44610081  0.35576706  1  0  0.426122  0  0.868296  0  0  0.398177  0  0.928044  0  0  0.408476  0  0.912928  0  0  0.290869  0.39095  0  0.938584  0
H  H16  1  0.81427533  0.20931727  0.10965828  1  0  0.406675  0  0.904658  0  0  0.379646  0  0.964836  0  0  0.389923  0  0.949762  0  0  0.286864  0.372697  0  0.974908  0
H  H17  1  0.68572577  0.70931697  0.39033957  1  0  0.406633  0  0.904701  0  0  0.379607  0  0.964875  0  0  0.389883  0  0.949804  0  0  0.286857  0.372659  0  0.974948  0
H  H18  1  0.18572407  0.79068735  0.89033768  1  0  0.406726  0  0.904558  0  0  0.3797  0  0.964725  0  0  0.389977  0  0.949653  0  0  0.28691  0.372752  0  0.9748  0
H  H19  1  0.31428044  0.29068620  0.60965813  1  0  0.406688  0  0.904618  0  0  0.379651  0  0.964807  0  0  0.38993  0  0.949732  0  0  0.286881  0.3727  0  0.974884  0
H  H20  1  0.61515674  0.23091746  0.13189988  1  0  0.423061  0  0.876361  0  0  0.391784  0  0.941857  0  0  0.400987  0  0.928306  0  0  0.292503  0.385183  0  0.951541  0
H  H21  1  0.88484330  0.73091909  0.36809880  1  0  0.423037  0  0.876396  0  0  0.391776  0  0.941864  0  0  0.400979  0  0.928311  0  0  0.292492  0.385178  0  0.951544  0
H  H22  1  0.38484272  0.76908500  0.86810107  1  0  0.423093  0  0.876321  0  0  0.39182  0  0.941812  0  0  0.401023  0  0.928262  0  0  0.292529  0.385221  0  0.951495  0
H  H23  1  0.11516018  0.26908553  0.63189735  1  0  0.4231  0  0.876302  0  0  0.391774  0  0.941882  0  0  0.400978  0  0.928336  0  0  0.292513  0.385152  0  0.951583  0
H  H24  1  0.87678720  0.31269085  0.46582165  1  0  0.096454  0  0.953037  0  0  0.105061  0  1.014822  0  0  0.109157  0  1.010143  0  0  0.134405  0.101556  0  1.019043  0
H  H25  1  0.62320304  0.81268688  0.03417574  1  0  0.096426  0  0.952961  0  0  0.105053  0  1.014734  0  0  0.10915  0  1.010054  0  0  0.134406  0.101553  0  1.01895  0
H  H26  1  0.12320542  0.68730729  0.53417540  1  0  0.096338  0  0.953092  0  0  0.105002  0  1.01485  0  0  0.109095  0  1.010176  0  0  0.134384  0.101499  0  1.019069  0
H  H27  1  0.37680046  0.18731270  0.96582183  1  0  0.096419  0  0.952979  0  0  0.105047  0  1.014759  0  0  0.109143  0  1.010077  0  0  0.134402  0.101544  0  1.018975  0
H  H28  1  0.96419515  0.27905409  0.30028798  1  0  0.122057  0  0.937849  0  0  0.132886  0  0.992913  0  0  0.137464  0  0.99034  0  0  0.118996  0.129183  0  0.995476  0
H  H29  1  0.53579464  0.77905327  0.19970914  1  0  0.122023  0  0.937919  0  0  0.132887  0  0.992933  0  0  0.137467  0  0.990366  0  0  0.119019  0.129189  0  0.995493  0
H  H30  1  0.03580019  0.72094189  0.69970921  1  0  0.121981  0  0.93795  0  0  0.132836  0  0.992975  0  0  0.13742  0  0.990393  0  0  0.118995  0.129134  0  0.995542  0
H  H31  1  0.46421568  0.22094847  0.80029089  1  0  0.121935  0  0.937976  0  0  0.132827  0  0.992954  0  0  0.13741  0  0.990388  0  0  0.118989  0.129125  0  0.995512  0
H  H32  1  0.95416614  0.10761811  0.24081576  1  0  0.105932  0  0.966451  0  0  0.11816  0  1.022703  0  0  0.122051  0  1.019054  0  0  0.113606  0.114703  0  1.0263  0
H  H33  1  0.54582682  0.60761778  0.25918165  1  0  0.105933  0  0.966452  0  0  0.11815  0  1.02272  0  0  0.122043  0  1.01907  0  0  0.113621  0.114697  0  1.026314  0
H  H34  1  0.04582650  0.89237787  0.75918272  1  0  0.105968  0  0.966425  0  0  0.118161  0  1.022711  0  0  0.122052  0  1.019064  0  0  0.113627  0.114704  0  1.026306  0
H  H35  1  0.45417806  0.39238396  0.74081813  1  0  0.105869  0  0.966496  0  0  0.118149  0  1.022687  0  0  0.122041  0  1.019036  0  0  0.113614  0.114691  0  1.026285  0
H  H36  1  0.85249447  0.97900394  0.34682187  1  0  0.124802  0  0.975685  0  0  0.133748  0  1.035451  0  0  0.138853  0  1.032616  0  0  0.111292  0.129914  0  1.037641  0
H  H37  1  0.64750479  0.47900474  0.15317721  1  0  0.124799  0  0.975734  0  0  0.133768  0  1.035468  0  0  0.138855  0  1.032662  0  0  0.111285  0.129935  0  1.037658  0
H  H38  1  0.14750361  0.02099132  0.65317687  1  0  0.124778  0  0.97578  0  0  0.133732  0  1.035541  0  0  0.138819  0  1.032738  0  0  0.11127  0.129897  0  1.037732  0
H  H39  1  0.35249604  0.52099556  0.84682452  1  0  0.124755  0  0.975802  0  0  0.133762  0  1.035504  0  0  0.138828  0  1.032723  0  0  0.111289  0.129926  0  1.0377  0
H  H40  1  0.73583092  0.88097112  0.44359204  1  0  0.126172  0  0.936956  0  0  0.138099  0  0.993043  0  0  0.14258  0  0.990648  0  0  0.11839  0.134585  0  0.995087  0
H  H41  1  0.76419025  0.38097588  0.05641804  1  0  0.12614  0  0.93695  0  0  0.138043  0  0.993042  0  0  0.142523  0  0.990646  0  0  0.118357  0.134531  0  0.995083  0
H  H42  1  0.26417405  0.11902198  0.55641559  1  0  0.126182  0  0.936918  0  0  0.13816  0  0.992947  0  0  0.142642  0  0.990544  0  0  0.118412  0.134642  0  0.994989  0
H  H43  1  0.23582011  0.61902442  0.94358628  1  0  0.126111  0  0.937001  0  0  0.138093  0  0.993022  0  0  0.142575  0  0.990622  0  0  0.118404  0.134576  0  0.995067  0
H  H44  1  0.60253659  0.78241505  0.56861986  1  0  0.103192  0  0.949166  0  0  0.110935  0  1.01465  0  0  0.116296  0  1.008818  0  0  0.115008  0.106538  0  1.019523  0
H  H45  1  0.89749654  0.28241522  0.93139473  1  0  0.103145  0  0.949175  0  0  0.110879  0  1.014669  0  0  0.116237  0  1.008841  0  0  0.11498  0.106486  0  1.019536  0
H  H46  1  0.39746434  0.21758525  0.43139114  1  0  0.103217  0  0.9492  0  0  0.110938  0  1.014692  0  0  0.116299  0  1.00886  0  0  0.11497  0.106542  0  1.019568  0
H  H47  1  0.10251519  0.71758437  0.06860965  1  0  0.103106  0  0.949191  0  0  0.110865  0  1.014672  0  0  0.116224  0  1.008842  0  0  0.114978  0.106469  0  1.019546  0
H  H48  1  0.53320526  0.86331474  0.72166657  1  0  0.122592  0  0.946287  0  0  0.133303  0  1.000952  0  0  0.137956  0  0.998693  0  0  0.116575  0.129594  0  1.003102  0
H  H49  1  0.96680850  0.36330820  0.77834271  1  0  0.122606  0  0.946397  0  0  0.133342  0  1.000981  0  0  0.13799  0  0.998729  0  0  0.116597  0.129635  0  1.003124  0
H  H50  1  0.46678745  0.13669276  0.27833833  1  0  0.122638  0  0.94637  0  0  0.133319  0  1.001058  0  0  0.137971  0  0.998805  0  0  0.116596  0.129612  0  1.003203  0
H  H51  1  0.03319370  0.63669066  0.22166051  1  0  0.122608  0  0.946315  0  0  0.133328  0  1.000938  0  0  0.137976  0  0.998687  0  0  0.116613  0.12962  0  1.003083  0
H  H52  1  0.59620716  0.03803981  0.74259284  1  0  0.087378  0  0.96242  0  0  0.093231  0  1.031767  0  0  0.098045  0  1.025569  0  0  0.123874  0.089269  0  1.036945  0
H  H53  1  0.90378858  0.53802842  0.75740530  1  0  0.087454  0  0.962291  0  0  0.09327  0  1.031684  0  0  0.098081  0  1.02549  0  0  0.123896  0.089297  0  1.036869  0
H  H54  1  0.40378956  0.96196841  0.25740584  1  0  0.087428  0  0.962351  0  0  0.093249  0  1.031739  0  0  0.098061  0  1.025547  0  0  0.123886  0.089285  0  1.036923  0
H  H55  1  0.09620542  0.46196828  0.24259325  1  0  0.087443  0  0.962345  0  0  0.093256  0  1.031733  0  0  0.098067  0  1.02554  0  0  0.123888  0.089291  0  1.036912  0
C  C56  1  0.87328468  0.24035552  0.43615192  1  0  0.135745  0  3.646645  0  0  0.10631  0  3.902824  0  0  0.119973  0  3.913515  0  0  0.060688  0.096192  0  3.89828  0
C  C57  1  0.62670867  0.74035324  0.06384508  1  0  0.135839  0  3.646438  0  0  0.106382  0  3.902656  0  0  0.120044  0  3.913346  0  0  0.060696  0.096266  0  3.898111  0
C  C58  1  0.12671474  0.75964190  0.56384617  1  0  0.135759  0  3.646522  0  0  0.106268  0  3.902728  0  0  0.119922  0  3.913422  0  0  0.060666  0.09615  0  3.898181  0
C  C59  1  0.37329484  0.25964706  0.93615392  1  0  0.135809  0  3.646526  0  0  0.106314  0  3.902784  0  0  0.119973  0  3.913483  0  0  0.060666  0.096198  0  3.898229  0
C  C60  1  0.92116993  0.22063866  0.34455175  1  0  -0.09819  0  3.681782  0  0  -0.110525  0  3.930137  0  0  -0.116074  0  3.942939  0  0  -0.069071  -0.107826  0  3.923968  0
C  C61  1  0.57882316  0.72063764  0.15544581  1  0  -0.098241  0  3.681744  0  0  -0.110603  0  3.930118  0  0  -0.116156  0  3.942924  0  0  -0.069121  -0.107905  0  3.923952  0
C  C62  1  0.07882949  0.77935660  0.65544635  1  0  -0.098137  0  3.681824  0  0  -0.110482  0  3.930165  0  0  -0.116028  0  3.942967  0  0  -0.069091  -0.107788  0  3.924008  0
C  C63  1  0.42118443  0.27936338  0.84455410  1  0  -0.09815  0  3.68179  0  0  -0.110512  0  3.930166  0  0  -0.116068  0  3.942978  0  0  -0.069095  -0.107808  0  3.923988  0
C  C64  1  0.91532669  0.12588586  0.31154796  1  0  0.004379  0  3.690267  0  0  -0.013459  0  3.936157  0  0  -0.004231  0  3.946279  0  0  -0.063989  -0.020979  0  3.931709  0
C  C65  1  0.58466787  0.62588439  0.18844966  1  0  0.004452  0  3.690269  0  0  -0.013375  0  3.936171  0  0  -0.004145  0  3.946287  0  0  -0.063959  -0.020897  0  3.931723  0
C  C66  1  0.08467139  0.87410940  0.68845078  1  0  0.004383  0  3.690238  0  0  -0.013423  0  3.936136  0  0  -0.004193  0  3.946252  0  0  -0.063939  -0.020941  0  3.931686  0
C  C67  1  0.41533837  0.37411663  0.81155018  1  0  0.00451  0  3.690192  0  0  -0.013369  0  3.936146  0  0  -0.004138  0  3.946257  0  0  -0.063951  -0.020893  0  3.931701  0
C  C68  1  0.85762080  0.05376026  0.37037624  1  0  -0.137751  0  3.6967  0  0  -0.158651  0  3.946186  0  0  -0.16622  0  3.963411  0  0  -0.079047  -0.153714  0  3.935746  0
C  C69  1  0.64237824  0.55375853  0.12962177  1  0  -0.137777  0  3.696855  0  0  -0.158695  0  3.946338  0  0  -0.166254  0  3.963585  0  0  -0.079054  -0.153754  0  3.935891  0
C  C70  1  0.14237864  0.94623644  0.62962257  1  0  -0.137706  0  3.696677  0  0  -0.158615  0  3.946135  0  0  -0.166177  0  3.963382  0  0  -0.079022  -0.15367  0  3.935689  0
C  C71  1  0.35762529  0.44624177  0.87037865  1  0  -0.137685  0  3.696735  0  0  -0.158674  0  3.946276  0  0  -0.166216  0  3.96353  0  0  -0.079046  -0.153738  0  3.935835  0
C  C72  1  0.81008587  0.07777604  0.46110052  1  0  0.155546  0  3.772978  0  0  0.151752  0  4.022169  0  0  0.159424  0  4.042551  0  0  0.114541  0.146181  0  4.009855  0
C  C73  1  0.68991352  0.57777666  0.03890054  1  0  0.155497  0  3.773161  0  0  0.151669  0  4.022339  0  0  0.159339  0  4.042717  0  0  0.114521  0.146108  0  4.010012  0
C  C74  1  0.18991629  0.92221994  0.53889913  1  0  0.155541  0  3.772998  0  0  0.151719  0  4.022169  0  0  0.159384  0  4.042548  0  0  0.114497  0.146142  0  4.009864  0
C  C75  1  0.31008867  0.42222436  0.96110125  1  0  0.155433  0  3.773114  0  0  0.151647  0  4.022287  0  0  0.159317  0  4.042665  0  0  0.114532  0.146088  0  4.009955  0
C  C76  1  0.74116499  0.01048639  0.52850015  1  0  0.156639  0  3.76866  0  0  0.151794  0  4.019971  0  0  0.159994  0  4.039986  0  0  0.115523  0.145939  0  4.00782  0
C  C77  1  0.75883994  0.51048408  0.97150179  1  0  0.156615  0  3.768811  0  0  0.151867  0  4.019949  0  0  0.160077  0  4.039968  0  0  0.115551  0.146007  0  4.007799  0
C  C78  1  0.25883856  0.98951247  0.47150242  1  0  0.156625  0  3.768795  0  0  0.151915  0  4.019876  0  0  0.160115  0  4.039895  0  0  0.115583  0.146064  0  4.007721  0
C  C79  1  0.24116224  0.48951406  0.02849929  1  0  0.156684  0  3.768652  0  0  0.151897  0  4.019872  0  0  0.160101  0  4.039894  0  0  0.115555  0.14604  0  4.007716  0
C  C80  1  0.70606359  0.91307648  0.51108699  1  0  -0.117699  0  3.658509  0  0  -0.140174  0  3.911332  0  0  -0.147055  0  3.928393  0  0  -0.070589  -0.135729  0  3.901056  0
C  C81  1  0.79395624  0.41307675  0.98891939  1  0  -0.117683  0  3.658469  0  0  -0.140106  0  3.911167  0  0  -0.146983  0  3.928224  0  0  -0.070583  -0.135658  0  3.900886  0
C  C82  1  0.29394135  0.08691950  0.48891778  1  0  -0.117746  0  3.658731  0  0  -0.140292  0  3.911451  0  0  -0.14717  0  3.928511  0  0  -0.070641  -0.135835  0  3.901162  0
C  C83  1  0.20605275  0.58692283  0.01108343  1  0  -0.117737  0  3.658454  0  0  -0.140225  0  3.911233  0  0  -0.147102  0  3.928288  0  0  -0.070643  -0.135772  0  3.900951  0
C  C84  1  0.63250843  0.85828264  0.58085599  1  0  0.012648  0  3.684789  0  0  -0.009539  0  3.942065  0  0  -9.5e-05  0  3.951373  0  0  -0.060082  -0.017239  0  3.937982  0
C  C85  1  0.86751479  0.35828189  0.91915442  1  0  0.012655  0  3.684901  0  0  -0.009561  0  3.942141  0  0  -0.000112  0  3.951444  0  0  -0.06004  -0.01726  0  3.938047  0
C  C86  1  0.36749248  0.14171838  0.41915358  1  0  0.01266  0  3.684993  0  0  -0.009481  0  3.942216  0  0  -4e-05  0  3.951528  0  0  -0.060031  -0.017178  0  3.938121  0
C  C87  1  0.13249284  0.64171841  0.08084762  1  0  0.012824  0  3.684837  0  0  -0.009441  0  3.942166  0  0  6e-06  0  3.95147  0  0  -0.06003  -0.017138  0  3.938074  0
C  C88  1  0.59181388  0.90280899  0.66526666  1  0  -0.096855  0  3.691246  0  0  -0.109411  0  3.93829  0  0  -0.115855  0  3.95326  0  0  -0.070878  -0.105716  0  3.930257  0
C  C89  1  0.90820174  0.40280269  0.83474088  1  0  -0.096845  0  3.691543  0  0  -0.109383  0  3.938555  0  0  -0.115824  0  3.95352  0  0  -0.070893  -0.105683  0  3.930506  0
C  C90  1  0.40818428  0.09719635  0.33473993  1  0  -0.096907  0  3.691463  0  0  -0.109466  0  3.93852  0  0  -0.11591  0  3.953491  0  0  -0.070853  -0.105763  0  3.930473  0
C  C91  1  0.09180315  0.59719473  0.16526033  1  0  -0.096867  0  3.691358  0  0  -0.109375  0  3.9384  0  0  -0.115816  0  3.953368  0  0  -0.07087  -0.105675  0  3.930354  0
C  C92  1  0.62913881  0.00022465  0.67861080  1  0  0.127832  0  3.651172  0  0  0.101184  0  3.903324  0  0  0.113903  0  3.914054  0  0  0.056107  0.091791  0  3.898665  0
C  C93  1  0.87086326  0.50021508  0.82139092  1  0  0.127619  0  3.651041  0  0  0.100975  0  3.903222  0  0  0.113704  0  3.913951  0  0  0.055938  0.091594  0  3.898561  0
C  C94  1  0.37085930  0.99977925  0.32139079  1  0  0.127733  0  3.651138  0  0  0.101089  0  3.903322  0  0  0.11381  0  3.914051  0  0  0.055987  0.091699  0  3.898664  0
C  C95  1  0.12913483  0.49978090  0.17860925  1  0  0.127597  0  3.65119  0  0  0.10098  0  3.903355  0  0  0.113703  0  3.914089  0  0  0.055944  0.091591  0  3.898692  0
C  C96  1  0.96099684  0.15409919  0.76733899  1  0  0.852277  0  3.97084  0  0  0.79409  0  4.289816  0  0  0.841115  0  4.271965  0  0  0.246442  0.761612  0  4.300506  0
C  C97  1  0.53899637  0.65409503  0.73265990  1  0  0.852142  0  3.971579  0  0  0.793904  0  4.290615  0  0  0.84093  0  4.272762  0  0  0.246352  0.761437  0  4.301311  0
C  C98  1  0.03900665  0.84590183  0.23265859  1  0  0.85226  0  3.97109  0  0  0.794065  0  4.290092  0  0  0.841087  0  4.272249  0  0  0.246415  0.761594  0  4.300777  0
C  C99  1  0.46098818  0.34590095  0.26734390  1  0  0.852205  0  3.971188  0  0  0.793997  0  4.290216  0  0  0.841018  0  4.272372  0  0  0.24644  0.761519  0  4.300904  0
C  C100  1  0.62968000  0.33401282  0.60414770  1  0  0.854357  0  3.982723  0  0  0.796125  0  4.301376  0  0  0.843127  0  4.282781  0  0  0.249577  0.763598  0  4.312811  0
C  C101  1  0.87032378  0.83400238  0.89585376  1  0  0.85439  0  3.982923  0  0  0.796121  0  4.301635  0  0  0.843122  0  4.28304  0  0  0.24949  0.763594  0  4.313075  0
C  C102  1  0.37032896  0.66598892  0.39585228  1  0  0.854191  0  3.982842  0  0  0.795943  0  4.301529  0  0  0.842942  0  4.28294  0  0  0.249452  0.763413  0  4.312965  0
C  C103  1  0.12967430  0.16599000  0.10414569  1  0  0.854271  0  3.98253  0  0  0.796045  0  4.301215  0  0  0.843045  0  4.282625  0  0  0.249505  0.763515  0  4.312646  0
N  N104  1  0.82046679  0.17033908  0.49368310  1  0  -0.270473  0  3.345938  0  0  -0.236831  0  3.624607  0  0  -0.263079  0  3.641816  0  0  -0.331044  -0.22256  0  3.615769  0
N  N105  1  0.67952975  0.67033508  0.00631710  1  0  -0.270471  0  3.346046  0  0  -0.236861  0  3.624739  0  0  -0.263104  0  3.641939  0  0  -0.331008  -0.222592  0  3.615905  0
N  N106  1  0.17953537  0.82965906  0.50631655  1  0  -0.270357  0  3.34583  0  0  -0.236763  0  3.624554  0  0  -0.262998  0  3.64176  0  0  -0.331007  -0.222485  0  3.615712  0
N  N107  1  0.32046970  0.32966306  0.99368314  1  0  -0.270381  0  3.345945  0  0  -0.23674  0  3.62461  0  0  -0.262987  0  3.641822  0  0  -0.330981  -0.222467  0  3.615768  0
N  N108  1  0.70529281  0.05261638  0.61243972  1  0  -0.274795  0  3.37106  0  0  -0.240743  0  3.649595  0  0  -0.266676  0  3.667199  0  0  -0.335242  -0.226814  0  3.640514  0
N  N109  1  0.79470723  0.55260995  0.88756087  1  0  -0.274596  0  3.370932  0  0  -0.24058  0  3.649403  0  0  -0.266543  0  3.667027  0  0  -0.335079  -0.226654  0  3.640329  0
N  N110  1  0.29470936  0.94738536  0.38756064  1  0  -0.274721  0  3.371048  0  0  -0.240682  0  3.649501  0  0  -0.266624  0  3.667108  0  0  -0.335163  -0.226754  0  3.640425  0
N  N111  1  0.20529087  0.44738820  0.11243930  1  0  -0.274641  0  3.370921  0  0  -0.240634  0  3.649429  0  0  -0.26659  0  3.667048  0  0  -0.335151  -0.226701  0  3.640352  0
O  O112  1  0.01783825  0.15517994  0.67983250  1  0  -0.605976  0  1.978287  0  0  -0.583183  0  2.230418  0  0  -0.624144  0  2.220494  0  0  -0.314795  -0.554855  0  2.235671  0
O  O113  1  0.48216039  0.65517864  0.82016201  1  0  -0.605855  0  1.978507  0  0  -0.583065  0  2.230626  0  0  -0.624035  0  2.220723  0  0  -0.314791  -0.554744  0  2.235898  0
O  O114  1  0.98216934  0.84481749  0.32016599  1  0  -0.60594  0  1.978483  0  0  -0.583137  0  2.230575  0  0  -0.624104  0  2.220655  0  0  -0.314779  -0.554807  0  2.235831  0
O  O115  1  0.51783361  0.34481878  0.17983654  1  0  -0.605866  0  1.978299  0  0  -0.583059  0  2.230367  0  0  -0.624034  0  2.220472  0  0  -0.314752  -0.554733  0  2.235643  0
O  O116  1  0.78719851  0.17803450  0.76305225  1  0  -0.622101  0  1.964484  0  0  -0.61444  0  2.233118  0  0  -0.657441  0  2.226897  0  0  -0.340554  -0.585104  0  2.236385  0
O  O117  1  0.71279229  0.67802519  0.73694600  1  0  -0.622091  0  1.964725  0  0  -0.614421  0  2.233375  0  0  -0.657425  0  2.227146  0  0  -0.340522  -0.585047  0  2.236579  0
O  O118  1  0.21280770  0.82196940  0.23694546  1  0  -0.622091  0  1.964409  0  0  -0.614397  0  2.23298  0  0  -0.6574  0  2.226755  0  0  -0.340568  -0.585063  0  2.236253  0
O  O119  1  0.28718948  0.32197007  0.26305268  1  0  -0.622123  0  1.964519  0  0  -0.614405  0  2.233057  0  0  -0.657405  0  2.226832  0  0  -0.340608  -0.585065  0  2.236329  0
O  O120  1  0.05654216  0.13195910  0.84216033  1  0  -0.658122  0  1.91597  0  0  -0.616916  0  2.134881  0  0  -0.646183  0  2.123311  0  0  -0.336617  -0.594316  0  2.141042  0
O  O121  1  0.44345215  0.63196219  0.65783950  1  0  -0.658002  0  1.916224  0  0  -0.616792  0  2.135176  0  0  -0.646059  0  2.123609  0  0  -0.336519  -0.594189  0  2.141335  0
O  O122  1  0.94345863  0.86803904  0.15783854  1  0  -0.65808  0  1.916054  0  0  -0.61692  0  2.135021  0  0  -0.646184  0  2.123453  0  0  -0.336579  -0.59432  0  2.14118  0
O  O123  1  0.55653240  0.36803595  0.34216430  1  0  -0.658049  0  1.91626  0  0  -0.616901  0  2.135251  0  0  -0.646163  0  2.12368  0  0  -0.336577  -0.594299  0  2.141413  0
O  O124  1  0.54332862  0.24981151  0.60092644  1  0  -0.61212  0  1.969886  0  0  -0.58966  0  2.225088  0  0  -0.631297  0  2.214921  0  0  -0.314932  -0.561018  0  2.230786  0
O  O125  1  0.95666724  0.74981074  0.89907401  1  0  -0.61206  0  1.970171  0  0  -0.589577  0  2.225336  0  0  -0.631211  0  2.215156  0  0  -0.314849  -0.560935  0  2.231045  0
O  O126  1  0.45667491  0.75018663  0.39907399  1  0  -0.611981  0  1.969777  0  0  -0.58957  0  2.22501  0  0  -0.631207  0  2.214837  0  0  -0.314882  -0.560925  0  2.230714  0
O  O127  1  0.04332538  0.25018956  0.10092305  1  0  -0.612069  0  1.969814  0  0  -0.589638  0  2.225014  0  0  -0.631275  0  2.214838  0  0  -0.314897  -0.560989  0  2.230714  0
O  O128  1  0.80593853  0.32142667  0.62284314  1  0  -0.579028  0  1.9678  0  0  -0.561698  0  2.223559  0  0  -0.603301  0  2.216607  0  0  -0.310668  -0.533745  0  2.227626  0
O  O129  1  0.69407458  0.82142054  0.87715724  1  0  -0.578944  0  1.967877  0  0  -0.561723  0  2.223785  0  0  -0.603331  0  2.216834  0  0  -0.310621  -0.533761  0  2.227854  0
O  O130  1  0.19407175  0.67857363  0.37715333  1  0  -0.578919  0  1.96784  0  0  -0.56162  0  2.223683  0  0  -0.603231  0  2.216735  0  0  -0.310598  -0.533658  0  2.227752  0
O  O131  1  0.30593030  0.17857616  0.12284254  1  0  -0.578915  0  1.967826  0  0  -0.561679  0  2.223717  0  0  -0.603289  0  2.216768  0  0  -0.310611  -0.533716  0  2.227789  0
O  O132  1  0.55202976  0.41330588  0.59106533  1  0  -0.708256  0  1.929443  0  0  -0.67295  0  2.161  0  0  -0.700846  0  2.148058  0  0  -0.444531  -0.651294  0  2.168223  0
O  O133  1  0.94796965  0.91329580  0.90893723  1  0  -0.708367  0  1.929192  0  0  -0.673019  0  2.160756  0  0  -0.700915  0  2.147816  0  0  -0.444592  -0.651353  0  2.167981  0
O  O134  1  0.44797243  0.58669730  0.40893646  1  0  -0.708214  0  1.929464  0  0  -0.672867  0  2.161002  0  0  -0.700761  0  2.148063  0  0  -0.444514  -0.651214  0  2.168241  0
O  O135  1  0.05202435  0.08669514  0.09106131  1  0  -0.70827  0  1.92926  0  0  -0.672921  0  2.16079  0  0  -0.700814  0  2.14785  0  0  -0.444556  -0.651265  0  2.168021  0
O  O136  1  0.37898931  0.01895611  0.87467997  1  0  -0.896667  0  1.726669  0  0  -0.852927  0  1.877443  0  0  -0.870759  0  1.847029  0  0  -0.665266  -0.839936  0  1.898613  0
O  O137  1  0.12100346  0.51895284  0.62531609  1  0  -0.896713  0  1.726619  0  0  -0.852947  0  1.877391  0  0  -0.870781  0  1.846972  0  0  -0.665244  -0.839954  0  1.898561  0
O  O138  1  0.62100601  0.98104995  0.12531508  1  0  -0.896841  0  1.726477  0  0  -0.853105  0  1.877233  0  0  -0.87094  0  1.846821  0  0  -0.665325  -0.840112  0  1.898398  0
O  O139  1  0.87898511  0.48104890  0.37468291  1  0  -0.89674  0  1.726624  0  0  -0.853012  0  1.87736  0  0  -0.870844  0  1.846949  0  0  -0.665317  -0.840019  0  1.898521  0
O  O140  1  0.69014070  0.18220619  0.10351590  1  0  -0.872225  0  1.84691  0  0  -0.826524  0  2.016094  0  0  -0.8452  0  1.986497  0  0  -0.640926  -0.812862  0  2.03643  0
O  O141  1  0.80986140  0.68220707  0.39648179  1  0  -0.872159  0  1.846947  0  0  -0.826486  0  2.016154  0  0  -0.845158  0  1.986566  0  0  -0.640906  -0.812827  0  2.036486  0
O  O142  1  0.30986007  0.81779771  0.89648012  1  0  -0.872278  0  1.846791  0  0  -0.826605  0  2.015986  0  0  -0.845276  0  1.986389  0  0  -0.640966  -0.812941  0  2.03632  0
O  O143  1  0.19014480  0.31779683  0.60351448  1  0  -0.872239  0  1.846763  0  0  -0.826509  0  2.015987  0  0  -0.845193  0  1.986379  0  0  -0.640962  -0.812818  0  2.03639  0
