# generated using pymatgen
data_Zn4H4C24S5(BrO4)4
_symmetry_space_group_name_H-M   'P 1'
_cell_length_a   19.61569189
_cell_length_b   19.70002572
_cell_length_c   33.25880927
_cell_angle_alpha   79.20462901
_cell_angle_beta   79.46728966
_cell_angle_gamma   64.05610180
_symmetry_Int_Tables_number   1
_chemical_formula_structural   Zn4H4C24S5(BrO4)4
_chemical_formula_sum   'Zn16 H16 C96 S20 Br16 O64'
_cell_volume   11278.21067495
_cell_formula_units_Z   4
loop_
 _symmetry_equiv_pos_site_id
 _symmetry_equiv_pos_as_xyz
  1  'x, y, z'
loop_
 _atom_site_type_symbol
 _atom_site_label
 _atom_site_symmetry_multiplicity
 _atom_site_fract_x
 _atom_site_fract_y
 _atom_site_fract_z
 _atom_site_occupancy
 _atom_site_pbe_bader_charge
 _atom_site_pbe_bader_spin_density
 _atom_site_pbe_cm5_charge
 _atom_site_pbe_ddec_charge
 _atom_site_pbe_ddec_spin_density
 _atom_site_pbe_ddec_sum_bond_order
 _atom_site_pbe_magmom
Zn  Zn0  1  0.05635999  0.39844097  0.47925420  1  1.321094  0  0.678148  0.97948  0  2.320511  0
Zn  Zn1  1  0.98708445  0.48106848  0.56007815  1  1.322217  0  0.67816  0.971163  0  2.371283  0
Zn  Zn2  1  0.05591086  0.56283818  0.48081240  1  1.320425  0  0.683757  0.979873  0  2.324895  0
Zn  Zn3  1  0.90103167  0.55716885  0.47911062  1  1.322626  0  0.684699  0.984109  0  2.317184  0
Zn  Zn4  1  0.69021725  0.35207945  0.27190958  1  1.323406  0  0.677997  0.977163  0  2.340811  0
Zn  Zn5  1  0.68958460  0.19097040  0.26672378  1  1.32362  0  0.67594  0.973354  0  2.341197  0
Zn  Zn6  1  0.77021347  0.26726127  0.19029507  1  1.319761  0  0.683208  0.98038  0  2.320686  0
Zn  Zn7  1  0.84738149  0.19971757  0.27204231  1  1.31775  0  0.674944  0.966567  0  2.385733  0
Zn  Zn8  1  0.26797689  0.76401066  0.68896367  1  1.309688  0  0.678157  0.969721  0  2.391395  0
Zn  Zn9  1  0.35136572  0.69652659  0.76955779  1  1.321677  0  0.677041  0.975119  0  2.333251  0
Zn  Zn10  1  0.19087017  0.84660474  0.77077329  1  1.319689  0  0.680974  0.978169  0  2.314093  0
Zn  Zn11  1  0.19091240  0.68724259  0.76641391  1  1.316  0  0.674818  0.97177  0  2.356924  0
Zn  Zn12  1  0.55771557  0.06294704  0.98300787  1  1.320763  0  0.675539  0.969828  0  2.363921  0
Zn  Zn13  1  0.40195965  0.05416326  0.97709468  1  1.315773  0  0.675994  0.966445  0  2.385129  0
Zn  Zn14  1  0.55561387  0.90055950  0.97850025  1  1.317643  0  0.67291  0.972625  0  2.336775  0
Zn  Zn15  1  0.48219524  0.98546912  0.06043171  1  1.317115  0  0.673314  0.969932  0  2.356013  0
H  H16  1  0.95189176  0.25467626  0.35084911  1  0.104608  0  0.116261  0.122292  0  0.983911  0
H  H17  1  0.74074668  0.45598866  0.35408771  1  0.162918  0  0.122218  0.140317  0  0.990411  0
H  H18  1  0.99942071  0.30503422  0.39820659  1  0.132091  0  0.116468  0.122833  0  0.982253  0
H  H19  1  0.09198952  0.59903167  0.69836306  1  0.110993  0  0.116781  0.122426  0  0.980431  0
H  H20  1  0.20349748  0.69927060  0.59767972  1  0.16991  0  0.120743  0.138469  0  0.994539  0
H  H21  1  0.04445275  0.55534865  0.64764281  1  0.123755  0  0.115403  0.120537  0  0.986118  0
H  H22  1  0.55436065  0.04909026  0.15315722  1  0.123664  0  0.116354  0.121914  0  0.982222  0
H  H23  1  0.65027307  0.15640066  0.04816191  1  0.161992  0  0.120893  0.138885  0  0.993384  0
H  H24  1  0.60726104  0.09568983  0.19967126  1  0.079739  0  0.115869  0.122241  0  0.984278  0
H  H25  1  0.49831567  0.79249831  0.89901853  1  0.110723  0  0.117118  0.123361  0  0.978834  0
H  H26  1  0.29787207  0.00440072  0.89741487  1  0.159991  0  0.120505  0.138561  0  0.99531  0
H  H27  1  0.44499500  0.74886715  0.85122279  1  0.116298  0  0.115083  0.120324  0  0.985262  0
H  H28  1  0.84573413  0.57404853  0.39916193  1  0.644734  0  0.312339  0.377641  0  0.939847  0
H  H29  1  0.06597842  0.68869630  0.51308736  1  0.663743  0  0.31124  0.375482  0  0.94581  0
H  H30  1  0.79838152  0.17575392  0.12291032  1  0.644681  0  0.311611  0.376328  0  0.943676  0
H  H31  1  0.17639000  0.90524662  0.84979837  1  0.647234  0  0.312012  0.376698  0  0.943315  0
C  C32  1  0.06112462  0.31467285  0.56260200  1  1.584268  0  0.218134  0.624955  0  4.200357  0
C  C33  1  0.06368737  0.57517507  0.56727265  1  1.561877  0  0.238813  0.614727  0  4.121672  0
C  C34  1  0.18154491  0.44066220  0.43876679  1  1.541297  0  0.218838  0.625275  0  4.191903  0
C  C35  1  0.93367197  0.68786138  0.43877373  1  1.573626  0  0.215269  0.619373  0  4.207474  0
C  C36  1  0.93395018  0.43499932  0.42865556  1  1.569472  0  0.239057  0.617709  0  4.121399  0
C  C37  1  0.82055727  0.55998310  0.56222865  1  1.574699  0  0.218882  0.624706  0  4.195151  0
C  C38  1  0.56513683  0.30952174  0.31249629  1  1.596225  0  0.217571  0.62411  0  4.202223  0
C  C39  1  0.68924289  0.17463383  0.18121998  1  1.5622  0  0.237727  0.614241  0  4.123747  0
C  C40  1  0.68720865  0.43283236  0.18734722  1  1.548784  0  0.218281  0.622927  0  4.197289  0
C  C41  1  0.93574590  0.19147620  0.18939851  1  1.559508  0  0.215225  0.61986  0  4.210305  0
C  C42  1  0.81558985  0.32354734  0.32011032  1  1.570569  0  0.23242  0.604815  0  4.165377  0
C  C43  1  0.81390983  0.06742358  0.30915074  1  1.58952  0  0.216352  0.623388  0  4.202018  0
C  C44  1  0.43541806  0.68630995  0.68651545  1  1.597139  0  0.216622  0.621987  0  4.203282  0
C  C45  1  0.31460115  0.81768363  0.82037195  1  1.569509  0  0.238898  0.616422  0  4.121502  0
C  C46  1  0.19174504  0.93132831  0.68892777  1  1.553483  0  0.218919  0.623379  0  4.200642  0
C  C47  1  0.06368713  0.80856848  0.81016727  1  1.57877  0  0.215915  0.621155  0  4.205784  0
C  C48  1  0.18007500  0.67846137  0.68065048  1  1.56004  0  0.232056  0.603031  0  4.170091  0
C  C49  1  0.31530240  0.56858751  0.81207782  1  1.575084  0  0.217762  0.62617  0  4.198099  0
C  C50  1  0.43571280  0.18487944  0.93794897  1  1.586474  0  0.216914  0.620041  0  4.208473  0
C  C51  1  0.43158395  0.92869815  0.93008586  1  1.591617  0  0.23318  0.60472  0  4.165098  0
C  C52  1  0.68293548  0.94097292  0.93914141  1  1.583918  0  0.217357  0.624049  0  4.203269  0
C  C53  1  0.56101727  0.81776121  0.06245104  1  1.583843  0  0.217053  0.624275  0  4.204514  0
C  C54  1  0.56832555  0.07169617  0.06944664  1  1.567022  0  0.232463  0.602048  0  4.167272  0
C  C55  1  0.31537299  0.06143806  0.06001485  1  1.559977  0  0.216229  0.620755  0  4.208805  0
C  C56  1  0.89831943  0.40905248  0.40197268  1  -0.053056  0  -0.003491  -0.039699  0  3.92309  0
C  C57  1  0.84398270  0.35259458  0.34905352  1  0.064691  0  -0.002886  -0.012562  0  3.940688  0
C  C58  1  0.82438643  0.45123413  0.38947928  1  -0.078148  0  -0.005746  -0.099032  0  3.913177  0
C  C59  1  0.91663188  0.30970602  0.36180392  1  -0.042638  0  -0.067746  -0.076473  0  3.941916  0
C  C60  1  0.79782741  0.42297944  0.36333257  1  -0.073279  0  -0.064252  -0.088993  0  3.918664  0
C  C61  1  0.94299807  0.33780586  0.38805149  1  -0.019529  0  -0.069971  -0.07691  0  3.942783  0
C  C62  1  0.09586975  0.60349570  0.59453940  1  -0.054306  0  -0.003117  -0.038537  0  3.925128  0
C  C63  1  0.15022766  0.65213525  0.65115173  1  -0.031757  0  -0.002787  -0.01221  0  3.944486  0
C  C64  1  0.14123114  0.64455156  0.58060728  1  -0.109675  0  -0.005399  -0.096952  0  3.915856  0
C  C65  1  0.10545188  0.61154929  0.66534307  1  0.046769  0  -0.067024  -0.075408  0  3.94198  0
C  C66  1  0.16801116  0.66835409  0.60877094  1  -0.045822  0  -0.065278  -0.090325  0  3.919571  0
C  C67  1  0.07897318  0.58746131  0.63716373  1  -0.010717  0  -0.068873  -0.075342  0  3.943609  0
C  C68  1  0.30218733  0.45601298  0.39992848  1  0.019304  0  -0.019554  0.06108  0  3.999559  0
C  C69  1  0.44375793  0.29472014  0.35079181  1  -0.038695  0  -0.0221  0.06237  0  3.992725  0
C  C70  1  0.25605821  0.41706790  0.41374193  1  -0.082208  0  -0.029491  -0.172403  0  3.935603  0
C  C71  1  0.48995157  0.33352694  0.33703337  1  -0.100719  0  -0.028441  -0.171729  0  3.935309  0
C  C72  1  0.37515156  0.33936573  0.37353818  1  -0.10782  0  -0.027978  -0.056374  0  4.095151  0
C  C73  1  0.37041288  0.41140777  0.37682096  1  -0.157037  0  -0.026815  -0.060205  0  4.095069  0
C  C74  1  0.72866996  0.57503844  0.62994666  1  -0.1212  0  -0.021506  0.064638  0  3.991476  0
C  C75  1  0.52754051  0.67043621  0.61874865  1  0.013218  0  -0.020575  0.061914  0  3.996181  0
C  C76  1  0.74619410  0.58340844  0.58733457  1  -0.066498  0  -0.028213  -0.174267  0  3.940313  0
C  C77  1  0.50987884  0.66187622  0.66135126  1  -0.160783  0  -0.028476  -0.169276  0  3.934623  0
C  C78  1  0.60733319  0.63836169  0.60730244  1  -0.103923  0  -0.026665  -0.061614  0  4.095531  0
C  C79  1  0.64899491  0.60635817  0.64145708  1  -0.079772  0  -0.028351  -0.059619  0  4.09825  0
C  C80  1  0.07658631  0.22344752  0.63080976  1  -0.007145  0  -0.020651  0.06544  0  3.988937  0
C  C81  1  0.17619564  0.02295859  0.62107613  1  0.033947  0  -0.022077  0.060348  0  3.99603  0
C  C82  1  0.08577023  0.24067379  0.58815359  1  -0.096697  0  -0.029096  -0.171728  0  3.938438  0
C  C83  1  0.16748595  0.00576912  0.66374734  1  -0.096079  0  -0.027021  -0.171266  0  3.935264  0
C  C84  1  0.14345111  0.10230743  0.60914240  1  -0.213856  0  -0.027682  -0.058178  0  4.099646  0
C  C85  1  0.10995982  0.14409149  0.64292987  1  -0.103397  0  -0.027418  -0.063151  0  4.093165  0
C  C86  1  0.83906702  0.80692514  0.39795809  1  -0.044595  0  -0.022218  0.058066  0  4.005899  0
C  C87  1  0.90756469  0.94966662  0.35133384  1  0.025032  0  -0.021292  0.063754  0  3.992255  0
C  C88  1  0.90808632  0.76260104  0.41407759  1  -0.068751  0  -0.029701  -0.175127  0  3.946329  0
C  C89  1  0.83910207  0.99325179  0.33457171  1  -0.152107  0  -0.02818  -0.169251  0  3.939838  0
C  C90  1  0.90784514  0.88148339  0.37430603  1  -0.120446  0  -0.026914  -0.058884  0  4.09312  0
C  C91  1  0.83916205  0.87488527  0.37492876  1  -0.151154  0  -0.027811  -0.059204  0  4.099973  0
C  C92  1  0.65925722  0.15093897  0.15047783  1  -0.029512  0  -0.003514  -0.038441  0  3.922091  0
C  C93  1  0.59948819  0.09920153  0.09781895  1  0.00181  0  -0.002527  -0.01164  0  3.939308  0
C  C94  1  0.67087414  0.16805285  0.10719511  1  -0.176796  0  -0.004898  -0.097531  0  3.911022  0
C  C95  1  0.58714737  0.08235538  0.14055530  1  -0.039137  0  -0.067674  -0.074829  0  3.943102  0
C  C96  1  0.64120617  0.14231083  0.08136562  1  0.051793  0  -0.065226  -0.090091  0  3.918107  0
C  C97  1  0.61667665  0.10820239  0.16635124  1  0.032528  0  -0.070051  -0.078722  0  3.946439  0
C  C98  1  0.67533827  0.52498674  0.11943153  1  -0.016479  0  -0.021037  0.05857  0  4.0001  0
C  C99  1  0.57604686  0.72523887  0.13032708  1  -0.022586  0  -0.022521  0.063082  0  3.992947  0
C  C100  1  0.66444461  0.50700081  0.16196179  1  -0.086374  0  -0.028248  -0.16987  0  3.93462  0
C  C101  1  0.58598179  0.74335614  0.08779309  1  -0.122531  0  -0.029759  -0.172671  0  3.939348  0
C  C102  1  0.60868508  0.64572803  0.14193616  1  -0.112007  0  -0.028222  -0.058842  0  4.09569  0
C  C103  1  0.64315609  0.60459260  0.10797745  1  -0.128796  0  -0.02779  -0.058605  0  4.095561  0
C  C104  1  0.08321304  0.12327936  0.17764028  1  -0.044669  0  -0.022194  0.063901  0  3.994277  0
C  C105  1  0.16765452  0.12564835  0.07176430  1  -0.019424  0  -0.021357  0.061573  0  3.994941  0
C  C106  1  0.01071527  0.16391422  0.16500217  1  -0.097191  0  -0.029972  -0.175116  0  3.946966  0
C  C107  1  0.24021901  0.08619947  0.08442624  1  -0.101521  0  -0.027986  -0.167548  0  3.936347  0
C  C108  1  0.11041028  0.13914275  0.10578404  1  -0.149676  0  -0.027449  -0.060165  0  4.095937  0
C  C109  1  0.14050928  0.10928564  0.14369742  1  -0.167596  0  -0.028624  -0.059515  0  4.098426  0
C  C110  1  0.34151792  0.85074915  0.84798794  1  -0.04704  0  -0.003543  -0.039655  0  3.920802  0
C  C111  1  0.40124980  0.90084536  0.90146962  1  0.015793  0  -0.003227  -0.013377  0  3.941992  0
C  C112  1  0.30022349  0.92364100  0.86127067  1  -0.081496  0  -0.005161  -0.098019  0  3.912416  0
C  C113  1  0.44287867  0.82889391  0.88833112  1  -0.038164  0  -0.06805  -0.076959  0  3.944002  0
C  C114  1  0.33010811  0.94801445  0.88765335  1  -0.006798  0  -0.065673  -0.090492  0  3.920197  0
C  C115  1  0.41313036  0.80465981  0.86181711  1  -0.039328  0  -0.069626  -0.076198  0  3.944304  0
C  C116  1  0.40908946  0.44944577  0.85373506  1  -0.021594  0  -0.021594  0.064701  0  3.993516  0
C  C117  1  0.34249681  0.30358413  0.89591907  1  -0.017649  0  -0.021546  0.060937  0  3.9947  0
C  C118  1  0.34098964  0.49365230  0.83675786  1  -0.109678  0  -0.030087  -0.174792  0  3.940388  0
C  C119  1  0.41052022  0.25965261  0.91304238  1  -0.094656  0  -0.028025  -0.169233  0  3.936147  0
C  C120  1  0.34199899  0.37277530  0.87425860  1  -0.130616  0  -0.027412  -0.057484  0  4.093146  0
C  C121  1  0.40976013  0.38013656  0.87526538  1  -0.141246  0  -0.028622  -0.060619  0  4.09541  0
C  C122  1  0.94294447  0.79410062  0.84975164  1  0.010173  0  -0.022739  0.063177  0  3.995743  0
C  C123  1  0.80515229  0.95422178  0.90101105  1  -0.020815  0  -0.021321  0.060325  0  3.996552  0
C  C124  1  0.98962420  0.83228519  0.83570384  1  -0.138797  0  -0.029356  -0.175408  0  3.940936  0
C  C125  1  0.75804198  0.91637674  0.91453616  1  -0.078695  0  -0.028512  -0.170234  0  3.93632  0
C  C126  1  0.87257004  0.90965393  0.87734182  1  -0.125264  0  -0.027626  -0.059176  0  4.093732  0
C  C127  1  0.87570254  0.83848308  0.87350818  1  -0.128603  0  -0.028633  -0.060984  0  4.100415  0
S  S128  1  0.29612610  0.32620480  0.39827832  1  0.293931  0  0.087396  0.147383  0  2.776553  0
S  S129  1  0.44926535  0.42473202  0.35195352  1  0.306109  0  0.101646  0.165899  0  2.773383  0
S  S130  1  0.66520781  0.62901584  0.56130612  1  0.332218  0  0.112242  0.185776  0  2.770395  0
S  S131  1  0.59089261  0.61477592  0.68738602  1  0.304183  0  0.091348  0.153165  0  2.777127  0
S  S132  1  0.13509381  0.15964683  0.56287002  1  0.286338  0  0.093106  0.154671  0  2.777934  0
S  S133  1  0.11938085  0.08662335  0.68922573  1  0.327521  0  0.110989  0.184569  0  2.761586  0
S  S134  1  0.97277163  0.80431785  0.40127372  1  0.316154  0  0.099857  0.168555  0  2.775257  0
S  S135  1  0.77495875  0.95104667  0.34705489  1  0.312053  0  0.093997  0.154667  0  2.784838  0
S  S136  1  0.61557277  0.58743565  0.18784641  1  0.301192  0  0.093345  0.155988  0  2.777208  0
S  S137  1  0.63558016  0.66290277  0.06204296  1  0.306723  0  0.093877  0.154676  0  2.782492  0
S  S138  1  0.01255631  0.18440996  0.11155893  1  0.368376  0  0.103419  0.172214  0  2.781088  0
S  S139  1  0.23846759  0.06518429  0.13784801  1  0.351222  0  0.091293  0.152312  0  2.782152  0
S  S140  1  0.27784504  0.45018232  0.84701942  1  0.31296  0  0.093235  0.155743  0  2.784454  0
S  S141  1  0.47387475  0.30283098  0.90259487  1  0.316748  0  0.097693  0.161906  0  2.778402  0
S  S142  1  0.95127895  0.92248056  0.85179505  1  0.318823  0  0.102453  0.171226  0  2.774232  0
S  S143  1  0.79649062  0.82608752  0.89861487  1  0.295613  0  0.091087  0.153617  0  2.781193  0
S  S144  1  0.75701507  0.54023071  0.40711280  1  3.076845  0  0.530157  1.150685  0  6.037312  0
S  S145  1  0.17383018  0.66402836  0.52742226  1  3.112498  0  0.529348  1.150329  0  6.040549  0
S  S146  1  0.71725389  0.22818671  0.08155320  1  3.074016  0  0.528873  1.149089  0  6.042204  0
S  S147  1  0.21083348  0.99284468  0.84408224  1  3.086705  0  0.528851  1.149019  0  6.04366  0
Br  Br148  1  0.28208278  0.55428714  0.40902050  1  0.048613  0  0.07249  0.030403  0  1.445632  0
Br  Br149  1  0.46412000  0.19592242  0.34193292  1  0.007057  0  0.045868  -0.008843  0  1.389549  0
Br  Br150  1  0.79752315  0.52754659  0.66967823  1  0.015898  0  0.043829  -0.012416  0  1.397318  0
Br  Br151  1  0.45923397  0.71733962  0.57885199  1  0.025981  0  0.060934  0.009212  0  1.39927  0
Br  Br152  1  0.02739680  0.29214481  0.67004458  1  0.016001  0  0.049622  -0.005683  0  1.400206  0
Br  Br153  1  0.22377802  0.95453898  0.58162845  1  0.018262  0  0.054282  0.001481  0  1.40504  0
Br  Br154  1  0.75449249  0.78387185  0.40330909  1  0.033749  0  0.066494  0.021489  0  1.438175  0
Br  Br155  1  0.99259674  0.97238350  0.34565742  1  0.012404  0  0.050174  -0.00462  0  1.401123  0
Br  Br156  1  0.72510857  0.45716647  0.07998591  1  0.044623  0  0.067801  0.024971  0  1.439809  0
Br  Br157  1  0.52616084  0.79300709  0.16999999  1  0.012879  0  0.047135  -0.007334  0  1.388895  0
Br  Br158  1  0.10800279  0.08886895  0.23189280  1  0.011612  0  0.044875  -0.010451  0  1.40215  0
Br  Br159  1  0.14236726  0.15961131  0.01764481  1  0.02854  0  0.059969  0.007901  0  1.40055  0
Br  Br160  1  0.49313408  0.47306957  0.84999977  1  0.013318  0  0.048952  -0.005575  0  1.384156  0
Br  Br161  1  0.25889483  0.27950064  0.89923987  1  0.021617  0  0.056014  0.003813  0  1.398666  0
Br  Br162  1  0.96121565  0.69642144  0.83997509  1  0.01007  0  0.046435  -0.008076  0  1.387325  0
Br  Br163  1  0.78742297  0.05137140  0.91128693  1  0.024558  0  0.060384  0.00937  0  1.389242  0
O  O164  1  0.00081261  0.49818375  0.49970547  1  -1.231399  0  -0.573105  -1.036242  0  2.526556  0
O  O165  1  0.08194287  0.31329806  0.52375738  1  -1.157998  0  -0.31977  -0.545691  0  2.317646  0
O  O166  1  0.04955732  0.51805336  0.58261510  1  -1.157384  0  -0.29745  -0.515574  0  2.314295  0
O  O167  1  0.15510303  0.50435799  0.45290703  1  -1.158569  0  -0.30944  -0.528725  0  2.385413  0
O  O168  1  0.02141946  0.37359632  0.58092663  1  -1.169489  0  -0.31557  -0.540741  0  2.384783  0
O  O169  1  0.14987652  0.39418600  0.44421982  1  -1.155293  0  -0.322478  -0.5521  0  2.320159  0
O  O170  1  0.05016675  0.61022118  0.53085629  1  -1.183409  0  -0.306336  -0.565424  0  2.3935  0
O  O171  1  0.00366181  0.65783144  0.44596862  1  -1.164676  0  -0.319552  -0.543636  0  2.328429  0
O  O172  1  0.91085195  0.50681845  0.42964916  1  -1.187833  0  -0.309198  -0.569998  0  2.395149  0
O  O173  1  0.88553046  0.65889081  0.45099727  1  -1.164543  0  -0.314412  -0.541521  0  2.368377  0
O  O174  1  0.98726510  0.38364042  0.44806877  1  -1.16288  0  -0.296768  -0.518746  0  2.30519  0
O  O175  1  0.87988977  0.53482870  0.58085110  1  -1.166174  0  -0.317271  -0.544955  0  2.376663  0
O  O176  1  0.81849519  0.56781326  0.52322983  1  -1.149234  0  -0.311684  -0.530488  0  2.34288  0
O  O177  1  0.74798335  0.25317123  0.25039412  1  -1.234934  0  -0.571029  -1.033119  0  2.521223  0
O  O178  1  0.59239739  0.35964641  0.30305123  1  -1.162226  0  -0.317855  -0.542867  0  2.322905  0
O  O179  1  0.65455999  0.17763715  0.21748109  1  -1.159612  0  -0.296914  -0.517165  0  2.307771  0
O  O180  1  0.71997324  0.37352203  0.16875835  1  -1.159002  0  -0.309841  -0.528816  0  2.383456  0
O  O181  1  0.59653182  0.24190585  0.30286767  1  -1.17039  0  -0.31544  -0.541877  0  2.377033  0
O  O182  1  0.67151677  0.43498243  0.22638844  1  -1.150638  0  -0.319098  -0.546697  0  2.331925  0
O  O183  1  0.74858514  0.18877212  0.17013835  1  -1.182866  0  -0.307051  -0.567828  0  2.398686  0
O  O184  1  0.87849915  0.22895683  0.16868634  1  -1.168548  0  -0.319146  -0.542673  0  2.327721  0
O  O185  1  0.86092002  0.25876565  0.30870825  1  -1.167708  0  -0.310218  -0.54109  0  2.344231  0
O  O186  1  0.93338115  0.17659004  0.22844841  1  -1.140438  0  -0.314215  -0.539523  0  2.385914  0
O  O187  1  0.74934463  0.36583133  0.30934000  1  -1.163906  0  -0.305538  -0.533627  0  2.326077  0
O  O188  1  0.74911192  0.09107800  0.29557248  1  -1.167905  0  -0.320517  -0.547771  0  2.323111  0
O  O189  1  0.85760077  0.10159693  0.30300907  1  -1.157866  0  -0.313547  -0.536806  0  2.383592  0
O  O190  1  0.25052409  0.74843196  0.74940430  1  -1.21725  0  -0.571387  -1.032915  0  2.522855  0
O  O191  1  0.37609408  0.72144915  0.66774287  1  -1.163557  0  -0.312278  -0.536885  0  2.385583  0
O  O192  1  0.36578391  0.76599104  0.80015343  1  -1.162276  0  -0.298515  -0.520003  0  2.308131  0
O  O193  1  0.17681511  0.93249676  0.72807701  1  -1.127335  0  -0.312587  -0.531511  0  2.332441  0
O  O194  1  0.43711831  0.66975041  0.72563994  1  -1.166145  0  -0.319499  -0.545095  0  2.321004  0
O  O195  1  0.22475018  0.87275851  0.66989547  1  -1.163278  0  -0.314444  -0.541056  0  2.396181  0
O  O196  1  0.24249499  0.84111726  0.81930629  1  -1.190041  0  -0.305323  -0.565099  0  2.39595  0
O  O197  1  0.09113087  0.85863863  0.80071124  1  -1.17235  0  -0.320297  -0.543954  0  2.325458  0
O  O198  1  0.16386392  0.66114632  0.71899059  1  -1.163927  0  -0.308781  -0.539652  0  2.32714  0
O  O199  1  0.09426952  0.74169642  0.79959681  1  -1.16032  0  -0.314229  -0.541485  0  2.375551  0
O  O200  1  0.21920893  0.71604974  0.66458727  1  -1.162712  0  -0.306733  -0.532515  0  2.349838  0
O  O201  1  0.35898740  0.60304764  0.80553254  1  -1.151029  0  -0.316802  -0.544849  0  2.3667  0
O  O202  1  0.24987606  0.59237463  0.79935307  1  -1.167475  0  -0.31968  -0.544381  0  2.337664  0
O  O203  1  0.50023136  0.99973221  0.99988875  1  -1.229419  0  -0.570004  -1.030855  0  2.517483  0
O  O204  1  0.50211064  0.15922495  0.94980337  1  -1.165305  0  -0.317949  -0.541878  0  2.329775  0
O  O205  1  0.38880749  0.99473068  0.94046753  1  -1.176108  0  -0.306946  -0.532129  0  2.345747  0
O  O206  1  0.65347575  0.89255525  0.94692860  1  -1.17277  0  -0.320159  -0.545919  0  2.323777  0
O  O207  1  0.39037962  0.15233444  0.94560016  1  -1.168709  0  -0.313093  -0.535787  0  2.38099  0
O  O208  1  0.65393589  0.00726652  0.95029250  1  -1.167884  0  -0.314276  -0.53993  0  2.382438  0
O  O209  1  0.49701016  0.88438648  0.94154204  1  -1.175867  0  -0.30983  -0.54267  0  2.319412  0
O  O210  1  0.57758396  0.81596762  0.02341078  1  -1.153771  0  -0.319902  -0.545198  0  2.324633  0
O  O211  1  0.53014565  0.03336726  0.08627685  1  -1.174212  0  -0.309408  -0.540615  0  2.329461  0
O  O212  1  0.52556600  0.87677811  0.08105929  1  -1.169953  0  -0.31572  -0.542271  0  2.380137  0
O  O213  1  0.58283939  0.08900905  0.03097527  1  -1.168691  0  -0.306529  -0.531909  0  2.336713  0
O  O214  1  0.31686127  0.07519106  0.02100123  1  -1.154827  0  -0.312849  -0.536303  0  2.389422  0
O  O215  1  0.37295562  0.02804368  0.08068400  1  -1.167391  0  -0.31978  -0.544347  0  2.326259  0
O  O216  1  0.79691877  0.59545369  0.38622174  1  -1.22522  0  -0.370093  -0.537881  0  2.193763  0
O  O217  1  0.68883799  0.56604555  0.38782932  1  -1.293389  0  -0.311467  -0.508054  0  2.099549  0
O  O218  1  0.75395245  0.53184450  0.45130621  1  -1.253079  0  -0.323057  -0.541913  0  2.140885  0
O  O219  1  0.09603677  0.72026193  0.50903023  1  -1.24537  0  -0.369692  -0.529492  0  2.156508  0
O  O220  1  0.21677895  0.70803661  0.52499206  1  -1.282318  0  -0.313283  -0.512248  0  2.101053  0
O  O221  1  0.20669002  0.59347674  0.50975433  1  -1.293877  0  -0.322541  -0.5462  0  2.169379  0
O  O222  1  0.80278443  0.17952463  0.09204490  1  -1.216353  0  -0.368171  -0.527333  0  2.157291  0
O  O223  1  0.71988966  0.23107192  0.03792567  1  -1.248459  0  -0.313079  -0.511417  0  2.102761  0
O  O224  1  0.68309502  0.29708287  0.10086175  1  -1.298365  0  -0.323098  -0.547187  0  2.17215  0
O  O225  1  0.15495405  0.95296549  0.86345699  1  -1.218475  0  -0.368356  -0.528029  0  2.153864  0
O  O226  1  0.18577080  0.05880911  0.86478774  1  -1.286426  0  -0.312971  -0.512705  0  2.104674  0
O  O227  1  0.21919193  0.99922293  0.79976316  1  -1.270327  0  -0.32506  -0.542826  0  2.134035  0
