# generated using pymatgen
data_ZnH24C29(NO2)2
_symmetry_space_group_name_H-M   'P 1'
_cell_length_a   15.53257934
_cell_length_b   16.65201332
_cell_length_c   17.75541548
_cell_angle_alpha   87.50214700
_cell_angle_beta   86.55505726
_cell_angle_gamma   69.32990630
_symmetry_Int_Tables_number   1
_chemical_formula_structural   ZnH24C29(NO2)2
_chemical_formula_sum   'Zn2 H48 C58 N4 O8'
_cell_volume   4287.79938598
_cell_formula_units_Z   2
loop_
 _symmetry_equiv_pos_site_id
 _symmetry_equiv_pos_as_xyz
  1  'x, y, z'
loop_
 _atom_site_type_symbol
 _atom_site_label
 _atom_site_symmetry_multiplicity
 _atom_site_fract_x
 _atom_site_fract_y
 _atom_site_fract_z
 _atom_site_occupancy
 _atom_site_pbe_bader_charge
 _atom_site_pbe_bader_spin_density
 _atom_site_pbe_cm5_charge
 _atom_site_pbe_ddec_charge
 _atom_site_pbe_ddec_spin_density
 _atom_site_pbe_ddec_sum_bond_order
 _atom_site_pbe_magmom
Zn  Zn0  1  0.50434214  0.58566934  0.49389204  1  1.30079  0  0.674656  0.84276  0  2.376165  0
Zn  Zn1  1  0.50859524  0.40954163  0.50585393  1  1.299372  0  0.673454  0.842973  0  2.37132  0
H  H2  1  0.89909869  0.73090814  0.45823723  1  0.072034  0  0.096964  0.091886  0  1.057266  0
H  H3  1  0.12099764  0.27370887  0.41841607  1  0.054764  0  0.096168  0.085655  0  1.027508  0
H  H4  1  0.40486907  0.88480424  0.58976464  1  0.06314  0  0.113904  0.124774  0  0.983239  0
H  H5  1  0.58658708  0.11307325  0.40834914  1  0.097983  0  0.113205  0.124114  0  0.984002  0
H  H6  1  0.41439210  0.73230178  0.57570876  1  0.133944  0  0.126828  0.107574  0  0.985706  0
H  H7  1  0.57954243  0.26543752  0.41740698  1  0.139373  0  0.126001  0.107382  0  0.988813  0
H  H8  1  0.77834657  0.53233876  0.46799119  1  0.088308  0  0.098744  0.106565  0  1.050446  0
H  H9  1  0.23986798  0.46705844  0.45797472  1  0.082969  0  0.101018  0.104167  0  1.049961  0
H  H10  1  0.80958814  0.26838952  0.45844725  1  0.044618  0  0.097889  0.108459  0  1.042103  0
H  H11  1  0.20391360  0.73026067  0.48602583  1  0.091299  0  0.098882  0.110925  0  1.018261  0
H  H12  1  0.83057516  0.62037575  0.45225878  1  0.050027  0  0.096846  0.094682  0  1.040186  0
H  H13  1  0.18765937  0.38378923  0.42150962  1  0.03074  0  0.101574  0.103906  0  1.011088  0
H  H14  1  0.36700716  0.64052522  0.13428588  1  0.057719  0  0.103671  0.105583  0  0.992637  0
H  H15  1  0.47822781  0.37948432  0.88073598  1  0.072214  0  0.102676  0.104612  0  0.994156  0
H  H16  1  0.39315040  0.63056395  0.27249904  1  0.068977  0  0.106718  0.109371  0  0.999279  0
H  H17  1  0.50759717  0.37738691  0.74069380  1  0.090631  0  0.105004  0.108176  0  1.008444  0
H  H18  1  0.54400312  0.36049853  0.25608097  1  0.107178  0  0.103345  0.106127  0  1.000413  0
H  H19  1  0.46248460  0.64677760  0.73642114  1  0.082735  0  0.103757  0.106779  0  1.002197  0
H  H20  1  0.52203457  0.36966967  0.11708537  1  0.062534  0  0.103043  0.10511  0  0.992497  0
H  H21  1  0.43190794  0.65060368  0.87647702  1  0.070082  0  0.103219  0.10513  0  0.992938  0
H  H22  1  0.51460162  0.67885582  0.31123306  1  0.049862  0  0.088303  0.126158  0  1.033262  0
H  H23  1  0.56594265  0.75624675  0.28168965  1  0.001624  0  0.079897  0.099451  0  1.024874  0
H  H24  1  0.62434012  0.64538509  0.26331023  1  0.04965  0  0.093221  0.127809  0  0.983777  0
H  H25  1  0.69301647  0.68484828  0.37349854  1  0.028832  0  0.096075  0.094885  0  0.990498  0
H  H26  1  0.63899064  0.61048052  0.40123212  1  0.110704  0  0.103715  0.11892  0  1.021526  0
H  H27  1  0.25992475  0.30457745  0.60295049  1  0.007373  0  0.081119  0.100432  0  1.026361  0
H  H28  1  0.24651235  0.39972024  0.65162643  1  0.023471  0  0.094056  0.127983  0  0.982785  0
H  H29  1  0.27991050  0.39259812  0.55439029  1  0.058973  0  0.087309  0.123289  0  1.04472  0
H  H30  1  0.39780605  0.28939292  0.68317428  1  0.024106  0  0.096102  0.094069  0  0.986898  0
H  H31  1  0.41521712  0.37479496  0.63008377  1  0.101329  0  0.102894  0.117845  0  1.030917  0
H  H32  1  0.69627815  0.89257189  0.48277448  1  0.043706  0  0.086304  0.1158  0  1.01213  0
H  H33  1  0.75274653  0.78531230  0.45377661  1  0.043768  0  0.08906  0.120283  0  1.020251  0
H  H34  1  0.76195579  0.87183504  0.39557271  1  0.018955  0  0.088577  0.117872  0  1.004165  0
H  H35  1  0.64976482  0.81742372  0.34133077  1  0.050828  0  0.098381  0.096281  0  0.996802  0
H  H36  1  0.59080908  0.92133012  0.37574214  1  0.018337  0  0.09333  0.088636  0  0.986525  0
H  H37  1  0.53507608  0.04276925  0.67340773  1  0.049761  0  0.087356  0.115555  0  1.005813  0
H  H38  1  0.50099737  0.14238131  0.71967197  1  0.060423  0  0.088111  0.114467  0  1.0049  0
H  H39  1  0.44227376  0.06947360  0.74263081  1  0.042391  0  0.090751  0.120362  0  0.993791  0
H  H40  1  0.34636945  0.18777025  0.65885672  1  0.044548  0  0.09871  0.096738  0  0.99631  0
H  H41  1  0.38254302  0.08906800  0.61227860  1  0.048148  0  0.092558  0.088486  0  0.992055  0
H  H42  1  0.05726713  0.83097990  0.48083700  1  0.380919  0  0.298597  0.239771  0  0.949166  0
H  H43  1  0.93628505  0.89835127  0.39631570  1  0.041733  0  0.095885  0.099982  0  0.993026  0
H  H44  1  0.94643472  0.79511450  0.36574191  1  0.0603  0  0.100174  0.10738  0  1.01406  0
H  H45  1  0.03787447  0.83420248  0.34385071  1  0.012977  0  0.084978  0.081568  0  0.998385  0
H  H46  1  0.05282528  0.19943460  0.39870768  1  0.43516  0  0.304354  0.242035  0  0.9734  0
H  H47  1  0.01103843  0.08078955  0.41385922  1  0.059807  0  0.102642  0.105479  0  0.986236  0
H  H48  1  0.90515342  0.15398063  0.37945101  1  0.019599  0  0.090281  0.086523  0  0.994539  0
H  H49  1  0.91863059  0.13462386  0.47835397  1  0.051201  0  0.101911  0.107792  0  0.979509  0
C  C50  1  0.50304356  0.50943694  0.64611488  1  1.548685  0  0.21534  0.593635  0  4.170739  0
C  C51  1  0.49019591  0.49085175  0.35435188  1  1.574816  0  0.213875  0.58913  0  4.177708  0
C  C52  1  0.90527841  0.60164942  0.44880101  1  0.023223  0  -0.0966  -0.13467  0  4.028432  0
C  C53  1  0.11307086  0.40232306  0.42796747  1  -0.00165  0  -0.095034  -0.130957  0  4.026601  0
C  C54  1  0.94329108  0.66415293  0.45145579  1  -0.133803  0  -0.099538  -0.1367  0  4.051087  0
C  C55  1  0.07460336  0.33991030  0.42558877  1  -0.095046  0  -0.100744  -0.136096  0  4.063041  0
C  C56  1  0.40644807  0.57939692  0.16096460  1  -0.088489  0  -0.086239  -0.130633  0  3.958806  0
C  C57  1  0.47441847  0.43801238  0.84888824  1  -0.035561  0  -0.087595  -0.133192  0  3.9638  0
C  C58  1  0.42088870  0.57392544  0.23776390  1  0.017421  0  -0.082874  -0.093242  0  3.998366  0
C  C59  1  0.49074377  0.43676749  0.77118200  1  0.008665  0  -0.085699  -0.091052  0  3.99755  0
C  C60  1  0.47164024  0.49532842  0.27217165  1  -0.072334  0  -0.015155  -0.024249  0  3.958662  0
C  C61  1  0.48675299  0.51186809  0.73018388  1  0.009612  0  -0.016315  -0.029604  0  3.955962  0
C  C62  1  0.50579053  0.42148212  0.22859724  1  0.022208  0  -0.08593  -0.094827  0  4.004031  0
C  C63  1  0.46525546  0.58880264  0.76869277  1  -0.087477  0  -0.08451  -0.090662  0  3.997932  0
C  C64  1  0.49311359  0.42650687  0.15152600  1  -0.05619  0  -0.086384  -0.130565  0  3.958648  0
C  C65  1  0.44824140  0.59089288  0.84646433  1  0.00634  0  -0.086228  -0.130968  0  3.956015  0
C  C66  1  0.44437921  0.50601766  0.11611623  1  0.131577  0  -0.001052  0.139943  0  4.120412  0
C  C67  1  0.45332520  0.51519269  0.88806835  1  0.080104  0  0.00056  0.142592  0  4.118248  0
C  C68  1  0.43866774  0.51178351  0.03668176  1  -0.227647  0  -0.047955  -0.111988  0  4.129017  0
C  C69  1  0.44194507  0.51493015  0.96774581  1  -0.194811  0  -0.048619  -0.113593  0  4.129286  0
C  C70  1  0.45102885  0.84420369  0.54698704  1  0.016596  0  -0.081507  -0.182934  0  3.96937  0
C  C71  1  0.54790975  0.15302618  0.45464624  1  0.012466  0  -0.081471  -0.181854  0  3.970366  0
C  C72  1  0.32782285  0.56813832  0.49622603  1  1.60064  0  0.211831  0.593346  0  4.162659  0
C  C73  1  0.68499050  0.42747492  0.48206838  1  1.582648  0  0.215122  0.599627  0  4.144112  0
C  C74  1  0.45587861  0.76043634  0.53938557  1  0.459796  0  0.049553  0.099551  0  3.960756  0
C  C75  1  0.54393982  0.23689774  0.45918209  1  0.430558  0  0.048186  0.094713  0  3.965719  0
C  C76  1  0.56691195  0.73718651  0.43940528  1  0.504256  0  0.134861  0.225069  0  3.87267  0
C  C77  1  0.44855469  0.25928405  0.56941891  1  0.512712  0  0.136294  0.227635  0  3.866998  0
C  C78  1  0.56642813  0.82173483  0.44328070  1  0.040402  0  0.007525  -0.00254  0  3.834106  0
C  C79  1  0.45138287  0.17363449  0.57053204  1  -0.048041  0  0.008126  -0.002366  0  3.835467  0
C  C80  1  0.50721209  0.87593436  0.49842646  1  0.062756  0  0.01493  0.115958  0  4.103214  0
C  C81  1  0.50115271  0.12010814  0.51123324  1  0.122713  0  0.014008  0.113918  0  4.105639  0
C  C82  1  0.50439267  0.96130753  0.50432759  1  0.038247  0  -0.026099  -0.085373  0  4.087601  0
C  C83  1  0.50344915  0.03462230  0.50791155  1  -0.402873  0  -0.025164  -0.083941  0  4.087214  0
C  C84  1  0.22874796  0.59515586  0.47713925  1  -0.015275  0  -0.022093  -0.010284  0  4.016931  0
C  C85  1  0.78664677  0.40288221  0.46464941  1  -0.037956  0  -0.023633  -0.008866  0  4.029241  0
C  C86  1  0.08007118  0.70767591  0.46090768  1  0.387889  0  0.085649  0.177014  0  4.043134  0
C  C87  1  0.93702190  0.29373102  0.43858017  1  0.361445  0  0.093078  0.185844  0  4.063327  0
C  C88  1  0.17268493  0.68268323  0.47568063  1  -0.105463  0  -0.104327  -0.221946  0  3.993983  0
C  C89  1  0.84246001  0.31639658  0.45401838  1  0.04057  0  -0.1139  -0.234628  0  3.980984  0
C  C90  1  0.19299416  0.53326322  0.45941369  1  -0.021033  0  -0.092983  -0.164722  0  3.973859  0
C  C91  1  0.82445277  0.46692445  0.45875045  1  -0.010859  0  -0.104524  -0.182001  0  3.988768  0
C  C92  1  0.09851439  0.55516741  0.44739888  1  -0.054161  0  -0.004371  0.044033  0  3.969302  0
C  C93  1  0.91989024  0.44702937  0.44451002  1  -0.030419  0  -0.005994  0.048345  0  3.979725  0
C  C94  1  0.04033055  0.64332160  0.45141268  1  0.043668  0  -0.010824  0.002151  0  3.960611  0
C  C95  1  0.97779033  0.35935220  0.43538750  1  -0.00749  0  -0.0158  -0.017954  0  3.979977  0
C  C96  1  0.05786351  0.49017928  0.43835222  1  0.028264  0  -0.004005  0.035834  0  3.954965  0
C  C97  1  0.96076733  0.51306975  0.44283322  1  -0.07915  0  -0.00362  0.038157  0  3.951618  0
C  C98  1  0.62573961  0.67667137  0.38074725  1  -0.034569  0  -0.162059  -0.192948  0  3.958768  0
C  C99  1  0.57973893  0.69072442  0.30460327  1  -0.056896  0  -0.243025  -0.346598  0  3.942454  0
C  C100  1  0.39005241  0.32132440  0.62714782  1  -0.03619  0  -0.162995  -0.195566  0  3.964116  0
C  C101  1  0.28801156  0.35606103  0.60790164  1  -0.02949  0  -0.240824  -0.341364  0  3.93283  0
C  C102  1  0.62912272  0.85450181  0.39305597  1  0.010831  0  -0.160007  -0.14367  0  3.995182  0
C  C103  1  0.71507999  0.85096858  0.43362874  1  -0.075262  0  -0.24054  -0.351368  0  3.935832  0
C  C104  1  0.40697680  0.13744106  0.63446469  1  0.001522  0  -0.159678  -0.144237  0  3.99062  0
C  C105  1  0.47534216  0.09553333  0.69622392  1  -0.131597  0  -0.239146  -0.349698  0  3.950513  0
C  C106  1  0.98464238  0.83257380  0.38758254  1  0.25155  0  -0.144662  -0.21802  0  4.003945  0
C  C107  1  0.95467562  0.14177578  0.42459085  1  0.285817  0  -0.135549  -0.206568  0  4.027005  0
N  N108  1  0.51219488  0.70826916  0.48703862  1  -1.222997  0  -0.311935  -0.24793  0  3.458004  0
N  N109  1  0.49515918  0.28899522  0.51479002  1  -1.222405  0  -0.311641  -0.247043  0  3.453775  0
N  N110  1  0.02326030  0.79524300  0.45985283  1  -1.09956  0  -0.468054  -0.33693  0  3.484424  0
N  N111  1  0.99309901  0.20880526  0.42922332  1  -1.210806  0  -0.45725  -0.306032  0  3.607094  0
O  O112  1  0.50253594  0.57792153  0.61124861  1  -1.162078  0  -0.316457  -0.549733  0  2.319951  0
O  O113  1  0.50907563  0.41816788  0.38826644  1  -1.168044  0  -0.319562  -0.556637  0  2.32654  0
O  O114  1  0.51515570  0.43790132  0.61575371  1  -1.179526  0  -0.31755  -0.55539  0  2.373132  0
O  O115  1  0.48551096  0.56088156  0.38363940  1  -1.171569  0  -0.311124  -0.547431  0  2.351027  0
O  O116  1  0.36138727  0.62676958  0.50396562  1  -1.170569  0  -0.323429  -0.552422  0  2.303343  0
O  O117  1  0.65126570  0.36814956  0.49178269  1  -1.165048  0  -0.319676  -0.541228  0  2.283465  0
O  O118  1  0.37148503  0.48751110  0.50303853  1  -1.184569  0  -0.318299  -0.560273  0  2.360356  0
O  O119  1  0.63913921  0.50796210  0.48559805  1  -1.191011  0  -0.320908  -0.565557  0  2.387762  0
