# generated using pymatgen
data_H16PbC17SN2O7
_symmetry_space_group_name_H-M   'P 1'
_cell_length_a   8.09360967
_cell_length_b   9.47572489
_cell_length_c   12.45503395
_cell_angle_alpha   89.57836652
_cell_angle_beta   80.78985684
_cell_angle_gamma   78.62823581
_symmetry_Int_Tables_number   1
_chemical_formula_structural   H16PbC17SN2O7
_chemical_formula_sum   'H32 Pb2 C34 S2 N4 O14'
_cell_volume   924.09742071
_cell_formula_units_Z   2
loop_
 _symmetry_equiv_pos_site_id
 _symmetry_equiv_pos_as_xyz
  1  'x, y, z'
loop_
 _atom_site_type_symbol
 _atom_site_label
 _atom_site_symmetry_multiplicity
 _atom_site_fract_x
 _atom_site_fract_y
 _atom_site_fract_z
 _atom_site_occupancy
 _atom_site_hle17_bader_spin_density
 _atom_site_hle17_ddec_charge
 _atom_site_hle17_ddec_spin_density
 _atom_site_hle17_ddec_sum_bond_order
 _atom_site_hle17_magmom
 _atom_site_hse06_10hf_bader_spin_density
 _atom_site_hse06_10hf_ddec_charge
 _atom_site_hse06_10hf_ddec_spin_density
 _atom_site_hse06_10hf_ddec_sum_bond_order
 _atom_site_hse06_10hf_magmom
 _atom_site_hse06_bader_spin_density
 _atom_site_hse06_ddec_charge
 _atom_site_hse06_ddec_spin_density
 _atom_site_hse06_ddec_sum_bond_order
 _atom_site_hse06_magmom
 _atom_site_pbe_bader_spin_density
 _atom_site_pbe_cm5_charge
 _atom_site_pbe_ddec_charge
 _atom_site_pbe_ddec_spin_density
 _atom_site_pbe_ddec_sum_bond_order
 _atom_site_pbe_magmom
H  H0  1  0.92506163  0.04630764  0.87860898  1  0  0.11715  0  0.946778  0  0  0.124633  0  1.010247  0  0  0.128684  0  1.006916  0  0  0.110634  0.121873  0  1.012158  0
H  H1  1  0.07493589  0.95369763  0.12139407  1  0  0.117227  0  0.946713  0  0  0.124731  0  1.010158  0  0  0.128783  0  1.006824  0  0  0.110665  0.121969  0  1.01207  0
H  H2  1  0.40390773  0.15849056  0.82092538  1  0  0.110654  0  0.947865  0  0  0.119355  0  1.011596  0  0  0.122967  0  1.008681  0  0  0.10714  0.116621  0  1.01387  0
H  H3  1  0.59609035  0.84150716  0.17907446  1  0  0.11065  0  0.947801  0  0  0.11933  0  1.01157  0  0  0.122941  0  1.008656  0  0  0.107139  0.116598  0  1.013843  0
H  H4  1  0.36625539  0.90783085  0.86804708  1  0  0.102503  0  0.953438  0  0  0.113724  0  1.010791  0  0  0.116629  0  1.010093  0  0  0.106088  0.111381  0  1.011884  0
H  H5  1  0.63374769  0.09216690  0.13195545  1  0  0.102499  0  0.953438  0  0  0.113713  0  1.010801  0  0  0.116618  0  1.010104  0  0  0.106077  0.111371  0  1.011894  0
H  H6  1  0.60875038  0.72761887  0.91332335  1  0  0.097492  0  0.959323  0  0  0.103563  0  1.031378  0  0  0.107299  0  1.027592  0  0  0.105454  0.101557  0  1.032897  0
H  H7  1  0.39125416  0.27238320  0.08668140  1  0  0.097475  0  0.95932  0  0  0.103554  0  1.03136  0  0  0.107298  0  1.02755  0  0  0.105432  0.101548  0  1.03289  0
H  H8  1  0.40065879  0.68384372  0.69783449  1  0  0.387682  0  0.933708  0  0  0.341562  0  1.02152  0  0  0.354326  0  1.00351  0  0  0.274815  0.332567  0  1.034205  0
H  H9  1  0.59934431  0.31615399  0.30216082  1  0  0.387712  0  0.933662  0  0  0.341599  0  1.021472  0  0  0.354362  0  1.003463  0  0  0.274821  0.332602  0  1.034161  0
H  H10  1  0.50790827  0.52438390  0.72402007  1  0  0.417164  0  0.879782  0  0  0.389012  0  0.938236  0  0  0.399353  0  0.923168  0  0  0.290733  0.381479  0  0.949178  0
H  H11  1  0.49209330  0.47561491  0.27597940  1  0  0.417118  0  0.879862  0  0  0.388954  0  0.938339  0  0  0.399295  0  0.923271  0  0  0.2907  0.381424  0  0.949277  0
H  H12  1  0.07970063  0.33841570  0.81534339  1  0  0.430006  0  0.864489  0  0  0.403745  0  0.920184  0  0  0.413529  0  0.906089  0  0  0.296215  0.39686  0  0.930088  0
H  H13  1  0.92029745  0.66158203  0.18465886  1  0  0.430065  0  0.864422  0  0  0.403804  0  0.920117  0  0  0.413588  0  0.906022  0  0  0.296235  0.396919  0  0.930021  0
H  H14  1  0.14725677  0.43616086  0.72384318  1  0  0.374214  0  0.954937  0  0  0.329501  0  1.040457  0  0  0.342048  0  1.022978  0  0  0.273676  0.320752  0  1.05259  0
H  H15  1  0.85274104  0.56383795  0.27616149  1  0  0.374171  0  0.955  0  0  0.329433  0  1.040551  0  0  0.341981  0  1.02307  0  0  0.273648  0.320686  0  1.052681  0
H  H16  1  0.05002598  0.13925074  0.68154418  1  0  0.112161  0  0.970423  0  0  0.120865  0  1.033529  0  0  0.124108  0  1.032357  0  0  0.106476  0.11855  0  1.034433  0
H  H17  1  0.94997289  0.86074374  0.31845319  1  0  0.112188  0  0.970457  0  0  0.12089  0  1.033566  0  0  0.12413  0  1.032392  0  0  0.106477  0.118576  0  1.034473  0
H  H18  1  0.17871816  0.91152093  0.76146409  1  0  0.085243  0  0.978981  0  0  0.092826  0  1.043795  0  0  0.095689  0  1.041358  0  0  0.112637  0.090676  0  1.045713  0
H  H19  1  0.82128696  0.08847356  0.23853183  1  0  0.085225  0  0.978982  0  0  0.092787  0  1.043803  0  0  0.095646  0  1.041372  0  0  0.112603  0.090635  0  1.045728  0
H  H20  1  0.47900679  0.76505248  0.46672848  1  0  0.079488  0  0.917078  0  0  0.092285  0  0.972052  0  0  0.094671  0  0.970173  0  0  0.116569  0.090483  0  0.973508  0
H  H21  1  0.52099231  0.23494628  0.53326402  1  0  0.079476  0  0.916994  0  0  0.092278  0  0.971964  0  0  0.094665  0  0.970085  0  0  0.116587  0.090477  0  0.973421  0
H  H22  1  0.35190103  0.97848183  0.37178899  1  0  0.1055  0  0.967403  0  0  0.115184  0  1.030861  0  0  0.117346  0  1.031813  0  0  0.104559  0.113648  0  1.030222  0
H  H23  1  0.64809827  0.02152127  0.62820747  1  0  0.105405  0  0.967515  0  0  0.115095  0  1.030971  0  0  0.11726  0  1.03192  0  0  0.104523  0.113548  0  1.03034  0
H  H24  1  0.87479454  0.25808326  0.58485842  1  0  0.110985  0  0.983019  0  0  0.117319  0  1.051046  0  0  0.120584  0  1.049666  0  0  0.104504  0.115011  0  1.052036  0
H  H25  1  0.12520608  0.74190908  0.41514281  1  0  0.111039  0  0.983068  0  0  0.117331  0  1.051129  0  0  0.120597  0  1.049749  0  0  0.104503  0.115025  0  1.05212  0
H  H26  1  0.74151925  0.46240274  0.48486564  1  0  0.071661  0  0.916595  0  0  0.085233  0  0.972152  0  0  0.087545  0  0.970312  0  0  0.115483  0.083647  0  0.973356  0
H  H27  1  0.25848028  0.53759934  0.51514445  1  0  0.071669  0  0.916662  0  0  0.085254  0  0.972186  0  0  0.087566  0  0.970349  0  0  0.115448  0.083668  0  0.973394  0
H  H28  1  0.16512633  0.41849987  0.24338503  1  0  0.081893  0  0.946844  0  0  0.087928  0  1.016177  0  0  0.090713  0  1.013526  0  0  0.113617  0.086031  0  1.017791  0
H  H29  1  0.83486692  0.58150755  0.75661844  1  0  0.082001  0  0.946806  0  0  0.087976  0  1.016214  0  0  0.090763  0  1.01356  0  0  0.113627  0.086075  0  1.017826  0
H  H30  1  0.31974616  0.20916874  0.33202979  1  0  0.104927  0  0.980014  0  0  0.112157  0  1.047349  0  0  0.114923  0  1.047328  0  0  0.103924  0.1101  0  1.047641  0
H  H31  1  0.68025037  0.79083544  0.66797015  1  0  0.104994  0  0.979993  0  0  0.112222  0  1.04734  0  0  0.114981  0  1.047323  0  0  0.103959  0.110162  0  1.047632  0
Pb  Pb32  1  0.24785516  0.53737375  0.92564050  1  0  1.442173  0  1.347467  0  0  1.273454  0  1.743343  0  0  1.332762  0  1.695653  0  0  0.662301  1.230397  0  1.776199  0
Pb  Pb33  1  0.75214566  0.46262827  0.07435500  1  0  1.442188  0  1.34741  0  0  1.273469  0  1.743264  0  0  1.332772  0  1.695593  0  0  0.662307  1.230418  0  1.776121  0
C  C34  1  0.78374194  0.87430353  0.89667484  1  0  -0.069864  0  3.755044  0  0  -0.04259  0  3.986083  0  0  -0.052664  0  4.009415  0  0  -0.017389  -0.036311  0  3.97057  0
C  C35  1  0.21625959  0.12570069  0.10332941  1  0  -0.06979  0  3.755115  0  0  -0.042448  0  3.986014  0  0  -0.052527  0  4.009358  0  0  -0.017327  -0.03617  0  3.970502  0
C  C36  1  0.80384137  0.01540946  0.87402732  1  0  -0.05802  0  3.716308  0  0  -0.097462  0  3.965788  0  0  -0.093614  0  3.983832  0  0  -0.076076  -0.099425  0  3.953183  0
C  C37  1  0.19615791  0.98459367  0.12597797  1  0  -0.058153  0  3.716455  0  0  -0.097634  0  3.965887  0  0  -0.093786  0  3.983936  0  0  -0.07611  -0.099588  0  3.953276  0
C  C38  1  0.66723082  0.11540875  0.84722868  1  0  -0.134578  0  3.765183  0  0  -0.103991  0  4.012449  0  0  -0.112953  0  4.034654  0  0  -0.022184  -0.098248  0  3.997702  0
C  C39  1  0.33276924  0.88459113  0.15277334  1  0  -0.134617  0  3.765212  0  0  -0.104033  0  4.012483  0  0  -0.112995  0  4.034691  0  0  -0.022233  -0.09829  0  3.99774  0
C  C40  1  0.50902645  0.07831119  0.84293524  1  0  -0.052263  0  3.716313  0  0  -0.079039  0  3.966179  0  0  -0.076283  0  3.98405  0  0  -0.076688  -0.080835  0  3.954398  0
C  C41  1  0.49097387  0.92168763  0.15706676  1  0  -0.052171  0  3.716229  0  0  -0.078937  0  3.966102  0  0  -0.076181  0  3.983975  0  0  -0.076664  -0.080737  0  3.954329  0
C  C42  1  0.48896075  0.93841932  0.86821096  1  0  -0.066486  0  3.731168  0  0  -0.079351  0  3.987001  0  0  -0.084047  0  4.00834  0  0  -0.085055  -0.076491  0  3.97324  0
C  C43  1  0.51104083  0.06157950  0.13179172  1  0  -0.06647  0  3.731123  0  0  -0.079337  0  3.986938  0  0  -0.084034  0  4.008279  0  0  -0.085031  -0.076468  0  3.973176  0
C  C44  1  0.62517799  0.83695879  0.89508462  1  0  -0.046162  0  3.707674  0  0  -0.074479  0  3.959665  0  0  -0.071196  0  3.977642  0  0  -0.073587  -0.076244  0  3.946969  0
C  C45  1  0.37482280  0.16304327  0.10492133  1  0  -0.046216  0  3.707629  0  0  -0.074538  0  3.959572  0  0  -0.071252  0  3.977554  0  0  -0.073592  -0.076306  0  3.946869  0
C  C46  1  0.93509648  0.76459897  0.91702327  1  0  0.649786  0  3.926255  0  0  0.599245  0  4.214023  0  0  0.634816  0  4.207866  0  0  0.209575  0.57507  0  4.217407  0
C  C47  1  0.06490506  0.23540522  0.08297536  1  0  0.649702  0  3.926393  0  0  0.599139  0  4.214169  0  0  0.634712  0  4.208013  0  0  0.209495  0.574971  0  4.217549  0
C  C48  1  0.18950675  0.08025095  0.51843167  1  0  0.091653  0  3.757366  0  0  0.102575  0  3.987804  0  0  0.106135  0  4.009594  0  0  0.011214  0.100037  0  3.973394  0
C  C49  1  0.81049384  0.91974676  0.48156389  1  0  0.091685  0  3.757324  0  0  0.102629  0  3.987746  0  0  0.106191  0  4.009536  0  0  0.011265  0.100099  0  3.973322  0
C  C50  1  0.14283501  0.05865176  0.62990545  1  0  -0.153809  0  3.68702  0  0  -0.169531  0  3.930022  0  0  -0.17697  0  3.952005  0  0  -0.082111  -0.164577  0  3.915447  0
C  C51  1  0.85716511  0.94134272  0.37009180  1  0  -0.154009  0  3.687189  0  0  -0.169745  0  3.93019  0  0  -0.17718  0  3.952166  0  0  -0.082218  -0.164801  0  3.915628  0
C  C52  1  0.21798041  0.93291700  0.67584362  1  0  0.120414  0  3.709074  0  0  0.093008  0  3.9601  0  0  0.097908  0  3.979695  0  0  0.04412  0.089819  0  3.947041  0
C  C53  1  0.78202346  0.06707748  0.32415243  1  0  0.120529  0  3.709093  0  0  0.093173  0  3.960101  0  0  0.098077  0  3.979693  0  0  0.044235  0.08998  0  3.947063  0
C  C54  1  0.38341577  0.85020380  0.51235571  1  0  0.125499  0  3.743579  0  0  0.093935  0  4.006482  0  0  0.100261  0  4.023742  0  0  0.045884  0.08993  0  3.994501  0
C  C55  1  0.61658431  0.14979605  0.48763828  1  0  0.125611  0  3.743291  0  0  0.09407  0  4.006204  0  0  0.100393  0  4.02347  0  0  0.0459  0.090062  0  3.994222  0
C  C56  1  0.31242088  0.97133392  0.45913520  1  0  -0.155563  0  3.698126  0  0  -0.17364  0  3.94758  0  0  -0.180555  0  3.969131  0  0  -0.082618  -0.169042  0  3.933026  0
C  C57  1  0.68757894  0.02866701  0.54086042  1  0  -0.155512  0  3.698036  0  0  -0.173618  0  3.947506  0  0  -0.180534  0  3.969055  0  0  -0.082578  -0.169007  0  3.932945  0
C  C58  1  0.10930334  0.21053188  0.46573605  1  0  0.08848  0  3.755692  0  0  0.100345  0  3.985911  0  0  0.103461  0  4.007799  0  0  0.0093  0.098502  0  3.971183  0
C  C59  1  0.89069375  0.78946475  0.53426390  1  0  0.08856  0  3.75562  0  0  0.100397  0  3.985845  0  0  0.103513  0  4.007733  0  0  0.009225  0.098553  0  3.971106  0
C  C60  1  0.94634017  0.28778168  0.50948509  1  0  -0.148402  0  3.694407  0  0  -0.170345  0  3.949657  0  0  -0.176882  0  3.971024  0  0  -0.083061  -0.166335  0  3.935936  0
C  C61  1  0.05366042  0.71221605  0.49051610  1  0  -0.148516  0  3.694337  0  0  -0.170414  0  3.949559  0  0  -0.176951  0  3.970928  0  0  -0.083058  -0.166407  0  3.935844  0
C  C62  1  0.87004750  0.40342291  0.45332298  1  0  0.134754  0  3.731064  0  0  0.100102  0  3.995517  0  0  0.106486  0  4.012899  0  0  0.046319  0.095862  0  3.983827  0
C  C63  1  0.12995130  0.59657700  0.54668399  1  0  0.134686  0  3.730859  0  0  0.100053  0  3.995282  0  0  0.106432  0  4.012667  0  0  0.046348  0.095807  0  3.983602  0
C  C64  1  0.10556847  0.37845166  0.31917994  1  0  0.126402  0  3.711305  0  0  0.09653  0  3.966158  0  0  0.101604  0  3.985413  0  0  0.043895  0.093188  0  3.952916  0
C  C65  1  0.89442732  0.62155038  0.68082492  1  0  0.126336  0  3.711252  0  0  0.096518  0  3.966068  0  0  0.101592  0  3.985319  0  0  0.043936  0.09318  0  3.95281  0
C  C66  1  0.19093206  0.26056106  0.36905409  1  0  -0.165684  0  3.710468  0  0  -0.18213  0  3.955707  0  0  -0.189763  0  3.978962  0  0  -0.084722  -0.176945  0  3.939754  0
C  C67  1  0.80906349  0.73944203  0.63094516  1  0  -0.165743  0  3.710457  0  0  -0.182167  0  3.955617  0  0  -0.189797  0  3.978875  0  0  -0.084672  -0.176979  0  3.939654  0
S  S68  1  0.69090474  0.29632549  0.82551670  1  0  1.311702  0  5.651382  0  0  1.20946  0  6.171135  0  0  1.258309  0  6.148232  0  0  0.519156  1.175839  0  6.185799  0
S  S69  1  0.30909506  0.70367547  0.17448453  1  0  1.311736  0  5.651282  0  0  1.209498  0  6.171019  0  0  1.258345  0  6.148119  0  0  0.51917  1.175864  0  6.185709  0
N  N70  1  0.33793591  0.82985455  0.61901755  1  0  -0.328961  0  3.179168  0  0  -0.266541  0  3.430599  0  0  -0.281236  0  3.447584  0  0  -0.311172  -0.256595  0  3.419085  0
N  N71  1  0.66206343  0.17014315  0.38097734  1  0  -0.329013  0  3.179151  0  0  -0.26663  0  3.430622  0  0  -0.281322  0  3.4476  0  0  -0.311214  -0.256683  0  3.419112  0
N  N72  1  0.94604601  0.44776184  0.35900969  1  0  -0.316647  0  3.188521  0  0  -0.251257  0  3.435027  0  0  -0.265853  0  3.451818  0  0  -0.306485  -0.240946  0  3.423671  0
N  N73  1  0.05395202  0.55224129  0.64099654  1  0  -0.316664  0  3.188358  0  0  -0.251323  0  3.434888  0  0  -0.265915  0  3.451676  0  0  -0.306591  -0.241014  0  3.423535  0
O  O74  1  0.08140061  0.79860536  0.90217316  1  0  -0.636283  0  1.935611  0  0  -0.575308  0  2.162615  0  0  -0.604202  0  2.155247  0  0  -0.300409  -0.555194  0  2.166656  0
O  O75  1  0.91860017  0.20140203  0.09782070  1  0  -0.636293  0  1.935581  0  0  -0.575298  0  2.162573  0  0  -0.604192  0  2.155207  0  0  -0.300382  -0.555189  0  2.166615  0
O  O76  1  0.91386309  0.63756709  0.94427279  1  0  -0.731433  0  2.029713  0  0  -0.655936  0  2.27438  0  0  -0.689527  0  2.267522  0  0  -0.306602  -0.632462  0  2.278337  0
O  O77  1  0.08614799  0.36243387  0.05571925  1  0  -0.731312  0  2.029771  0  0  -0.655857  0  2.27451  0  0  -0.68945  0  2.267653  0  0  -0.30654  -0.632385  0  2.278468  0
O  O78  1  0.57207357  0.38049967  0.91673676  1  0  -0.763994  0  2.044606  0  0  -0.689383  0  2.308466  0  0  -0.719182  0  2.298469  0  0  -0.32507  -0.668151  0  2.313627  0
O  O79  1  0.42792274  0.61950020  0.08326405  1  0  -0.764027  0  2.044577  0  0  -0.689389  0  2.308386  0  0  -0.719192  0  2.298402  0  0  -0.32507  -0.66815  0  2.31355  0
O  O80  1  0.64183922  0.33768569  0.71933945  1  0  -0.66022  0  1.93525  0  0  -0.60658  0  2.175336  0  0  -0.626987  0  2.160504  0  0  -0.332799  -0.592078  0  2.185043  0
O  O81  1  0.35816210  0.66231419  0.28066004  1  0  -0.660173  0  1.935205  0  0  -0.60655  0  2.175325  0  0  -0.62695  0  2.16048  0  0  -0.332818  -0.592043  0  2.185036  0
O  O82  1  0.86912961  0.29951919  0.83339679  1  0  -0.687531  0  1.998499  0  0  -0.633689  0  2.25183  0  0  -0.655082  0  2.236732  0  0  -0.33028  -0.618868  0  2.262014  0
O  O83  1  0.13086946  0.70047962  0.16660535  1  0  -0.687583  0  1.99847  0  0  -0.633755  0  2.251823  0  0  -0.655146  0  2.236724  0  0  -0.330286  -0.618927  0  2.262016  0
O  O84  1  0.42907657  0.61199051  0.75609114  1  0  -0.860594  0  1.869176  0  0  -0.789698  0  2.061444  0  0  -0.814129  0  2.02935  0  0  -0.573103  -0.771978  0  2.083757  0
O  O85  1  0.57092825  0.38801045  0.24390636  1  0  -0.860584  0  1.869199  0  0  -0.789694  0  2.061454  0  0  -0.814127  0  2.029361  0  0  -0.573075  -0.771973  0  2.083767  0
O  O86  1  0.18490667  0.37293551  0.78635672  1  0  -0.843075  0  1.842179  0  0  -0.77655  0  2.029036  0  0  -0.800986  0  1.997216  0  0  -0.564867  -0.759115  0  2.05075  0
O  O87  1  0.81509141  0.62706221  0.21364473  1  0  -0.843117  0  1.842126  0  0  -0.776576  0  2.029018  0  0  -0.801013  0  1.997196  0  0  -0.564877  -0.75914  0  2.050729  0
