# generated using pymatgen
data_BaH7C3S3(NO)3
_symmetry_space_group_name_H-M   'P 1'
_cell_length_a   6.29725460
_cell_length_b   8.76759454
_cell_length_c   17.69678716
_cell_angle_alpha   89.99965369
_cell_angle_beta   90.00008728
_cell_angle_gamma   90.51333964
_symmetry_Int_Tables_number   1
_chemical_formula_structural   BaH7C3S3(NO)3
_chemical_formula_sum   'Ba4 H28 C12 S12 N12 O12'
_cell_volume   977.03181708
_cell_formula_units_Z   4
loop_
 _symmetry_equiv_pos_site_id
 _symmetry_equiv_pos_as_xyz
  1  'x, y, z'
loop_
 _atom_site_type_symbol
 _atom_site_label
 _atom_site_symmetry_multiplicity
 _atom_site_fract_x
 _atom_site_fract_y
 _atom_site_fract_z
 _atom_site_occupancy
 _atom_site_hle17_bader_spin_density
 _atom_site_hle17_ddec_charge
 _atom_site_hle17_ddec_spin_density
 _atom_site_hle17_ddec_sum_bond_order
 _atom_site_hle17_magmom
 _atom_site_hse06_10hf_bader_spin_density
 _atom_site_hse06_10hf_ddec_charge
 _atom_site_hse06_10hf_ddec_spin_density
 _atom_site_hse06_10hf_ddec_sum_bond_order
 _atom_site_hse06_10hf_magmom
 _atom_site_hse06_bader_spin_density
 _atom_site_hse06_ddec_charge
 _atom_site_hse06_ddec_spin_density
 _atom_site_hse06_ddec_sum_bond_order
 _atom_site_hse06_magmom
 _atom_site_pbe_bader_spin_density
 _atom_site_pbe_cm5_charge
 _atom_site_pbe_ddec_charge
 _atom_site_pbe_ddec_spin_density
 _atom_site_pbe_ddec_sum_bond_order
 _atom_site_pbe_magmom
Ba  Ba0  1  0.47805363  0.09759867  0.15376442  1  0  1.527732  0  1.19598  0  0  1.374513  0  1.586009  0  0  1.412167  0  1.549042  0  0  0.768747  1.347111  0  1.611919  0
Ba  Ba1  1  0.97806214  0.09761727  0.34623545  1  0  1.527823  0  1.195821  0  0  1.374495  0  1.586012  0  0  1.412285  0  1.548824  0  0  0.768743  1.34709  0  1.611927  0
Ba  Ba2  1  0.52193690  0.90238570  0.84623523  1  0  1.527798  0  1.195861  0  0  1.374454  0  1.586065  0  0  1.412251  0  1.548865  0  0  0.768747  1.347052  0  1.611995  0
Ba  Ba3  1  0.02194086  0.90240230  0.65376477  1  0  1.527724  0  1.196002  0  0  1.374426  0  1.586139  0  0  1.412147  0  1.549061  0  0  0.768729  1.347024  0  1.612057  0
H  H4  1  0.88247768  0.60159625  0.01772253  1  0  0.289764  0  0.924694  0  0  0.264633  0  1.00586  0  0  0.274464  0  0.997775  0  0  0.282689  0.25759  0  1.011803  0
H  H5  1  0.38249857  0.60162924  0.48227246  1  0  0.289948  0  0.92423  0  0  0.264667  0  1.005557  0  0  0.274501  0  0.997472  0  0  0.282689  0.257631  0  1.011507  0
H  H6  1  0.11750580  0.39836996  0.98226864  1  0  0.289935  0  0.92449  0  0  0.264671  0  1.005793  0  0  0.274501  0  0.997715  0  0  0.28271  0.257638  0  1.01174  0
H  H7  1  0.61754945  0.39840456  0.51772098  1  0  0.289921  0  0.925069  0  0  0.264756  0  1.006211  0  0  0.274581  0  0.998137  0  0  0.28283  0.257717  0  1.012157  0
H  H8  1  0.50407326  0.23935746  0.33631316  1  0  0.380555  0  0.929938  0  0  0.353005  0  0.997438  0  0  0.362901  0  0.983508  0  0  0.27732  0.345989  0  1.007296  0
H  H9  1  0.00406348  0.23934446  0.16368246  1  0  0.380516  0  0.930082  0  0  0.352941  0  0.997541  0  0  0.362842  0  0.983602  0  0  0.277276  0.345922  0  1.007407  0
H  H10  1  0.49593596  0.76065860  0.66368423  1  0  0.380533  0  0.930015  0  0  0.352966  0  0.997496  0  0  0.362864  0  0.983563  0  0  0.277269  0.345948  0  1.007362  0
H  H11  1  0.99591748  0.76063889  0.83630985  1  0  0.380523  0  0.930042  0  0  0.35297  0  0.997496  0  0  0.362867  0  0.983563  0  0  0.277301  0.345953  0  1.007359  0
H  H12  1  0.64357775  0.34272941  0.28477030  1  0  0.365711  0  0.968331  0  0  0.331895  0  1.041359  0  0  0.343376  0  1.025298  0  0  0.254519  0.323798  0  1.052654  0
H  H13  1  0.14357222  0.34272943  0.21522045  1  0  0.36572  0  0.968404  0  0  0.331896  0  1.041369  0  0  0.343379  0  1.025305  0  0  0.254498  0.3238  0  1.052664  0
H  H14  1  0.35642468  0.65727534  0.71522257  1  0  0.365646  0  0.968461  0  0  0.33184  0  1.041444  0  0  0.343322  0  1.025385  0  0  0.254471  0.32374  0  1.052748  0
H  H15  1  0.85641077  0.65726531  0.78476790  1  0  0.365762  0  0.968233  0  0  0.331954  0  1.041275  0  0  0.343435  0  1.025215  0  0  0.254579  0.323855  0  1.052578  0
H  H16  1  0.23816239  0.82179240  0.11310796  1  0  0.386993  0  0.934951  0  0  0.345943  0  1.024023  0  0  0.357004  0  1.008374  0  0  0.279042  0.338136  0  1.035029  0
H  H17  1  0.73817434  0.82180590  0.38689884  1  0  0.386926  0  0.935023  0  0  0.345856  0  1.02414  0  0  0.356915  0  1.008498  0  0  0.279076  0.338048  0  1.035147  0
H  H18  1  0.76182968  0.17819081  0.88689338  1  0  0.386929  0  0.934901  0  0  0.34584  0  1.024162  0  0  0.356899  0  1.008519  0  0  0.279038  0.338032  0  1.035165  0
H  H19  1  0.26183501  0.17821359  0.61310534  1  0  0.38694  0  0.934933  0  0  0.345889  0  1.02407  0  0  0.35695  0  1.008424  0  0  0.279036  0.338085  0  1.035071  0
H  H20  1  0.03469365  0.90039524  0.07503712  1  0  0.398832  0  0.89731  0  0  0.367909  0  0.975146  0  0  0.377728  0  0.961099  0  0  0.270416  0.360868  0  0.985234  0
H  H21  1  0.53470304  0.90041403  0.42496667  1  0  0.398769  0  0.897405  0  0  0.367837  0  0.975251  0  0  0.377655  0  0.961205  0  0  0.270389  0.360789  0  0.985347  0
H  H22  1  0.96529679  0.09958685  0.92496536  1  0  0.398838  0  0.897318  0  0  0.367911  0  0.975151  0  0  0.37773  0  0.961103  0  0  0.270435  0.360866  0  0.985245  0
H  H23  1  0.46530459  0.09960205  0.57503637  1  0  0.398779  0  0.897383  0  0  0.367853  0  0.975227  0  0  0.377672  0  0.961179  0  0  0.270395  0.360812  0  0.985315  0
H  H24  1  0.28060542  0.81326320  0.25877735  1  0  0.396054  0  0.898654  0  0  0.361535  0  0.983006  0  0  0.371969  0  0.968073  0  0  0.2813  0.354087  0  0.993671  0
H  H25  1  0.78060251  0.81326267  0.24122664  1  0  0.396052  0  0.89863  0  0  0.361536  0  0.983039  0  0  0.37197  0  0.968096  0  0  0.281312  0.35409  0  0.993701  0
H  H26  1  0.71939207  0.18673705  0.74122682  1  0  0.396011  0  0.898732  0  0  0.361476  0  0.98312  0  0  0.37191  0  0.968187  0  0  0.281275  0.354025  0  0.993789  0
H  H27  1  0.21939171  0.18673534  0.75877584  1  0  0.396081  0  0.898637  0  0  0.361551  0  0.98299  0  0  0.371985  0  0.968056  0  0  0.281324  0.354104  0  0.993652  0
H  H28  1  0.44146844  0.89964807  0.31331309  1  0  0.425844  0  0.878785  0  0  0.395764  0  0.941478  0  0  0.406882  0  0.925448  0  0  0.295256  0.387863  0  0.952847  0
H  H29  1  0.94145548  0.89964947  0.18668778  1  0  0.425689  0  0.878966  0  0  0.395668  0  0.941571  0  0  0.4068  0  0.925529  0  0  0.295211  0.387766  0  0.95294  0
H  H30  1  0.55853549  0.10035437  0.68668939  1  0  0.425758  0  0.8789  0  0  0.395751  0  0.941484  0  0  0.406875  0  0.925449  0  0  0.295244  0.387849  0  0.952855  0
H  H31  1  0.05853703  0.10034514  0.81331357  1  0  0.425711  0  0.878973  0  0  0.395686  0  0.941578  0  0  0.406818  0  0.925533  0  0  0.29523  0.387784  0  0.952946  0
C  C32  1  0.69196226  0.44968982  0.08040874  1  0  0.484775  0  3.804029  0  0  0.446297  0  4.099335  0  0  0.473363  0  4.105405  0  0  0.241886  0.428249  0  4.094428  0
C  C33  1  0.19198061  0.44971561  0.41959184  1  0  0.484728  0  3.804212  0  0  0.446256  0  4.099579  0  0  0.473324  0  4.105662  0  0  0.241841  0.428205  0  4.094673  0
C  C34  1  0.30803761  0.55028986  0.91958922  1  0  0.484962  0  3.804134  0  0  0.446448  0  4.099604  0  0  0.47352  0  4.105689  0  0  0.241919  0.4284  0  4.094693  0
C  C35  1  0.80806596  0.55032163  0.58041120  1  0  0.485073  0  3.803634  0  0  0.446678  0  4.098895  0  0  0.473748  0  4.10498  0  0  0.242067  0.428628  0  4.093996  0
C  C36  1  0.41641578  0.56886733  0.14359182  1  0  0.476447  0  3.784091  0  0  0.448083  0  4.075519  0  0  0.475643  0  4.079989  0  0  0.230157  0.429807  0  4.07175  0
C  C37  1  0.91641757  0.56887335  0.35641061  1  0  0.476173  0  3.784181  0  0  0.447875  0  4.075523  0  0  0.475435  0  4.079997  0  0  0.230102  0.429585  0  4.07178  0
C  C38  1  0.58358454  0.43112375  0.85641179  1  0  0.476193  0  3.783743  0  0  0.44785  0  4.075134  0  0  0.475447  0  4.079549  0  0  0.230103  0.429563  0  4.071388  0
C  C39  1  0.08358826  0.43113706  0.64359187  1  0  0.476198  0  3.783772  0  0  0.447913  0  4.075139  0  0  0.475485  0  4.079597  0  0  0.23012  0.429622  0  4.071401  0
C  C40  1  0.63407889  0.71816044  0.06602212  1  0  0.492067  0  3.810408  0  0  0.449548  0  4.106442  0  0  0.477093  0  4.111449  0  0  0.251409  0.431153  0  4.102303  0
C  C41  1  0.13408270  0.71817598  0.43398276  1  0  0.491845  0  3.810426  0  0  0.449302  0  4.10657  0  0  0.476848  0  4.111593  0  0  0.25119  0.430895  0  4.102443  0
C  C42  1  0.36593528  0.28181905  0.93397979  1  0  0.492047  0  3.810485  0  0  0.449534  0  4.106573  0  0  0.477083  0  4.111592  0  0  0.251257  0.431135  0  4.102434  0
C  C43  1  0.86595505  0.28183856  0.56602763  1  0  0.492166  0  3.810393  0  0  0.449709  0  4.106472  0  0  0.477259  0  4.11149  0  0  0.251441  0.431311  0  4.102329  0
S  S44  1  0.84387889  0.29657964  0.05672443  1  0  -0.522994  0  1.992329  0  0  -0.492896  0  2.316408  0  0  -0.510471  0  2.309081  0  0  -0.16349  -0.480109  0  2.320992  0
S  S45  1  0.34390384  0.29660505  0.44327545  1  0  -0.523105  0  1.992419  0  0  -0.492994  0  2.316502  0  0  -0.510606  0  2.309208  0  0  -0.163537  -0.480211  0  2.321088  0
S  S46  1  0.15610004  0.70339234  0.94327353  1  0  -0.523167  0  1.992371  0  0  -0.49304  0  2.316521  0  0  -0.510645  0  2.309203  0  0  -0.163521  -0.480243  0  2.321107  0
S  S47  1  0.65611530  0.70342115  0.55672307  1  0  -0.523121  0  1.992188  0  0  -0.493045  0  2.316276  0  0  -0.510617  0  2.308912  0  0  -0.163524  -0.480241  0  2.320864  0
S  S48  1  0.21539411  0.56785312  0.20722317  1  0  -0.428387  0  2.010324  0  0  -0.408786  0  2.331657  0  0  -0.427962  0  2.326126  0  0  -0.144933  -0.39542  0  2.335329  0
S  S49  1  0.71541900  0.56785845  0.29277084  1  0  -0.428381  0  2.010405  0  0  -0.408778  0  2.33176  0  0  -0.427964  0  2.326223  0  0  -0.14496  -0.395414  0  2.335446  0
S  S50  1  0.78456802  0.43213619  0.79276687  1  0  -0.428266  0  2.010378  0  0  -0.408655  0  2.331752  0  0  -0.427842  0  2.326199  0  0  -0.144891  -0.395289  0  2.335448  0
S  S51  1  0.28460125  0.43215518  0.70722769  1  0  -0.428137  0  2.010301  0  0  -0.408563  0  2.331642  0  0  -0.427734  0  2.326094  0  0  -0.144814  -0.395204  0  2.335343  0
S  S52  1  0.71123985  0.88521792  0.02487202  1  0  -0.577545  0  2.082443  0  0  -0.538257  0  2.421508  0  0  -0.556793  0  2.413696  0  0  -0.179992  -0.525077  0  2.426641  0
S  S53  1  0.21122368  0.88523894  0.47512895  1  0  -0.577474  0  2.082488  0  0  -0.538152  0  2.421568  0  0  -0.556704  0  2.413762  0  0  -0.179932  -0.524967  0  2.426701  0
S  S54  1  0.28877109  0.11476048  0.97513046  1  0  -0.577554  0  2.082436  0  0  -0.53825  0  2.421493  0  0  -0.556797  0  2.413685  0  0  -0.179936  -0.525056  0  2.426628  0
S  S55  1  0.78876825  0.11478192  0.52487409  1  0  -0.577673  0  2.082344  0  0  -0.538361  0  2.421391  0  0  -0.556913  0  2.413574  0  0  -0.180032  -0.525167  0  2.426519  0
N  N56  1  0.46705945  0.70787901  0.11219664  1  0  -0.539972  0  3.094658  0  0  -0.475124  0  3.355969  0  0  -0.499243  0  3.363447  0  0  -0.333896  -0.459027  0  3.35057  0
N  N57  1  0.96704592  0.70789057  0.38780931  1  0  -0.539729  0  3.094372  0  0  -0.474883  0  3.355681  0  0  -0.49901  0  3.363173  0  0  -0.333766  -0.458775  0  3.350284  0
N  N58  1  0.53294523  0.29210174  0.88781375  1  0  -0.539895  0  3.094606  0  0  -0.474968  0  3.355868  0  0  -0.499108  0  3.363347  0  0  -0.333767  -0.45886  0  3.350466  0
N  N59  1  0.03292348  0.29212261  0.61219373  1  0  -0.539958  0  3.095171  0  0  -0.475193  0  3.356538  0  0  -0.499322  0  3.364013  0  0  -0.333996  -0.459088  0  3.351146  0
N  N60  1  0.74937944  0.58955530  0.05161516  1  0  -0.40388  0  3.338903  0  0  -0.335696  0  3.573277  0  0  -0.358747  0  3.579514  0  0  -0.373426  -0.320305  0  3.568843  0
N  N61  1  0.24938195  0.58957411  0.44838103  1  0  -0.403741  0  3.338361  0  0  -0.335463  0  3.572995  0  0  -0.358498  0  3.579195  0  0  -0.373231  -0.32008  0  3.568546  0
N  N62  1  0.25059486  0.41042016  0.94838619  1  0  -0.403906  0  3.337985  0  0  -0.335708  0  3.572739  0  0  -0.358725  0  3.578877  0  0  -0.373356  -0.320326  0  3.568299  0
N  N63  1  0.75059715  0.41044351  0.55160110  1  0  -0.404103  0  3.337955  0  0  -0.336021  0  3.572595  0  0  -0.359041  0  3.578736  0  0  -0.373557  -0.320627  0  3.568177  0
N  N64  1  0.52129333  0.43735454  0.12522991  1  0  -0.559934  0  3.030501  0  0  -0.505592  0  3.305156  0  0  -0.529761  0  3.313762  0  0  -0.368503  -0.489524  0  3.29901  0
N  N65  1  0.02130287  0.43737071  0.37477415  1  0  -0.559876  0  3.030654  0  0  -0.505525  0  3.305275  0  0  -0.52971  0  3.313892  0  0  -0.368518  -0.489452  0  3.299136  0
N  N66  1  0.47869711  0.56262755  0.87477822  1  0  -0.559919  0  3.030917  0  0  -0.505525  0  3.30558  0  0  -0.529726  0  3.314182  0  0  -0.368526  -0.489454  0  3.299446  0
N  N67  1  0.97869709  0.56265232  0.62522438  1  0  -0.559944  0  3.031105  0  0  -0.5056  0  3.3057  0  0  -0.529786  0  3.314312  0  0  -0.368564  -0.489531  0  3.299575  0
O  O68  1  0.59967308  0.23169484  0.29174575  1  0  -0.865337  0  1.920052  0  0  -0.794255  0  2.101642  0  0  -0.817135  0  2.072564  0  0  -0.638457  -0.778001  0  2.12191  0
O  O69  1  0.09966884  0.23168922  0.20824987  1  0  -0.865344  0  1.920129  0  0  -0.794188  0  2.1017  0  0  -0.817072  0  2.072617  0  0  -0.638429  -0.777933  0  2.12197  0
O  O70  1  0.40033283  0.76831785  0.70825051  1  0  -0.865297  0  1.920184  0  0  -0.79416  0  2.101733  0  0  -0.817056  0  2.072653  0  0  -0.638388  -0.777895  0  2.122008  0
O  O71  1  0.90031877  0.76830203  0.79174357  1  0  -0.865379  0  1.920108  0  0  -0.794293  0  2.101613  0  0  -0.817185  0  2.072532  0  0  -0.638517  -0.778032  0  2.121883  0
O  O72  1  0.13415695  0.90804835  0.11826585  1  0  -0.853688  0  1.963993  0  0  -0.783393  0  2.162207  0  0  -0.805438  0  2.132843  0  0  -0.606717  -0.767688  0  2.182821  0
O  O73  1  0.63416575  0.90806424  0.38173733  1  0  -0.853685  0  1.964117  0  0  -0.783327  0  2.162365  0  0  -0.805383  0  2.133004  0  0  -0.606758  -0.767619  0  2.182984  0
O  O74  1  0.86584469  0.09193587  0.88173550  1  0  -0.853662  0  1.963868  0  0  -0.783355  0  2.162218  0  0  -0.805419  0  2.132853  0  0  -0.606736  -0.767645  0  2.182842  0
O  O75  1  0.36584334  0.09194840  0.61826289  1  0  -0.853613  0  1.964024  0  0  -0.783306  0  2.162321  0  0  -0.805355  0  2.132956  0  0  -0.606682  -0.767605  0  2.182927  0
O  O76  1  0.32170230  0.91633804  0.27700084  1  0  -0.873038  0  1.844446  0  0  -0.8051  0  2.033485  0  0  -0.827072  0  2.003989  0  0  -0.623315  -0.789482  0  2.054202  0
O  O77  1  0.82169298  0.91634124  0.22300227  1  0  -0.872886  0  1.844587  0  0  -0.805056  0  2.033505  0  0  -0.827012  0  2.003967  0  0  -0.623307  -0.78944  0  2.054223  0
O  O78  1  0.67829515  0.08366107  0.72300221  1  0  -0.872952  0  1.844625  0  0  -0.80505  0  2.033515  0  0  -0.827033  0  2.004005  0  0  -0.623299  -0.789423  0  2.054235  0
O  O79  1  0.17829961  0.08365565  0.77700078  1  0  -0.872949  0  1.844588  0  0  -0.805023  0  2.033567  0  0  -0.827009  0  2.004023  0  0  -0.623317  -0.789402  0  2.05428  0
