# generated using pymatgen
data_SrLa2H20C28(NO5)4
_symmetry_space_group_name_H-M   'P 1'
_cell_length_a   13.54263600
_cell_length_b   13.51430000
_cell_length_c   13.55778751
_cell_angle_alpha   98.79666675
_cell_angle_beta   114.85740905
_cell_angle_gamma   114.98691923
_symmetry_Int_Tables_number   1
_chemical_formula_structural   SrLa2H20C28(NO5)4
_chemical_formula_sum   'Sr2 La4 H40 C56 N8 O40'
_cell_volume   1868.70842686
_cell_formula_units_Z   2
loop_
 _symmetry_equiv_pos_site_id
 _symmetry_equiv_pos_as_xyz
  1  'x, y, z'
loop_
 _atom_site_type_symbol
 _atom_site_label
 _atom_site_symmetry_multiplicity
 _atom_site_fract_x
 _atom_site_fract_y
 _atom_site_fract_z
 _atom_site_occupancy
 _atom_site_hle17_bader_spin_density
 _atom_site_hle17_ddec_charge
 _atom_site_hle17_ddec_spin_density
 _atom_site_hle17_ddec_sum_bond_order
 _atom_site_hle17_magmom
 _atom_site_hse06_10hf_bader_spin_density
 _atom_site_hse06_10hf_ddec_charge
 _atom_site_hse06_10hf_ddec_spin_density
 _atom_site_hse06_10hf_ddec_sum_bond_order
 _atom_site_hse06_10hf_magmom
 _atom_site_hse06_bader_spin_density
 _atom_site_hse06_ddec_charge
 _atom_site_hse06_ddec_spin_density
 _atom_site_hse06_ddec_sum_bond_order
 _atom_site_hse06_magmom
 _atom_site_pbe_bader_charge
 _atom_site_pbe_bader_spin_density
 _atom_site_pbe_cm5_charge
 _atom_site_pbe_ddec_charge
 _atom_site_pbe_ddec_spin_density
 _atom_site_pbe_ddec_sum_bond_order
 _atom_site_pbe_magmom
Sr  Sr0  1  0.99929764  0.49887110  0.49906607  1  0  1.656346  0  1.043266  0  0  1.514424  0  1.40599  0  0  1.554989  0  1.362225  0  1.695284  0  0.945677  1.484357  0  1.437389  0
Sr  Sr1  1  0.49965163  0.24924292  0.74986375  1  0  1.65639  0  1.043444  0  0  1.514246  0  1.406782  0  0  1.554838  0  1.362999  0  1.694997  0  0.945812  1.484186  0  1.438193  0
La  La2  1  0.72615497  0.35113737  0.12497553  1  0  2.033454  0  1.818135  0  0  1.8935  0  2.327314  0  0  1.993678  0  2.232561  0  2.244134  0  1.392942  1.818982  0  2.393258  0
La  La3  1  0.77338551  0.37472066  0.64848861  1  0  2.035222  0  1.814876  0  0  1.894749  0  2.324881  0  0  1.995201  0  2.229684  0  2.243201  0  1.390682  1.820014  0  2.391182  0
La  La4  1  0.27385164  0.39879003  0.62504641  1  0  2.032614  0  1.821888  0  0  1.89205  0  2.331737  0  0  1.992208  0  2.237042  0  2.242706  0  1.394486  1.817566  0  2.397666  0
La  La5  1  0.22611512  0.87482812  0.60146227  1  0  2.035565  0  1.813497  0  0  1.895254  0  2.323304  0  0  1.995595  0  2.228286  0  2.243386  0  1.390256  1.820461  0  2.389688  0
H  H6  1  0.80440818  0.17545986  0.22281092  1  0  0.430722  0  0.870383  0  0  0.397665  0  0.937571  0  0  0.410657  0  0.918691  0  0.66746  0  0.290686  0.388387  0  0.951024  0
H  H7  1  0.04578055  0.62771347  0.82386047  1  0  0.429931  0  0.871851  0  0  0.396959  0  0.938969  0  0  0.409956  0  0.920102  0  0.654514  0  0.290435  0.387669  0  0.952416  0
H  H8  1  0.19649758  0.41868626  0.37196207  1  0  0.429638  0  0.872257  0  0  0.396736  0  0.939202  0  0  0.409709  0  0.920379  0  0.648994  0  0.290237  0.387449  0  0.952647  0
H  H9  1  0.95341771  0.77809736  0.58172209  1  0  0.429278  0  0.872658  0  0  0.3966  0  0.939282  0  0  0.409614  0  0.920428  0  0.654455  0  0.290338  0.387289  0  0.952746  0
H  H10  1  0.45320503  0.33146044  0.02759176  1  0  0.43047  0  0.870553  0  0  0.397473  0  0.9377  0  0  0.410479  0  0.918799  0  0.653887  0  0.290561  0.388188  0  0.951162  0
H  H11  1  0.69595272  0.12120612  0.66815593  1  0  0.430521  0  0.871304  0  0  0.397634  0  0.938157  0  0  0.410651  0  0.919291  0  0.657274  0  0.290665  0.388335  0  0.951606  0
H  H12  1  0.54644034  0.57445473  0.87767119  1  0  0.429504  0  0.87219  0  0  0.396602  0  0.939137  0  0  0.409622  0  0.920251  0  0.653916  0  0.290296  0.387304  0  0.952596  0
H  H13  1  0.30425844  0.97218388  0.42599971  1  0  0.430421  0  0.871223  0  0  0.397188  0  0.938689  0  0  0.410162  0  0.919857  0  0.647763  0  0.290439  0.387922  0  0.952113  0
H  H14  1  0.84325827  0.20774074  0.13117710  1  0  0.40902  0  0.84427  0  0  0.392109  0  0.901679  0  0  0.401036  0  0.891834  0  0.575735  0  0.315721  0.385624  0  0.908887  0
H  H15  1  0.92215570  0.63484406  0.79131234  1  0  0.410042  0  0.844304  0  0  0.392983  0  0.901845  0  0  0.401953  0  0.891901  0  0.602884  0  0.316177  0.386481  0  0.909089  0
H  H16  1  0.15868755  0.28829153  0.36629070  1  0  0.409718  0  0.842528  0  0  0.39224  0  0.901114  0  0  0.401238  0  0.891118  0  0.578409  0  0.315469  0.385723  0  0.908376  0
H  H17  1  0.07635334  0.86749901  0.71209569  1  0  0.409858  0  0.843511  0  0  0.392895  0  0.900907  0  0  0.40184  0  0.891048  0  0.607721  0  0.316365  0.3864  0  0.908105  0
H  H18  1  0.57603925  0.46210112  0.11729905  1  0  0.409575  0  0.843597  0  0  0.392809  0  0.900667  0  0  0.401714  0  0.890869  0  0.608249  0  0.316354  0.386341  0  0.907835  0
H  H19  1  0.65698745  0.11493930  0.53792908  1  0  0.40998  0  0.844342  0  0  0.392931  0  0.901784  0  0  0.401902  0  0.891871  0  0.602221  0  0.316035  0.386423  0  0.909021  0
H  H20  1  0.42262512  0.54130857  0.88452272  1  0  0.409055  0  0.843879  0  0  0.392126  0  0.901336  0  0  0.401044  0  0.891487  0  0.610436  0  0.315849  0.385642  0  0.908552  0
H  H21  1  0.34179365  0.87920270  0.45757242  1  0  0.40994  0  0.84421  0  0  0.392599  0  0.902275  0  0  0.40162  0  0.892232  0  0.604826  0  0.31568  0.386076  0  0.909546  0
H  H22  1  0.48515892  0.05923090  0.31701623  1  0  0.111236  0  0.947539  0  0  0.119525  0  1.008106  0  0  0.123722  0  1.005032  0  0.113301  0  0.112884  0.116436  0  1.010539  0
H  H23  1  0.25679482  0.42593584  0.93985817  1  0  0.11111  0  0.947583  0  0  0.119472  0  1.008072  0  0  0.123637  0  1.005043  0  0.117039  0  0.11296  0.116395  0  1.010492  0
H  H24  1  0.51409303  0.83199103  0.57328641  1  0  0.11094  0  0.948695  0  0  0.119589  0  1.008789  0  0  0.123778  0  1.005753  0  0.101445  0  0.112862  0.116489  0  1.011224  0
H  H25  1  0.74447672  0.68459802  0.16946185  1  0  0.108664  0  0.949995  0  0  0.117258  0  1.010494  0  0  0.121351  0  1.007564  0  0.101732  0  0.111963  0.11425  0  1.012811  0
H  H26  1  0.24370861  0.91876370  0.93478142  1  0  0.109415  0  0.949995  0  0  0.118113  0  1.010154  0  0  0.122217  0  1.007219  0  0.100097  0  0.112367  0.115085  0  1.0125  0
H  H27  1  0.01383573  0.32411445  0.08108139  1  0  0.110814  0  0.94874  0  0  0.119151  0  1.009321  0  0  0.123318  0  1.006298  0  0.106756  0  0.112911  0.11608  0  1.011728  0
H  H28  1  0.75712272  0.69101361  0.67559916  1  0  0.110804  0  0.948171  0  0  0.119166  0  1.008626  0  0  0.123329  0  1.005607  0  0.116102  0  0.112965  0.11609  0  1.011042  0
H  H29  1  0.98704172  0.06859346  0.31027179  1  0  0.110538  0  0.949277  0  0  0.11945  0  1.009135  0  0  0.123613  0  1.00611  0  0.09809  0  0.112629  0.116296  0  1.011636  0
H  H30  1  0.27821411  0.90255171  0.12654435  1  0  0.085261  0  1.007891  0  0  0.099759  0  1.059415  0  0  0.102392  0  1.057361  0  0.072528  0  0.105737  0.097856  0  1.060915  0
H  H31  1  0.22184572  0.37526969  0.09722086  1  0  0.085366  0  1.002777  0  0  0.099549  0  1.054858  0  0  0.102337  0  1.05261  0  0.078623  0  0.105496  0.097549  0  1.056479  0
H  H32  1  0.72171409  0.84817910  0.62411718  1  0  0.08586  0  1.007604  0  0  0.100321  0  1.05913  0  0  0.102994  0  1.057049  0  0.074501  0  0.105783  0.098395  0  1.06065  0
H  H33  1  0.78005348  0.87758261  0.15361924  1  0  0.084912  0  1.005004  0  0  0.100136  0  1.055717  0  0  0.102681  0  1.053828  0  0.066423  0  0.106024  0.098216  0  1.057217  0
H  H34  1  0.93914291  0.73709772  0.00534568  1  0  0.112247  0  0.928292  0  0  0.12167  0  0.984915  0  0  0.125786  0  0.982328  0  0.092135  0  0.113575  0.118675  0  0.986957  0
H  H35  1  0.27050991  0.20365900  0.26417369  1  0  0.112056  0  0.92829  0  0  0.121745  0  0.984758  0  0  0.12584  0  0.982178  0  0.105642  0  0.113499  0.118761  0  0.986799  0
H  H36  1  0.06054222  0.06625240  0.79776849  1  0  0.112198  0  0.928442  0  0  0.121956  0  0.984634  0  0  0.126067  0  0.982052  0  0.098014  0  0.113663  0.118952  0  0.986685  0
H  H37  1  0.72993337  0.99367137  0.93348184  1  0  0.111823  0  0.927998  0  0  0.121334  0  0.984672  0  0  0.125457  0  0.982058  0  0.081127  0  0.113378  0.11834  0  0.986722  0
H  H38  1  0.22981301  0.68367152  0.24319453  1  0  0.112557  0  0.927503  0  0  0.121888  0  0.98435  0  0  0.126019  0  0.981719  0  0.114907  0  0.11368  0.118887  0  0.986415  0
H  H39  1  0.56153237  0.54831425  0.31639887  1  0  0.112228  0  0.9279  0  0  0.121908  0  0.984311  0  0  0.126022  0  0.981734  0  0.094404  0  0.113596  0.118915  0  0.98634  0
H  H40  1  0.77056653  0.01328410  0.45427540  1  0  0.112729  0  0.926593  0  0  0.122041  0  0.983437  0  0  0.126154  0  0.980822  0  0.105448  0  0.11383  0.119047  0  0.985495  0
H  H41  1  0.43804970  0.75483313  0.98632203  1  0  0.111888  0  0.928492  0  0  0.121656  0  0.984799  0  0  0.125851  0  0.982121  0  0.094037  0  0.113563  0.118623  0  0.986874  0
H  H42  1  0.17089845  0.79733640  0.12390837  1  0  0.079516  0  1.008536  0  0  0.094499  0  1.060156  0  0  0.097058  0  1.058046  0  0.057354  0  0.103391  0.092607  0  1.061783  0
H  H43  1  0.32969929  0.37630703  0.20345648  1  0  0.079031  0  1.005416  0  0  0.094453  0  1.056749  0  0  0.096951  0  1.054686  0  0.055946  0  0.103527  0.092646  0  1.058282  0
H  H44  1  0.82913167  0.95299118  0.62661693  1  0  0.079053  0  1.009447  0  0  0.094051  0  1.061006  0  0  0.096554  0  1.058973  0  0.066836  0  0.103339  0.092238  0  1.062527  0
H  H45  1  0.67025322  0.87402060  0.04686132  1  0  0.07916  0  1.005169  0  0  0.094106  0  1.056899  0  0  0.096645  0  1.054845  0  0.051668  0  0.103529  0.092289  0  1.058429  0
C  C46  1  0.68608487  0.25598138  0.34043965  1  0  0.667433  0  3.880676  0  0  0.615781  0  4.181357  0  0  0.652029  0  4.172147  0  1.613645  0  0.238134  0.590938  0  4.186963  0
C  C47  1  0.08393922  0.42964182  0.74298307  1  0  0.670814  0  3.877259  0  0  0.618452  0  4.178725  0  0  0.654696  0  4.169568  0  1.615217  0  0.239928  0.593549  0  4.184394  0
C  C48  1  0.31311120  0.65439011  0.56933488  1  0  0.669674  0  3.879174  0  0  0.617308  0  4.180602  0  0  0.653565  0  4.171405  0  1.610808  0  0.239191  0.592465  0  4.186187  0
C  C49  1  0.91599942  0.65914615  0.34599538  1  0  0.669434  0  3.878702  0  0  0.617741  0  4.179337  0  0  0.654056  0  4.17006  0  1.630818  0  0.239089  0.592868  0  4.18497  0
C  C50  1  0.41635672  0.09583232  0.90988192  1  0  0.667265  0  3.881089  0  0  0.615693  0  4.181451  0  0  0.651937  0  4.172229  0  1.630882  0  0.238338  0.59084  0  4.187068  0
C  C51  1  0.81284776  0.31930321  0.90406564  1  0  0.668812  0  3.879903  0  0  0.616535  0  4.181468  0  0  0.652795  0  4.172284  0  1.622223  0  0.238783  0.591668  0  4.187067  0
C  C52  1  0.58431988  0.49338088  0.68006605  1  0  0.670352  0  3.876162  0  0  0.617548  0  4.177722  0  0  0.653892  0  4.168462  0  1.614783  0  0.239784  0.592647  0  4.183336  0
C  C53  1  0.18679932  0.09128099  0.50649493  1  0  0.669395  0  3.878465  0  0  0.617052  0  4.179304  0  0  0.653337  0  4.170068  0  1.612472  0  0.239264  0.592196  0  4.184903  0
C  C54  1  0.56015305  0.15756525  0.22806506  1  0  0.113217  0  3.715553  0  0  0.118722  0  3.956501  0  0  0.119167  0  3.975545  0  0.520051  0  0.12775  0.118112  0  3.943766  0
C  C55  1  0.06976266  0.40198357  0.84171417  1  0  0.113466  0  3.715665  0  0  0.119472  0  3.956501  0  0  0.11991  0  3.975534  0  0.505246  0  0.128714  0.118889  0  3.943783  0
C  C56  1  0.43949001  0.66801319  0.59708125  1  0  0.112805  0  3.718553  0  0  0.118708  0  3.95967  0  0  0.119154  0  3.978684  0  0.523104  0  0.128208  0.118094  0  3.946959  0
C  C57  1  0.93042376  0.77250422  0.33262561  1  0  0.112898  0  3.711383  0  0  0.118778  0  3.952255  0  0  0.119228  0  3.971236  0  0.527803  0  0.128339  0.118151  0  3.939566  0
C  C58  1  0.43026091  0.08221477  0.02264932  1  0  0.113942  0  3.711735  0  0  0.119792  0  3.952096  0  0  0.120271  0  3.971096  0  0.523885  0  0.128209  0.119153  0  3.939399  0
C  C59  1  0.93923107  0.34716430  0.91747349  1  0  0.112863  0  3.716111  0  0  0.11858  0  3.957563  0  0  0.119016  0  3.976583  0  0.505365  0  0.128565  0.117986  0  3.944841  0
C  C60  1  0.57019681  0.59239979  0.65228675  1  0  0.112807  0  3.714953  0  0  0.120111  0  3.954119  0  0  0.120427  0  3.973293  0  0.512249  0  0.128592  0.119591  0  3.941274  0
C  C61  1  0.06080423  0.97875133  0.40819762  1  0  0.111498  0  3.718474  0  0  0.118616  0  3.957855  0  0  0.119012  0  3.976938  0  0.513666  0  0.128004  0.118027  0  3.945088  0
C  C62  1  0.46721905  0.06300058  0.23209204  1  0  -0.092098  0  3.700119  0  0  -0.116739  0  3.94966  0  0  -0.11952  0  3.968343  0  -0.013514  0  -0.066832  -0.114871  0  3.937207  0
C  C63  1  0.16802420  0.40390025  0.93631437  1  0  -0.092519  0  3.698418  0  0  -0.117451  0  3.948102  0  0  -0.120228  0  3.96682  0  -0.010765  0  -0.066611  -0.115582  0  3.935624  0
C  C64  1  0.53234947  0.76495080  0.59533798  1  0  -0.091515  0  3.699646  0  0  -0.116484  0  3.94916  0  0  -0.119298  0  3.967893  0  -0.014119  0  -0.066247  -0.114593  0  3.936686  0
C  C65  1  0.83292478  0.76957512  0.23618087  1  0  -0.089976  0  3.698918  0  0  -0.115007  0  3.948214  0  0  -0.117747  0  3.967021  0  -0.003557  0  -0.066225  -0.113162  0  3.935658  0
C  C66  1  0.33213973  0.98553691  0.01943948  1  0  -0.091242  0  3.702008  0  0  -0.116154  0  3.950895  0  0  -0.118874  0  3.969639  0  0.005392  0  -0.066665  -0.114326  0  3.938401  0
C  C67  1  0.03222288  0.34591868  0.01419711  1  0  -0.092747  0  3.699643  0  0  -0.11744  0  3.949245  0  0  -0.120269  0  3.968065  0  -0.0084  0  -0.067006  -0.115539  0  3.9367  0
C  C68  1  0.66833346  0.68725217  0.65369344  1  0  -0.091175  0  3.70037  0  0  -0.116417  0  3.949524  0  0  -0.119146  0  3.968239  0  -0.002771  0  -0.066367  -0.114574  0  3.937037  0
C  C69  1  0.96857906  0.98317733  0.31389760  1  0  -0.090822  0  3.701538  0  0  -0.116614  0  3.951087  0  0  -0.119366  0  3.969818  0  0.0434  0  -0.066217  -0.114683  0  3.938614  0
C  C70  1  0.35212881  0.97666868  0.12598257  1  0  -0.004394  0  3.736484  0  0  -0.021616  0  3.984552  0  0  -0.021176  0  4.003698  0  -0.041734  0  -0.063621  -0.021726  0  3.971382  0
C  C71  1  0.14773618  0.37502774  0.02291598  1  0  -0.00375  0  3.733841  0  0  -0.02063  0  3.982094  0  0  -0.020271  0  4.001271  0  -0.023028  0  -0.063486  -0.020702  0  3.968918  0
C  C72  1  0.64784452  0.77378040  0.62441102  1  0  -0.005116  0  3.735346  0  0  -0.022378  0  3.983973  0  0  -0.021958  0  4.003114  0  -0.032689  0  -0.063853  -0.022495  0  3.970818  0
C  C73  1  0.85347493  0.87673075  0.22752589  1  0  -0.004302  0  3.738548  0  0  -0.022003  0  3.987145  0  0  -0.0215  0  4.006384  0  -0.067925  0  -0.063455  -0.02212  0  3.973934  0
C  C74  1  0.73268428  0.54377929  0.98399703  1  0  0.638302  0  3.914349  0  0  0.584159  0  4.224915  0  0  0.618641  0  4.215531  0  1.609189  0  0.225382  0.56068  0  4.230591  0
C  C75  1  0.44091088  0.18939407  0.45679246  1  0  0.640213  0  3.911701  0  0  0.585869  0  4.221943  0  0  0.62042  0  4.212408  0  1.621619  0  0.225353  0.56234  0  4.227729  0
C  C76  1  0.26701890  0.25119955  0.81085748  1  0  0.640633  0  3.913729  0  0  0.586734  0  4.223587  0  0  0.621202  0  4.214167  0  1.635259  0  0.226357  0.563266  0  4.229288  0
C  C77  1  0.55922818  0.01536627  0.74830074  1  0  0.639382  0  3.914017  0  0  0.585118  0  4.22457  0  0  0.619639  0  4.215103  0  1.614923  0  0.22551  0.561606  0  4.230305  0
C  C78  1  0.05890446  0.49828028  0.26525536  1  0  0.637841  0  3.919216  0  0  0.583469  0  4.229647  0  0  0.617947  0  4.220247  0  1.615682  0  0.224804  0.559988  0  4.23535  0
C  C79  1  0.76738541  0.56150007  0.50122928  1  0  0.639449  0  3.910942  0  0  0.585588  0  4.221265  0  0  0.620081  0  4.211845  0  1.607755  0  0.22574  0.562101  0  4.226968  0
C  C80  1  0.94144285  0.20639602  0.43978867  1  0  0.637754  0  3.917463  0  0  0.583779  0  4.227323  0  0  0.618278  0  4.217872  0  1.616362  0  0.224518  0.560288  0  4.233045  0
C  C81  1  0.23220765  0.73332369  0.79347531  1  0  0.641625  0  3.907523  0  0  0.586781  0  4.218601  0  0  0.621305  0  4.209081  0  1.607711  0  0.226287  0.563269  0  4.224374  0
C  C82  1  0.87592253  0.59222836  0.05844190  1  0  0.109616  0  3.736335  0  0  0.113698  0  3.98422  0  0  0.114207  0  4.004234  0  0.516391  0  0.122215  0.113033  0  3.970818  0
C  C83  1  0.46714139  0.28473827  0.40827089  1  0  0.109135  0  3.733474  0  0  0.113672  0  3.980989  0  0  0.114189  0  4.000946  0  0.516303  0  0.122233  0.113002  0  3.967621  0
C  C84  1  0.12389046  0.18249035  0.71625234  1  0  0.108912  0  3.737513  0  0  0.112712  0  3.985814  0  0  0.113241  0  4.00581  0  0.509534  0  0.122201  0.112035  0  3.972418  0
C  C85  1  0.53290322  0.94043712  0.81714933  1  0  0.110141  0  3.734268  0  0  0.113781  0  3.983047  0  0  0.11428  0  4.003062  0  0.516856  0  0.122335  0.113124  0  3.969647  0
C  C86  1  0.03275757  0.56727611  0.19052451  1  0  0.10986  0  3.736307  0  0  0.114459  0  3.983616  0  0  0.114967  0  4.003642  0  0.521336  0  0.122402  0.113791  0  3.970215  0
C  C87  1  0.62415117  0.46667756  0.43263117  1  0  0.110328  0  3.735338  0  0  0.113716  0  3.984358  0  0  0.114213  0  4.004395  0  0.530099  0  0.122318  0.113057  0  3.970927  0
C  C88  1  0.96744986  0.15767261  0.53470299  1  0  0.110008  0  3.734965  0  0  0.114216  0  3.982463  0  0  0.114728  0  4.002451  0  0.515009  0  0.122516  0.113549  0  3.969079  0
C  C89  1  0.37554752  0.80776458  0.84176470  1  0  0.108603  0  3.736095  0  0  0.113526  0  3.983332  0  0  0.114046  0  4.00332  0  0.498573  0  0.122174  0.112857  0  3.96995  0
C  C90  1  0.96887109  0.69022019  0.05795615  1  0  -0.084242  0  3.686566  0  0  -0.109604  0  3.93924  0  0  -0.111577  0  3.956422  0  -0.000589  0  -0.065323  -0.108323  0  3.927827  0
C  C91  1  0.36953801  0.28023336  0.31058723  1  0  -0.084395  0  3.68533  0  0  -0.110271  0  3.938334  0  0  -0.112225  0  3.955477  0  0.001316  0  -0.064988  -0.109002  0  3.926967  0
C  C92  1  0.03092424  0.08907403  0.72127459  1  0  -0.083794  0  3.686701  0  0  -0.10947  0  3.939425  0  0  -0.111435  0  3.956555  0  -0.020335  0  -0.065179  -0.108185  0  3.928066  0
C  C93  1  0.63063363  0.94076499  0.91061457  1  0  -0.084191  0  3.684407  0  0  -0.109594  0  3.937319  0  0  -0.11155  0  3.954462  0  -0.002106  0  -0.065013  -0.108326  0  3.925952  0
C  C94  1  0.13068557  0.66093733  0.19068970  1  0  -0.084192  0  3.687143  0  0  -0.109679  0  3.939734  0  0  -0.11164  0  3.956894  0  -0.031923  0  -0.065162  -0.108406  0  3.928342  0
C  C95  1  0.53149697  0.47162086  0.33936243  1  0  -0.084277  0  3.682789  0  0  -0.109745  0  3.935994  0  0  -0.111714  0  3.953178  0  -0.021886  0  -0.064875  -0.108459  0  3.924598  0
C  C96  1  0.86956223  0.05988029  0.53045749  1  0  -0.084195  0  3.684749  0  0  -0.109567  0  3.937474  0  0  -0.111503  0  3.954551  0  -0.029795  0  -0.065132  -0.108311  0  3.926151  0
C  C97  1  0.46824078  0.80757547  0.93964718  1  0  -0.084219  0  3.685108  0  0  -0.110247  0  3.938059  0  0  -0.112307  0  3.955239  0  0.029292  0  -0.065239  -0.108913  0  3.926674  0
C  C98  1  0.09698281  0.72299161  0.12424177  1  0  0.006734  0  3.719806  0  0  -0.012327  0  3.971229  0  0  -0.010802  0  3.988191  0  -0.030483  0  -0.062389  -0.013232  0  3.959748  0
C  C99  1  0.40341087  0.37604606  0.27768894  1  0  0.007975  0  3.717844  0  0  -0.011364  0  3.969687  0  0  -0.009771  0  3.986641  0  -0.013371  0  -0.062279  -0.012354  0  3.958205  0
C  C100  1  0.90302567  0.02717762  0.62609243  1  0  0.007823  0  3.719118  0  0  -0.011254  0  3.970497  0  0  -0.00965  0  3.987381  0  -0.011784  0  -0.06191  -0.012244  0  3.959049  0
C  C101  1  0.59654767  0.87415790  0.97251025  1  0  0.008594  0  3.7177  0  0  -0.010557  0  3.969664  0  0  -0.008959  0  3.986608  0  -0.023992  0  -0.062026  -0.011549  0  3.958177  0
N  N102  1  0.54153403  0.16626226  0.12517713  1  0  -0.341583  0  3.191167  0  0  -0.29851  0  3.433875  0  0  -0.315107  0  3.45633  0  -1.232338  0  -0.349703  -0.286351  0  3.418137  0
N  N103  1  0.95810514  0.37437136  0.83317791  1  0  -0.340375  0  3.190142  0  0  -0.297557  0  3.432976  0  0  -0.31402  0  3.455335  0  -1.218816  0  -0.347712  -0.285496  0  3.417305  0
N  N104  1  0.45856172  0.58375807  0.62476091  1  0  -0.340131  0  3.194577  0  0  -0.297784  0  3.437016  0  0  -0.314275  0  3.459479  0  -1.225975  0  -0.348861  -0.285704  0  3.421279  0
N  N105  1  0.04160074  0.87532190  0.41669994  1  0  -0.339332  0  3.189945  0  0  -0.297054  0  3.432397  0  0  -0.313526  0  3.454775  0  -1.220883  0  -0.347455  -0.284971  0  3.416722  0
N  N106  1  0.90864891  0.53384034  0.12452443  1  0  -0.389985  0  3.30201  0  0  -0.346102  0  3.545202  0  0  -0.364373  0  3.57057  0  -1.234861  0  -0.370673  -0.332838  0  3.527534  0
N  N107  1  0.59117290  0.37557197  0.46615916  1  0  -0.389848  0  3.300945  0  0  -0.345783  0  3.544302  0  0  -0.364009  0  3.569648  0  -1.256425  0  -0.369023  -0.332544  0  3.526643  0
N  N108  1  0.09137068  0.21583648  0.62527056  1  0  -0.390134  0  3.301974  0  0  -0.346087  0  3.545273  0  0  -0.364347  0  3.5706  0  -1.246616  0  -0.371002  -0.332838  0  3.527635  0
N  N109  1  0.40864012  0.87403249  0.78359662  1  0  -0.389824  0  3.301468  0  0  -0.345856  0  3.544712  0  0  -0.364092  0  3.570058  0  -1.239856  0  -0.368876  -0.332617  0  3.527055  0
O  O110  1  0.76320593  0.34034751  0.32729362  1  0  -0.716157  0  2.039119  0  0  -0.65793  0  2.296534  0  0  -0.690607  0  2.287712  0  -1.211848  0  -0.385478  -0.634529  0  2.301787  0
O  O111  1  0.98668699  0.42221582  0.65890610  1  0  -0.717818  0  2.037509  0  0  -0.65897  0  2.294772  0  0  -0.691674  0  2.285896  0  -1.215196  0  -0.386153  -0.635553  0  2.300167  0
O  O112  1  0.23602032  0.56412584  0.57652360  1  0  -0.715485  0  2.041532  0  0  -0.656792  0  2.298586  0  0  -0.689457  0  2.289745  0  -1.211918  0  -0.385083  -0.63345  0  2.303929  0
O  O113  1  0.01278538  0.67188649  0.43591643  1  0  -0.717645  0  2.037266  0  0  -0.659266  0  2.294773  0  0  -0.691862  0  2.285651  0  -1.215707  0  -0.385831  -0.635896  0  2.30018  0
O  O114  1  0.51362064  0.18588779  0.92265930  1  0  -0.717206  0  2.038946  0  0  -0.658869  0  2.296089  0  0  -0.69149  0  2.287202  0  -1.2169  0  -0.386301  -0.635533  0  2.301465  0
O  O115  1  0.73587910  0.32633366  0.81401693  1  0  -0.71629  0  2.037699  0  0  -0.657747  0  2.295355  0  0  -0.690444  0  2.286501  0  -1.21393  0  -0.38509  -0.634355  0  2.300713  0
O  O116  1  0.48714217  0.40904383  0.67304127  1  0  -0.71663  0  2.03968  0  0  -0.657831  0  2.297237  0  0  -0.690473  0  2.288328  0  -1.212181  0  -0.386286  -0.6345  0  2.302627  0
O  O117  1  0.26326391  0.07778839  0.59053997  1  0  -0.717042  0  2.038812  0  0  -0.658398  0  2.296183  0  0  -0.691158  0  2.287363  0  -1.213822  0  -0.385296  -0.63496  0  2.301497  0
O  O118  1  0.70628850  0.24948115  0.43838064  1  0  -0.663769  0  1.99852  0  0  -0.619743  0  2.25287  0  0  -0.651304  0  2.244815  0  -1.197044  0  -0.339185  -0.597184  0  2.257688  0
O  O119  1  0.18832581  0.45668451  0.74899409  1  0  -0.665188  0  2.000598  0  0  -0.620695  0  2.255384  0  0  -0.652272  0  2.247231  0  -1.192809  0  -0.342126  -0.598083  0  2.260277  0
O  O120  1  0.29256208  0.73225238  0.54247361  1  0  -0.665248  0  2.002848  0  0  -0.621033  0  2.258917  0  0  -0.652665  0  2.250632  0  -1.192244  0  -0.342351  -0.598336  0  2.263732  0
O  O121  1  0.81206229  0.56104144  0.26859117  1  0  -0.6645  0  1.99789  0  0  -0.620529  0  2.252352  0  0  -0.652079  0  2.244146  0  -1.208553  0  -0.341354  -0.597977  0  2.257252  0
O  O122  1  0.31233423  0.01842615  0.81213143  1  0  -0.663569  0  1.996883  0  0  -0.619786  0  2.251132  0  0  -0.651273  0  2.243022  0  -1.204822  0  -0.33884  -0.59722  0  2.255914  0
O  O123  1  0.79221671  0.29254847  0.98173613  1  0  -0.663813  0  2.000494  0  0  -0.619642  0  2.255735  0  0  -0.651196  0  2.247551  0  -1.200558  0  -0.341562  -0.597063  0  2.260623  0
O  O124  1  0.68859329  0.49939514  0.70669220  1  0  -0.665478  0  2.001745  0  0  -0.621  0  2.256986  0  0  -0.652652  0  2.248749  0  -1.193731  0  -0.342448  -0.598365  0  2.261912  0
O  O125  1  0.20773851  0.18978918  0.50018408  1  0  -0.664255  0  2.00206  0  0  -0.619851  0  2.257156  0  0  -0.651509  0  2.249087  0  -1.199782  0  -0.341854  -0.597208  0  2.261938  0
O  O126  1  0.65678710  0.43632054  0.96658325  1  0  -0.73588  0  2.040407  0  0  -0.684745  0  2.30461  0  0  -0.715043  0  2.293076  0  -1.218597  0  -0.384391  -0.662854  0  2.311682  0
O  O127  1  0.53013264  0.22039999  0.56375101  1  0  -0.737988  0  2.041543  0  0  -0.686675  0  2.306239  0  0  -0.7171  0  2.294748  0  -1.21852  0  -0.385508  -0.664675  0  2.31326  0
O  O128  1  0.34310741  0.30932543  0.77928640  1  0  -0.738759  0  2.04262  0  0  -0.687586  0  2.307692  0  0  -0.717975  0  2.296235  0  -1.219846  0  -0.38721  -0.665629  0  2.314718  0
O  O129  1  0.46969101  0.03318262  0.69003261  1  0  -0.738349  0  2.042664  0  0  -0.686927  0  2.30776  0  0  -0.717298  0  2.296173  0  -1.217672  0  -0.386001  -0.664962  0  2.314875  0
O  O130  1  0.96918021  0.43955404  0.28290594  1  0  -0.736822  0  2.043605  0  0  -0.685481  0  2.308068  0  0  -0.715842  0  2.296628  0  -1.217323  0  -0.385123  -0.663534  0  2.315053  0
O  O131  1  0.84304220  0.52966243  0.55921082  1  0  -0.738029  0  2.041194  0  0  -0.68682  0  2.305707  0  0  -0.717175  0  2.294124  0  -1.220516  0  -0.385559  -0.664881  0  2.312825  0
O  O132  1  0.03075594  0.31390020  0.47075059  1  0  -0.738203  0  2.045728  0  0  -0.686566  0  2.310027  0  0  -0.716898  0  2.29844  0  -1.219496  0  -0.387006  -0.664647  0  2.317146  0
O  O133  1  0.15672992  0.71584269  0.68641368  1  0  -0.737575  0  2.038052  0  0  -0.686401  0  2.302761  0  0  -0.716822  0  2.291294  0  -1.219426  0  -0.384713  -0.664415  0  2.309795  0
O  O134  1  0.69878630  0.61057472  0.94601492  1  0  -0.599243  0  1.937471  0  0  -0.551555  0  2.154423  0  0  -0.575537  0  2.143804  0  -1.1753  0  -0.305999  -0.53482  0  2.161353  0
O  O135  1  0.33695016  0.08877000  0.39049944  1  0  -0.598734  0  1.939433  0  0  -0.550835  0  2.156908  0  0  -0.574844  0  2.146231  0  -1.185856  0  -0.304859  -0.534091  0  2.163895  0
O  O136  1  0.30072744  0.24743022  0.91129705  1  0  -0.599792  0  1.936831  0  0  -0.55219  0  2.153811  0  0  -0.576188  0  2.143245  0  -1.179748  0  -0.305566  -0.535465  0  2.16073  0
O  O137  1  0.66359205  0.05320943  0.75198253  1  0  -0.598537  0  1.940097  0  0  -0.550649  0  2.157415  0  0  -0.574683  0  2.146844  0  -1.175159  0  -0.304837  -0.533895  0  2.16434  0
O  O138  1  0.16342150  0.50238166  0.30322779  1  0  -0.598729  0  1.939881  0  0  -0.550893  0  2.156958  0  0  -0.574844  0  2.146328  0  -1.178332  0  -0.305339  -0.534193  0  2.163924  0
O  O139  1  0.80160495  0.66248684  0.49767498  1  0  -0.5989  0  1.937822  0  0  -0.551231  0  2.154732  0  0  -0.575266  0  2.144186  0  -1.175489  0  -0.305253  -0.534468  0  2.161645  0
O  O140  1  0.83746291  0.13993941  0.33969038  1  0  -0.598421  0  1.938624  0  0  -0.550825  0  2.155768  0  0  -0.57479  0  2.145102  0  -1.177312  0  -0.304646  -0.534109  0  2.162726  0
O  O141  1  0.19779225  0.69567053  0.86003811  1  0  -0.599678  0  1.936926  0  0  -0.551656  0  2.154335  0  0  -0.575693  0  2.143709  0  -1.175083  0  -0.30579  -0.534896  0  2.161291  0
O  O142  1  0.77273603  0.18359952  0.14415849  1  0  -0.849195  0  1.857029  0  0  -0.806681  0  2.042444  0  0  -0.831706  0  2.016134  0  -1.240926  0  -0.612719  -0.788496  0  2.060721  0
O  O143  1  0.95843144  0.58767995  0.81492724  1  0  -0.850565  0  1.859358  0  0  -0.808139  0  2.045181  0  0  -0.833243  0  2.018812  0  -1.25624  0  -0.614132  -0.789885  0  2.063522  0
O  O144  1  0.22844165  0.37188097  0.41227862  1  0  -0.849451  0  1.857965  0  0  -0.806872  0  2.04382  0  0  -0.831971  0  2.017541  0  -1.225753  0  -0.613295  -0.78862  0  2.0621  0
O  O145  1  0.04073154  0.85637324  0.62938480  1  0  -0.849274  0  1.859594  0  0  -0.806934  0  2.045145  0  0  -0.832084  0  2.018726  0  -1.260514  0  -0.61319  -0.788628  0  2.063506  0
O  O146  1  0.53997711  0.37892514  0.10581565  1  0  -0.849148  0  1.85729  0  0  -0.80685  0  2.04254  0  0  -0.831862  0  2.016247  0  -1.261189  0  -0.612191  -0.788666  0  2.060805  0
O  O147  1  0.72739862  0.16132295  0.62090566  1  0  -0.850863  0  1.859152  0  0  -0.808308  0  2.045312  0  0  -0.833516  0  2.01888  0  -1.257456  0  -0.614357  -0.789983  0  2.063667  0
O  O148  1  0.45925803  0.56562403  0.83781879  1  0  -0.848805  0  1.858475  0  0  -0.806474  0  2.044211  0  0  -0.831529  0  2.017921  0  -1.263188  0  -0.61277  -0.788255  0  2.062478  0
O  O149  1  0.27223140  0.89337221  0.43446331  1  0  -0.850871  0  1.859492  0  0  -0.808012  0  2.04588  0  0  -0.833099  0  2.019406  0  -1.250298  0  -0.614453  -0.789783  0  2.064243  0
