# generated using pymatgen
data_ZnH12C27N3O10
_symmetry_space_group_name_H-M   'P 1'
_cell_length_a   13.80798897
_cell_length_b   15.19430990
_cell_length_c   19.10207776
_cell_angle_alpha   89.72866124
_cell_angle_beta   90.66937785
_cell_angle_gamma   90.58322626
_symmetry_Int_Tables_number   1
_chemical_formula_structural   ZnH12C27N3O10
_chemical_formula_sum   'Zn2 H24 C54 N6 O20'
_cell_volume   4007.14678378
_cell_formula_units_Z   2
loop_
 _symmetry_equiv_pos_site_id
 _symmetry_equiv_pos_as_xyz
  1  'x, y, z'
loop_
 _atom_site_type_symbol
 _atom_site_label
 _atom_site_symmetry_multiplicity
 _atom_site_fract_x
 _atom_site_fract_y
 _atom_site_fract_z
 _atom_site_occupancy
 _atom_site_pbe_bader_charge
 _atom_site_pbe_bader_spin_density
 _atom_site_pbe_cm5_charge
 _atom_site_pbe_ddec_charge
 _atom_site_pbe_ddec_spin_density
 _atom_site_pbe_ddec_sum_bond_order
 _atom_site_pbe_magmom
Zn  Zn0  1  0.39754303  0.49614911  0.49790716  1  1.285817  0  0.67137  0.817781  0  2.437102  0
Zn  Zn1  1  0.59882288  0.49051424  0.49763310  1  1.284915  0  0.672048  0.816943  0  2.437886  0
H  H2  1  0.34501830  0.50570614  0.72085076  1  0.103397  0  0.104921  0.111413  0  0.99931  0
H  H3  1  0.65658982  0.51886313  0.27650740  1  0.076773  0  0.100727  0.104838  0  1.012568  0
H  H4  1  0.34583864  0.52204592  0.27509765  1  0.101613  0  0.107089  0.1127  0  0.993606  0
H  H5  1  0.65463374  0.53294208  0.71813810  1  0.108641  0  0.107613  0.114342  0  0.992122  0
H  H6  1  0.34507204  0.54218647  0.84871008  1  0.104938  0  0.108646  0.109508  0  1.005949  0
H  H7  1  0.65691980  0.55530450  0.14830302  1  0.099692  0  0.105774  0.105202  0  1.011322  0
H  H8  1  0.34527544  0.55754039  0.14668643  1  0.106034  0  0.108678  0.108006  0  1.007891  0
H  H9  1  0.65592654  0.56679324  0.84666125  1  0.096793  0  0.107759  0.106437  0  1.010083  0
H  H10  1  0.35717039  0.20992505  0.55687668  1  0.078102  0  0.100869  0.104957  0  1.016353  0
H  H11  1  0.64061363  0.77734245  0.43916604  1  0.093502  0  0.105332  0.116072  0  1.00228  0
H  H12  1  0.69989467  0.08422005  0.39933971  1  0.060516  0  0.107647  0.118699  0  0.99717  0
H  H13  1  0.30593451  0.90375971  0.60481614  1  0.112046  0  0.107247  0.118616  0  1.001661  0
H  H14  1  0.70900401  0.92197765  0.40240060  1  0.080833  0  0.107985  0.114879  0  0.985795  0
H  H15  1  0.29445187  0.06517419  0.59923421  1  0.038824  0  0.101044  0.100714  0  0.996084  0
H  H16  1  0.25038820  0.40160118  0.57103861  1  0.132172  0  0.130108  0.108643  0  0.997405  0
H  H17  1  0.74571033  0.58817331  0.42544667  1  0.141289  0  0.1289  0.10766  0  1.004623  0
H  H18  1  0.24376686  0.61177351  0.43371635  1  0.154715  0  0.131864  0.112666  0  0.996064  0
H  H19  1  0.75234038  0.38122941  0.56560127  1  0.170973  0  0.131624  0.115617  0  0.997649  0
H  H20  1  0.62689312  0.33737719  0.35694452  1  0.627343  0  0.333669  0.382827  0  0.866427  0
H  H21  1  0.37458302  0.67645803  0.66579742  1  0.622029  0  0.335413  0.373489  0  0.871824  0
H  H22  1  0.18608421  0.78240012  0.37139742  1  0.63752  0  0.362463  0.398158  0  0.823181  0
H  H23  1  0.80186984  0.28569812  0.69472627  1  0.631045  0  0.361638  0.398554  0  0.824367  0
H  H24  1  0.19506265  0.22346320  0.63865575  1  0.620139  0  0.35289  0.388642  0  0.839882  0
H  H25  1  0.80328379  0.68103013  0.28846526  1  0.630259  0  0.357987  0.396327  0  0.827092  0
C  C26  1  0.51454274  0.66418350  0.49728070  1  1.587224  0  0.217523  0.599102  0  4.164824  0
C  C27  1  0.48233582  0.32342928  0.49922894  1  1.582301  0  0.217613  0.602085  0  4.170903  0
C  C28  1  0.56168702  0.18372831  0.46088379  1  -0.012952  0  -0.004034  -0.090683  0  3.888101  0
C  C29  1  0.44202361  0.80403022  0.54132397  1  -0.05445  0  -0.001057  -0.081547  0  3.884285  0
C  C30  1  0.56985259  0.09119704  0.46242545  1  0.054063  0  0.003276  0.064122  0  3.993217  0
C  C31  1  0.43482478  0.89663633  0.54034057  1  0.056028  0  0.000432  0.057877  0  3.993911  0
C  C32  1  0.49907655  0.04065120  0.49998396  1  0.037051  0  0.005089  0.002726  0  3.907794  0
C  C33  1  0.50491547  0.94715763  0.50215854  1  0.000877  0  0.00559  0.004908  0  3.911007  0
C  C34  1  0.42183825  0.08368362  0.53482656  1  -0.060089  0  -0.00642  0.07889  0  4.056825  0
C  C35  1  0.58098620  0.90392917  0.46616746  1  -0.056454  0  -0.004849  0.075782  0  4.049462  0
C  C36  1  0.64550539  0.04564064  0.42711250  1  0.017276  0  -0.085999  -0.124715  0  3.98871  0
C  C37  1  0.35965177  0.94214293  0.57621861  1  -0.045914  0  -0.086893  -0.123608  0  3.994108  0
C  C38  1  0.65075063  0.95596022  0.42903639  1  -0.060328  0  -0.084136  -0.12197  0  3.992542  0
C  C39  1  0.35319826  0.03160771  0.57283040  1  -0.04759  0  -0.089385  -0.128225  0  4.018867  0
C  C40  1  0.20402472  0.44619362  0.54134429  1  0.573035  0  0.072156  0.072885  0  3.847578  0
C  C41  1  0.79223460  0.54495758  0.45628448  1  0.559218  0  0.070212  0.069065  0  3.854137  0
C  C42  1  0.20027631  0.56460401  0.46298909  1  0.557335  0  0.07569  0.078189  0  3.828434  0
C  C43  1  0.79587177  0.42879630  0.53683748  1  0.486583  0  0.074735  0.078318  0  3.826731  0
C  C44  1  0.09851022  0.56555068  0.46064841  1  -0.001935  0  0.015051  0.026629  0  3.961006  0
C  C45  1  0.89737948  0.43158754  0.54276701  1  0.101546  0  0.01469  0.028051  0  3.958204  0
C  C46  1  0.10286440  0.44069844  0.54372359  1  0.000382  0  0.011047  0.016499  0  3.995091  0
C  C47  1  0.89333197  0.55228169  0.45570966  1  -0.022309  0  0.010169  0.017224  0  3.994602  0
C  C48  1  0.04914322  0.50076506  0.50159452  1  0.005238  0  0.024342  0.032451  0  3.938887  0
C  C49  1  0.94679717  0.49482146  0.50033212  1  -0.015965  0  0.024056  0.030079  0  3.937951  0
C  C50  1  0.04270655  0.62465939  0.41689927  1  0.014094  0  0.011248  -0.071389  0  3.883081  0
C  C51  1  0.95318019  0.37356055  0.58754940  1  0.002885  0  0.010938  -0.073798  0  3.882318  0
C  C52  1  0.05289533  0.37738775  0.58665494  1  0.006307  0  0.022757  -0.040841  0  3.875846  0
C  C53  1  0.94339221  0.61635397  0.41351411  1  0.019129  0  0.020917  -0.041256  0  3.872413  0
C  C54  1  0.49917520  0.50290929  0.63446141  1  1.558908  0  0.21254  0.585986  0  4.18133  0
C  C55  1  0.50068194  0.49996447  0.36028930  1  1.572893  0  0.215209  0.591516  0  4.168205  0
C  C56  1  0.41260530  0.51996713  0.74881183  1  -0.103562  0  -0.086184  -0.102355  0  3.985172  0
C  C57  1  0.58884925  0.52755326  0.24755056  1  -0.007466  0  -0.086904  -0.09845  0  3.98601  0
C  C58  1  0.41332858  0.52941067  0.24662099  1  -0.062673  0  -0.079627  -0.084042  0  3.96728  0
C  C59  1  0.58758586  0.53451158  0.74756273  1  -0.0066  0  -0.079411  -0.082064  0  3.959605  0
C  C60  1  0.41256680  0.53965686  0.81981048  1  0.007994  0  -0.080599  -0.106335  0  3.961488  0
C  C61  1  0.58917108  0.54773475  0.17651599  1  -0.090597  0  -0.083446  -0.108749  0  3.969571  0
C  C62  1  0.41306150  0.54906283  0.17555206  1  -0.014736  0  -0.078167  -0.102642  0  3.957804  0
C  C63  1  0.58822255  0.55339767  0.81865690  1  -0.049428  0  -0.078456  -0.103813  0  3.957047  0
C  C64  1  0.50051694  0.55711516  0.85522669  1  0.013688  0  -0.004085  0.021837  0  3.998767  0
C  C65  1  0.50111195  0.55891477  0.13995592  1  -0.007197  0  -0.003958  0.020854  0  4.001849  0
C  C66  1  0.49990760  0.51822793  0.71199305  1  -0.04178  0  -0.011557  -0.020367  0  3.951564  0
C  C67  1  0.50100916  0.51857272  0.28320074  1  -0.006  0  -0.012173  -0.020572  0  3.951155  0
C  C68  1  0.50099098  0.57876073  0.06487777  1  0.975009  0  0.238691  0.244072  0  4.002371  0
C  C69  1  0.50063109  0.57774208  0.93000537  1  0.956262  0  0.239938  0.245853  0  3.997576  0
C  C70  1  0.41592441  0.17563622  0.53117295  1  -0.060268  0  -0.08329  -0.147928  0  3.954739  0
C  C71  1  0.58421783  0.81172276  0.46735631  1  -0.026535  0  -0.077996  -0.139599  0  3.936626  0
C  C72  1  0.48524548  0.22502081  0.49561979  1  0.015467  0  -0.009059  -0.032982  0  3.974487  0
C  C73  1  0.51512250  0.76229141  0.50339589  1  0.04587  0  -0.012725  -0.04542  0  3.980264  0
C  C74  1  0.63191717  0.24046543  0.42136961  1  1.495666  0  0.229394  0.595667  0  4.12857  0
C  C75  1  0.37346832  0.75125064  0.58568634  1  1.546557  0  0.230097  0.597939  0  4.1255  0
C  C76  1  0.08847615  0.69405050  0.37148863  1  1.550729  0  0.238645  0.574392  0  4.133604  0
C  C77  1  0.90838332  0.30680758  0.63569625  1  1.561718  0  0.240652  0.578784  0  4.117377  0
C  C78  1  0.11344646  0.32210771  0.63593952  1  1.548189  0  0.236006  0.580626  0  4.157845  0
C  C79  1  0.88274001  0.67843710  0.36981982  1  1.573216  0  0.237066  0.578545  0  4.154685  0
N  N80  1  0.58623140  0.59216815  0.96358002  1  -0.57656  0  -0.156363  -0.149014  0  3.219047  0
N  N81  1  0.41527207  0.59034562  0.03111305  1  -0.464802  0  -0.155907  -0.147982  0  3.222217  0
N  N82  1  0.58650151  0.59318578  0.03246850  1  -0.554858  0  -0.159328  -0.153795  0  3.217993  0
N  N83  1  0.41495971  0.59036222  0.96224471  1  -0.638158  0  -0.157571  -0.151756  0  3.214844  0
N  N84  1  0.24971043  0.50572820  0.50137567  1  -1.250412  0  -0.312264  -0.177179  0  3.54361  0
N  N85  1  0.74664722  0.48484439  0.49572154  1  -1.244364  0  -0.315173  -0.18042  0  3.553834  0
O  O86  1  0.43240185  0.62673150  0.50504979  1  -1.164602  0  -0.306411  -0.541919  0  2.385751  0
O  O87  1  0.56384016  0.36138249  0.51018369  1  -1.171076  0  -0.314301  -0.552096  0  2.369893  0
O  O88  1  0.40093057  0.36083480  0.49273448  1  -1.160589  0  -0.314079  -0.53386  0  2.295189  0
O  O89  1  0.59337642  0.62567873  0.48359294  1  -1.173914  0  -0.315035  -0.542432  0  2.311879  0
O  O90  1  0.41726204  0.48713751  0.60535072  1  -1.169489  0  -0.32231  -0.559571  0  2.328149  0
O  O91  1  0.58147657  0.47991441  0.38926015  1  -1.17465  0  -0.319533  -0.568598  0  2.335793  0
O  O92  1  0.42020153  0.50693358  0.39144884  1  -1.165852  0  -0.313841  -0.541462  0  2.315476  0
O  O93  1  0.58007895  0.50892478  0.60340465  1  -1.161264  0  -0.315836  -0.540143  0  2.314606  0
O  O94  1  0.71959424  0.24342556  0.43082359  1  -1.105453  0  -0.306318  -0.503779  0  2.057102  0
O  O95  1  0.58433320  0.28892846  0.37217779  1  -1.12257  0  -0.339728  -0.484144  0  2.241759  0
O  O96  1  0.28546816  0.74812742  0.57858586  1  -1.138689  0  -0.304115  -0.501518  0  2.068131  0
O  O97  1  0.42187396  0.71182217  0.63962268  1  -1.115986  0  -0.337318  -0.480843  0  2.233239  0
O  O98  1  0.06033847  0.71077284  0.31218392  1  -1.110295  0  -0.277888  -0.46449  0  2.066651  0
O  O99  1  0.16248426  0.73714080  0.40399253  1  -1.114327  0  -0.311297  -0.456491  0  2.234678  0
O  O100  1  0.94563428  0.23644294  0.64996484  1  -1.108151  0  -0.271542  -0.457686  0  2.074682  0
O  O101  1  0.82381565  0.33352727  0.66388778  1  -1.119472  0  -0.317222  -0.468964  0  2.226925  0
O  O102  1  0.12582335  0.34055977  0.69733764  1  -1.099813  0  -0.280685  -0.461583  0  2.034887  0
O  O103  1  0.15774915  0.25532635  0.60275324  1  -1.103285  0  -0.323118  -0.46884  0  2.222016  0
O  O104  1  0.86802457  0.75460689  0.38557573  1  -1.110671  0  -0.276017  -0.460481  0  2.049727  0
O  O105  1  0.84180203  0.63711386  0.31400242  1  -1.108531  0  -0.323461  -0.472244  0  2.213054  0
