# generated using pymatgen
data_ZnP2H14(CO)6
_symmetry_space_group_name_H-M   'P 1'
_cell_length_a   7.95940584
_cell_length_b   8.50478243
_cell_length_c   9.45469020
_cell_angle_alpha   116.75428271
_cell_angle_beta   101.34364725
_cell_angle_gamma   89.99430996
_symmetry_Int_Tables_number   1
_chemical_formula_structural   ZnP2H14(CO)6
_chemical_formula_sum   'Zn2 P4 H28 C12 O12'
_cell_volume   557.46894500
_cell_formula_units_Z   2
loop_
 _symmetry_equiv_pos_site_id
 _symmetry_equiv_pos_as_xyz
  1  'x, y, z'
loop_
 _atom_site_type_symbol
 _atom_site_label
 _atom_site_symmetry_multiplicity
 _atom_site_fract_x
 _atom_site_fract_y
 _atom_site_fract_z
 _atom_site_occupancy
 _atom_site_pbe_bader_spin_density
 _atom_site_pbe_cm5_charge
 _atom_site_pbe_ddec_charge
 _atom_site_pbe_ddec_spin_density
 _atom_site_pbe_ddec_sum_bond_order
 _atom_site_pbe_magmom
Zn  Zn0  1  0.24992022  0.55769049  0.99996561  1  0  0.726799  1.061599  0  2.253908  0
Zn  Zn1  1  0.75007724  0.44231620  0.00003072  1  0  0.72678  1.061652  0  2.254316  0
P  P2  1  0.48564690  0.39163486  0.18326599  1  0  0.360797  1.31966  0  5.273472  0
P  P3  1  0.01432060  0.20810676  0.81657395  1  0  0.360515  1.31975  0  5.274188  0
P  P4  1  0.51435407  0.60836774  0.81673340  1  0  0.360714  1.31942  0  5.273533  0
P  P5  1  0.98567043  0.79189826  0.18343125  1  0  0.360647  1.320077  0  5.273718  0
H  H6  1  0.44975803  0.12292938  0.15463243  1  0  0.347567  0.407766  0  0.852006  0
H  H7  1  0.05058321  0.96815516  0.84527579  1  0  0.347562  0.408077  0  0.851674  0
H  H8  1  0.55024253  0.87706938  0.84536103  1  0  0.347553  0.407765  0  0.852018  0
H  H9  1  0.94942382  0.03184344  0.15472496  1  0  0.347583  0.40813  0  0.851598  0
H  H10  1  0.72105450  0.59883799  0.35637263  1  0  0.109848  0.155831  0  1.021653  0
H  H11  1  0.77902026  0.24205003  0.64340359  1  0  0.11006  0.156268  0  1.020944  0
H  H12  1  0.27894755  0.40117669  0.64362676  1  0  0.109924  0.155918  0  1.021565  0
H  H13  1  0.22097445  0.75795381  0.35659745  1  0  0.110058  0.156259  0  1.020972  0
H  H14  1  0.59958343  0.54934972  0.47189634  1  0  0.105466  0.147041  0  1.010132  0
H  H15  1  0.90035838  0.07677318  0.52791760  1  0  0.10544  0.146501  0  1.010279  0
H  H16  1  0.40042452  0.45064658  0.52809195  1  0  0.105485  0.147027  0  1.010084  0
H  H17  1  0.09962894  0.92323308  0.47208966  1  0  0.105416  0.14644  0  1.010242  0
H  H18  1  0.71268558  0.25248326  0.38636567  1  0  0.086936  0.073687  0  1.013833  0
H  H19  1  0.78702315  0.86568821  0.61353052  1  0  0.087033  0.073855  0  1.013903  0
H  H20  1  0.28731731  0.74751280  0.61362913  1  0  0.086926  0.073685  0  1.013836  0
H  H21  1  0.21297467  0.13430764  0.38646973  1  0  0.087019  0.073833  0  1.013962  0
H  H22  1  0.82159597  0.29031044  0.25764157  1  0  0.088213  0.077106  0  1.008224  0
H  H23  1  0.67829951  0.03256349  0.74234280  1  0  0.088492  0.077943  0  1.007817  0
H  H24  1  0.17840533  0.70969630  0.74235434  1  0  0.088168  0.07702  0  1.008217  0
H  H25  1  0.32169797  0.96744143  0.25766760  1  0  0.08849  0.077985  0  1.007787  0
H  H26  1  0.89990240  0.51462432  0.62844553  1  0  0.089237  0.096278  0  0.972882  0
H  H27  1  0.59988019  0.88585007  0.37153686  1  0  0.089417  0.096437  0  0.972946  0
H  H28  1  0.10010352  0.48537714  0.37154886  1  0  0.089269  0.096347  0  0.972859  0
H  H29  1  0.40010749  0.11414707  0.62846235  1  0  0.089403  0.096421  0  0.972967  0
H  H30  1  0.00910889  0.33299584  0.52362637  1  0  0.085947  0.079681  0  1.021966  0
H  H31  1  0.49051082  0.80934639  0.47634099  1  0  0.085976  0.079383  0  1.022064  0
H  H32  1  0.99090006  0.66699618  0.47637084  1  0  0.085953  0.079674  0  1.022053  0
H  H33  1  0.50948765  0.19065602  0.52366427  1  0  0.086019  0.079465  0  1.022021  0
C  C34  1  0.65516244  0.49006893  0.36394820  1  0  -0.173854  -0.490605  0  3.940489  0
C  C35  1  0.84483998  0.12565164  0.63590767  1  0  -0.174074  -0.490171  0  3.941047  0
C  C36  1  0.34485400  0.50993519  0.63605003  1  0  -0.17389  -0.490565  0  3.940307  0
C  C37  1  0.15515233  0.87435339  0.36409774  1  0  -0.174051  -0.490196  0  3.941114  0
C  C38  1  0.78043178  0.35661788  0.37364321  1  0  -0.164701  -0.101805  0  3.96999  0
C  C39  1  0.71942746  0.98268903  0.62631028  1  0  -0.165066  -0.102947  0  3.97168  0
C  C40  1  0.21957252  0.64337948  0.62635341  1  0  -0.164633  -0.101695  0  3.969773  0
C  C41  1  0.28057105  0.01731325  0.37369916  1  0  -0.165066  -0.102996  0  3.971602  0
C  C42  1  0.93951892  0.43993329  0.51229294  1  0  -0.169363  -0.143165  0  3.910599  0
C  C43  1  0.56031648  0.92749278  0.48770666  1  0  -0.169749  -0.143201  0  3.911425  0
C  C44  1  0.06048498  0.56006019  0.48769880  1  0  -0.169504  -0.143377  0  3.910761  0
C  C45  1  0.43968587  0.07250955  0.51230234  1  0  -0.169756  -0.143242  0  3.911325  0
O  O46  1  0.56651025  0.31762389  0.03468494  1  0  -0.38194  -0.776866  0  2.290079  0
O  O47  1  0.93336329  0.28257858  0.96509271  1  0  -0.381454  -0.776376  0  2.289936  0
O  O48  1  0.43350684  0.68237361  0.96531058  1  0  -0.381848  -0.776753  0  2.290374  0
O  O49  1  0.06662446  0.71743150  0.03492153  1  0  -0.381532  -0.776492  0  2.289841  0
O  O50  1  0.35035436  0.51974486  0.18889100  1  0  -0.364404  -0.740107  0  2.300522  0
O  O51  1  0.14934912  0.33076049  0.81083121  1  0  -0.364419  -0.740084  0  2.300061  0
O  O52  1  0.64965637  0.48023760  0.81111300  1  0  -0.364452  -0.740128  0  2.300335  0
O  O53  1  0.85063263  0.66922717  0.18916939  1  0  -0.364449  -0.740204  0  2.29981  0
O  O54  1  0.38674254  0.22743521  0.18592868  1  0  -0.383245  -0.63551  0  2.196097  0
O  O55  1  0.11348610  0.04138771  0.81396430  1  0  -0.383028  -0.63601  0  2.195616  0
O  O56  1  0.61326057  0.77256359  0.81406414  1  0  -0.383201  -0.635425  0  2.196038  0
O  O57  1  0.88650746  0.95861742  0.18603817  1  0  -0.383028  -0.636064  0  2.195533  0
