# generated using pymatgen
data_AgH12C12S(NO)3
_symmetry_space_group_name_H-M   'P 1'
_cell_length_a   7.49039127
_cell_length_b   7.96497081
_cell_length_c   12.22727397
_cell_angle_alpha   88.52395389
_cell_angle_beta   78.01010114
_cell_angle_gamma   70.30069806
_symmetry_Int_Tables_number   1
_chemical_formula_structural   AgH12C12S(NO)3
_chemical_formula_sum   'Ag2 H24 C24 S2 N6 O6'
_cell_volume   671.03526713
_cell_formula_units_Z   2
loop_
 _symmetry_equiv_pos_site_id
 _symmetry_equiv_pos_as_xyz
  1  'x, y, z'
loop_
 _atom_site_type_symbol
 _atom_site_label
 _atom_site_symmetry_multiplicity
 _atom_site_fract_x
 _atom_site_fract_y
 _atom_site_fract_z
 _atom_site_occupancy
 _atom_site_hle17_bader_spin_density
 _atom_site_hle17_ddec_charge
 _atom_site_hle17_ddec_spin_density
 _atom_site_hle17_ddec_sum_bond_order
 _atom_site_hle17_magmom
 _atom_site_hse06_10hf_bader_spin_density
 _atom_site_hse06_10hf_ddec_charge
 _atom_site_hse06_10hf_ddec_spin_density
 _atom_site_hse06_10hf_ddec_sum_bond_order
 _atom_site_hse06_10hf_magmom
 _atom_site_hse06_bader_spin_density
 _atom_site_hse06_ddec_charge
 _atom_site_hse06_ddec_spin_density
 _atom_site_hse06_ddec_sum_bond_order
 _atom_site_hse06_magmom
 _atom_site_pbe_bader_spin_density
 _atom_site_pbe_cm5_charge
 _atom_site_pbe_ddec_charge
 _atom_site_pbe_ddec_spin_density
 _atom_site_pbe_ddec_sum_bond_order
 _atom_site_pbe_magmom
Ag  Ag0  1  0.29224226  0.16315797  0.27585631  1  0  0.400285  0  1.62534  0  0  0.2537  0  2.100627  0  0  0.280554  0  2.056216  0  0  0.41426  0.23578  0  2.130877  0
Ag  Ag1  1  0.70776600  0.83684094  0.72414243  1  0  0.400346  0  1.625307  0  0  0.25375  0  2.100623  0  0  0.280595  0  2.056211  0  0  0.414281  0.235826  0  2.13087  0
H  H2  1  0.24624157  0.61473610  0.05337264  1  0  0.120106  0  0.968556  0  0  0.124692  0  1.036887  0  0  0.128695  0  1.034942  0  0  0.106371  0.121734  0  1.038542  0
H  H3  1  0.75375380  0.38526816  0.94662760  1  0  0.12012  0  0.968592  0  0  0.124693  0  1.036955  0  0  0.128689  0  1.035012  0  0  0.106361  0.121733  0  1.038609  0
H  H4  1  0.48709580  0.59467718  0.87395200  1  0  0.07428  0  0.943552  0  0  0.08483  0  1.007808  0  0  0.086959  0  1.005589  0  0  0.113162  0.083193  0  1.009532  0
H  H5  1  0.51290709  0.40531776  0.12604914  1  0  0.074257  0  0.943716  0  0  0.084819  0  1.007963  0  0  0.086936  0  1.005756  0  0  0.113155  0.083183  0  1.009687  0
H  H6  1  0.37890050  0.14068928  0.88934175  1  0  0.076017  0  0.954174  0  0  0.086341  0  1.018627  0  0  0.088571  0  1.016476  0  0  0.111113  0.084599  0  1.020395  0
H  H7  1  0.62111659  0.85930423  0.11065273  1  0  0.07602  0  0.954099  0  0  0.086316  0  1.01857  0  0  0.088572  0  1.016391  0  0  0.111144  0.084575  0  1.02034  0
H  H8  1  0.13666360  0.18211637  0.06667129  1  0  0.116978  0  0.959785  0  0  0.12485  0  1.023277  0  0  0.127798  0  1.022278  0  0  0.107389  0.122642  0  1.024255  0
H  H9  1  0.86335550  0.81788650  0.93332355  1  0  0.117021  0  0.959763  0  0  0.1249  0  1.023274  0  0  0.127849  0  1.022274  0  0  0.107401  0.122702  0  1.024225  0
H  H10  1  0.98345910  0.80353361  0.19556172  1  0  0.117698  0  0.963869  0  0  0.127441  0  1.030339  0  0  0.129813  0  1.028804  0  0  0.10241  0.125647  0  1.031552  0
H  H11  1  0.01654635  0.19646926  0.80443483  1  0  0.117752  0  0.963876  0  0  0.127492  0  1.03033  0  0  0.129865  0  1.028795  0  0  0.102433  0.125697  0  1.031543  0
H  H12  1  0.91127399  0.04256369  0.19115030  1  0  0.125768  0  0.936242  0  0  0.14238  0  0.992153  0  0  0.143367  0  0.993034  0  0  0.10901  0.141623  0  0.991634  0
H  H13  1  0.08872775  0.95744185  0.80884584  1  0  0.125747  0  0.936289  0  0  0.142352  0  0.992229  0  0  0.14334  0  0.99311  0  0  0.108998  0.141595  0  0.99171  0
H  H14  1  0.25039994  0.62254794  0.31959491  1  0  0.121612  0  0.928001  0  0  0.136245  0  0.986514  0  0  0.138172  0  0.985444  0  0  0.104143  0.134778  0  0.987428  0
H  H15  1  0.74959310  0.37745896  0.68040392  1  0  0.121618  0  0.928063  0  0  0.136227  0  0.986586  0  0  0.138152  0  0.985521  0  0  0.104142  0.134759  0  0.987499  0
H  H16  1  0.42196961  0.70019297  0.22701884  1  0  0.108908  0  0.935482  0  0  0.1225  0  0.999873  0  0  0.124059  0  0.999056  0  0  0.10314  0.12133  0  1.000543  0
H  H17  1  0.57802909  0.29980595  0.77298110  1  0  0.108971  0  0.935479  0  0  0.122553  0  0.999856  0  0  0.124113  0  0.999037  0  0  0.103159  0.121381  0  1.000526  0
H  H18  1  0.19953718  0.69147199  0.53594187  1  0  0.111139  0  0.941021  0  0  0.120431  0  1.003818  0  0  0.123941  0  1.002348  0  0  0.105764  0.117868  0  1.005082  0
H  H19  1  0.80045410  0.30853227  0.46405888  1  0  0.111171  0  0.941112  0  0  0.120458  0  1.0039  0  0  0.123968  0  1.002431  0  0  0.105776  0.117895  0  1.005163  0
H  H20  1  0.37304370  0.71264699  0.68323961  1  0  0.086147  0  0.968599  0  0  0.093194  0  1.036674  0  0  0.095901  0  1.033843  0  0  0.111849  0.091155  0  1.038824  0
H  H21  1  0.62694602  0.28734664  0.31676485  1  0  0.08612  0  0.968627  0  0  0.093083  0  1.036804  0  0  0.095786  0  1.03398  0  0  0.111813  0.091044  0  1.038953  0
H  H22  1  0.81800163  0.80602566  0.45293364  1  0  0.064193  0  0.954782  0  0  0.067887  0  1.028704  0  0  0.070539  0  1.026581  0  0  0.103651  0.065908  0  1.030314  0
H  H23  1  0.18198737  0.19397733  0.54707152  1  0  0.064207  0  0.954822  0  0  0.067884  0  1.028747  0  0  0.070536  0  1.026625  0  0  0.103631  0.065906  0  1.030359  0
H  H24  1  0.66450469  0.78127228  0.29407326  1  0  0.11075  0  0.975013  0  0  0.11979  0  1.039612  0  0  0.122601  0  1.038783  0  0  0.106217  0.11767  0  1.040552  0
H  H25  1  0.33549200  0.21873204  0.70593090  1  0  0.110708  0  0.975067  0  0  0.119758  0  1.03966  0  0  0.122568  0  1.038836  0  0  0.106192  0.117638  0  1.0406  0
C  C26  1  0.27638160  0.73316079  0.02047811  1  0  -0.168  0  3.67979  0  0  -0.184622  0  3.925384  0  0  -0.193052  0  3.947241  0  0  -0.086061  -0.179198  0  3.910921  0
C  C27  1  0.72362347  0.26683940  0.97951774  1  0  -0.167875  0  3.679672  0  0  -0.18453  0  3.925293  0  0  -0.192949  0  3.947138  0  0  -0.085991  -0.179104  0  3.910826  0
C  C28  1  0.40867544  0.72235267  0.92002170  1  0  0.134149  0  3.711454  0  0  0.102837  0  3.965768  0  0  0.110388  0  3.983276  0  0  0.042147  0.097858  0  3.954017  0
C  C29  1  0.59133058  0.27764491  0.07997735  1  0  0.134065  0  3.711396  0  0  0.10274  0  3.965718  0  0  0.110308  0  3.983218  0  0  0.042122  0.097762  0  3.953965  0
C  C30  1  0.34856389  0.02573519  0.92787848  1  0  0.12222  0  3.729584  0  0  0.093375  0  3.981197  0  0  0.09965  0  4.000181  0  0  0.037628  0.089339  0  3.968327  0
C  C31  1  0.65144625  0.97426235  0.07211760  1  0  0.122255  0  3.729657  0  0  0.093449  0  3.981295  0  0  0.099711  0  4.000277  0  0  0.037638  0.089407  0  3.968428  0
C  C32  1  0.21353515  0.04881103  0.02797761  1  0  -0.167082  0  3.707718  0  0  -0.185684  0  3.958464  0  0  -0.192878  0  3.979519  0  0  -0.08854  -0.181124  0  3.944474  0
C  C33  1  0.78647628  0.95119046  0.97201496  1  0  -0.16707  0  3.707718  0  0  -0.185751  0  3.958472  0  0  -0.192949  0  3.979539  0  0  -0.088573  -0.181193  0  3.9445  0
C  C34  1  0.17728492  0.89967344  0.07714242  1  0  0.147249  0  3.755512  0  0  0.164989  0  3.988042  0  0  0.168884  0  4.012229  0  0  0.003584  0.16251  0  3.971581  0
C  C35  1  0.82271816  0.10033214  0.92285683  1  0  0.147133  0  3.755676  0  0  0.164976  0  3.988133  0  0  0.16887  0  4.012324  0  0  0.003547  0.162493  0  3.971668  0
C  C36  1  0.03467010  0.91792213  0.18562379  1  0  -0.203594  0  3.633615  0  0  -0.241707  0  3.875125  0  0  -0.24227  0  3.885052  0  0  -0.14675  -0.241206  0  3.868316  0
C  C37  1  0.96533351  0.08208207  0.81437215  1  0  -0.203634  0  3.633801  0  0  -0.241745  0  3.875211  0  0  -0.242311  0  3.885143  0  0  -0.146736  -0.241239  0  3.868393  0
C  C38  1  0.31929551  0.72550812  0.30821435  1  0  -0.195121  0  3.626356  0  0  -0.237485  0  3.876676  0  0  -0.237629  0  3.886212  0  0  -0.142568  -0.237249  0  3.870027  0
C  C39  1  0.68069937  0.27449747  0.69178593  1  0  -0.195267  0  3.626486  0  0  -0.237582  0  3.876702  0  0  -0.237728  0  3.886237  0  0  -0.142586  -0.237346  0  3.870051  0
C  C40  1  0.41811006  0.73534836  0.40144124  1  0  0.142615  0  3.76134  0  0  0.161045  0  3.997943  0  0  0.164705  0  4.021027  0  0  0.001717  0.158707  0  3.982285  0
C  C41  1  0.58188268  0.26465191  0.59856024  1  0  0.142637  0  3.761467  0  0  0.161142  0  3.997934  0  0  0.164801  0  4.021018  0  0  0.001705  0.158805  0  3.982271  0
C  C42  1  0.33627617  0.71716775  0.51287026  1  0  -0.164084  0  3.711831  0  0  -0.183692  0  3.960381  0  0  -0.192065  0  3.984442  0  0  -0.086676  -0.178278  0  3.944312  0
C  C43  1  0.66372477  0.28283251  0.48713019  1  0  -0.164088  0  3.711729  0  0  -0.183715  0  3.960198  0  0  -0.192086  0  3.984255  0  0  -0.08667  -0.178302  0  3.944131  0
C  C44  1  0.43309565  0.72969802  0.59625459  1  0  0.121325  0  3.704588  0  0  0.091359  0  3.955755  0  0  0.097435  0  3.97522  0  0  0.036451  0.08743  0  3.942563  0
C  C45  1  0.56689275  0.27029555  0.40374595  1  0  0.121438  0  3.704456  0  0  0.091543  0  3.955605  0  0  0.097619  0  3.975069  0  0  0.036536  0.087614  0  3.942413  0
C  C46  1  0.68147940  0.77916800  0.46783898  1  0  0.12501  0  3.724304  0  0  0.099065  0  3.970557  0  0  0.105174  0  3.989875  0  0  0.037403  0.095114  0  3.957423  0
C  C47  1  0.31850916  0.22083624  0.53216130  1  0  0.125043  0  3.724174  0  0  0.099116  0  3.970433  0  0  0.105225  0  3.989754  0  0  0.037464  0.095164  0  3.957299  0
C  C48  1  0.59429382  0.76799670  0.37965770  1  0  -0.165837  0  3.702215  0  0  -0.185943  0  3.949855  0  0  -0.193294  0  3.971651  0  0  -0.089091  -0.181311  0  3.935491  0
C  C49  1  0.40570471  0.23200632  0.62034871  1  0  -0.165845  0  3.701972  0  0  -0.185979  0  3.94955  0  0  -0.193332  0  3.971347  0  0  -0.089118  -0.181345  0  3.935183  0
S  S50  1  0.12699825  0.94184879  0.30944827  1  0  0.024274  0  2.630281  0  0  0.062709  0  3.048225  0  0  0.056695  0  3.038964  0  0  -0.007669  0.06693  0  3.054468  0
S  S51  1  0.87300261  0.05815542  0.69054883  1  0  0.024287  0  2.630264  0  0  0.062708  0  3.048186  0  0  0.056695  0  3.038924  0  0  -0.007697  0.066925  0  3.054427  0
N  N52  1  0.44720491  0.86512334  0.87415372  1  0  -0.317834  0  3.27591  0  0  -0.243522  0  3.55875  0  0  -0.260658  0  3.57422  0  0  -0.343249  -0.231934  0  3.54807  0
N  N53  1  0.55280174  0.13486886  0.12584292  1  0  -0.317796  0  3.276137  0  0  -0.243473  0  3.55895  0  0  -0.260624  0  3.574442  0  0  -0.343252  -0.231884  0  3.548272  0
N  N54  1  0.60305804  0.76015685  0.57502707  1  0  -0.306388  0  3.293322  0  0  -0.230365  0  3.575616  0  0  -0.24714  0  3.590658  0  0  -0.34264  -0.218977  0  3.565124  0
N  N55  1  0.39693562  0.23984085  0.42498090  1  0  -0.306455  0  3.293549  0  0  -0.230444  0  3.575801  0  0  -0.247219  0  3.590843  0  0  -0.342653  -0.219056  0  3.565312  0
N  N56  1  0.95383913  0.46777033  0.19280088  1  0  0.687537  0  4.163467  0  0  0.736703  0  4.433112  0  0  0.765516  0  4.438145  0  0  0.091349  0.717326  0  4.429104  0
N  N57  1  0.04615965  0.53222463  0.80720242  1  0  0.687698  0  4.163667  0  0  0.736754  0  4.433414  0  0  0.765567  0  4.438453  0  0  0.091395  0.717377  0  4.429405  0
O  O58  1  0.12300021  0.46087383  0.20436243  1  0  -0.496821  0  1.792063  0  0  -0.476643  0  2.026393  0  0  -0.494506  0  2.015888  0  0  -0.218458  -0.463994  0  2.033302  0
O  O59  1  0.87699984  0.53912511  0.79563898  1  0  -0.496861  0  1.792237  0  0  -0.476657  0  2.026613  0  0  -0.494509  0  2.016086  0  0  -0.218442  -0.464009  0  2.033522  0
O  O60  1  0.88703455  0.34817396  0.23326790  1  0  -0.489904  0  1.789997  0  0  -0.484956  0  2.01353  0  0  -0.500223  0  2.006932  0  0  -0.200208  -0.474102  0  2.01786  0
O  O61  1  0.11296743  0.65181971  0.76673747  1  0  -0.490004  0  1.79013  0  0  -0.485024  0  2.0137  0  0  -0.500293  0  2.007103  0  0  -0.200235  -0.474171  0  2.01803  0
O  O62  1  0.85782094  0.59362175  0.14129921  1  0  -0.463638  0  1.744859  0  0  -0.461772  0  1.951094  0  0  -0.475732  0  1.944806  0  0  -0.196876  -0.451788  0  1.955154  0
O  O63  1  0.14217698  0.40637186  0.85870341  1  0  -0.463675  0  1.744856  0  0  -0.461785  0  1.951123  0  0  -0.475738  0  1.944825  0  0  -0.196911  -0.451803  0  1.955185  0
