# generated using pymatgen
data_H16Au2C15(SCl)2
_symmetry_space_group_name_H-M   'P 1'
_cell_length_a   8.37136719
_cell_length_b   11.54814997
_cell_length_c   18.80918708
_cell_angle_alpha   102.42483766
_cell_angle_beta   89.99997887
_cell_angle_gamma   89.99999162
_symmetry_Int_Tables_number   1
_chemical_formula_structural   H16Au2C15(SCl)2
_chemical_formula_sum   'H64 Au8 C60 S8 Cl8'
_cell_volume   1775.76813339
_cell_formula_units_Z   4
loop_
 _symmetry_equiv_pos_site_id
 _symmetry_equiv_pos_as_xyz
  1  'x, y, z'
loop_
 _atom_site_type_symbol
 _atom_site_label
 _atom_site_symmetry_multiplicity
 _atom_site_fract_x
 _atom_site_fract_y
 _atom_site_fract_z
 _atom_site_occupancy
 _atom_site_hle17_bader_spin_density
 _atom_site_hle17_ddec_charge
 _atom_site_hle17_ddec_spin_density
 _atom_site_hle17_ddec_sum_bond_order
 _atom_site_hle17_magmom
 _atom_site_hse06_10hf_bader_spin_density
 _atom_site_hse06_10hf_ddec_charge
 _atom_site_hse06_10hf_ddec_spin_density
 _atom_site_hse06_10hf_ddec_sum_bond_order
 _atom_site_hse06_10hf_magmom
 _atom_site_hse06_bader_spin_density
 _atom_site_hse06_ddec_charge
 _atom_site_hse06_ddec_spin_density
 _atom_site_hse06_ddec_sum_bond_order
 _atom_site_hse06_magmom
 _atom_site_pbe_bader_spin_density
 _atom_site_pbe_cm5_charge
 _atom_site_pbe_ddec_charge
 _atom_site_pbe_ddec_spin_density
 _atom_site_pbe_ddec_sum_bond_order
 _atom_site_pbe_magmom
H  H0  1  0.50154519  0.79171517  0.10149980  1  0  0.099663  0  0.97482  0  0  0.104033  0  1.047831  0  0  0.10743  0  1.045761  0  0  0.091375  0.101785  0  1.049044  0
H  H1  1  0.00154078  0.20829050  0.39850181  1  0  0.0997  0  0.974659  0  0  0.104045  0  1.047706  0  0  0.107445  0  1.045629  0  0  0.091373  0.101795  0  1.048921  0
H  H2  1  0.49845701  0.20828586  0.89850054  1  0  0.099696  0  0.974785  0  0  0.104066  0  1.047796  0  0  0.107464  0  1.045725  0  0  0.09138  0.101819  0  1.049009  0
H  H3  1  0.99845545  0.79171850  0.60150067  1  0  0.099699  0  0.974672  0  0  0.104067  0  1.047679  0  0  0.107464  0  1.045607  0  0  0.091398  0.101814  0  1.048894  0
H  H4  1  0.48204657  0.99935900  0.08192173  1  0  0.08682  0  0.96304  0  0  0.098353  0  1.02424  0  0  0.100295  0  1.024369  0  0  0.098255  0.09703  0  1.024141  0
H  H5  1  0.98204969  0.00064305  0.41807879  1  0  0.086853  0  0.963026  0  0  0.098386  0  1.02422  0  0  0.100329  0  1.024349  0  0  0.098255  0.097063  0  1.024119  0
H  H6  1  0.51795682  0.00064027  0.91807679  1  0  0.086847  0  0.963024  0  0  0.098379  0  1.024218  0  0  0.100321  0  1.024347  0  0  0.098266  0.097058  0  1.024117  0
H  H7  1  0.01795610  0.99936330  0.58192174  1  0  0.086848  0  0.963033  0  0  0.098384  0  1.024217  0  0  0.100326  0  1.024346  0  0  0.098263  0.097063  0  1.024117  0
H  H8  1  0.25335287  0.05811041  0.01461310  1  0  0.09263  0  0.969919  0  0  0.101205  0  1.03418  0  0  0.104178  0  1.032893  0  0  0.092276  0.098628  0  1.036  0
H  H9  1  0.75335454  0.94188903  0.48538498  1  0  0.092645  0  0.969914  0  0  0.101245  0  1.034154  0  0  0.104218  0  1.032865  0  0  0.092282  0.098693  0  1.035954  0
H  H10  1  0.74665053  0.94188797  0.98538477  1  0  0.09264  0  0.96981  0  0  0.101242  0  1.034054  0  0  0.104215  0  1.032767  0  0  0.09229  0.09867  0  1.035873  0
H  H11  1  0.24664766  0.05811113  0.51461153  1  0  0.092657  0  0.969862  0  0  0.101227  0  1.034143  0  0  0.104202  0  1.032852  0  0  0.092288  0.098668  0  1.035945  0
H  H12  1  0.03933119  0.91068518  0.96652220  1  0  0.091673  0  0.97081  0  0  0.103254  0  1.030469  0  0  0.105186  0  1.031256  0  0  0.099959  0.102012  0  1.029908  0
H  H13  1  0.53933222  0.08931039  0.53347897  1  0  0.091654  0  0.970792  0  0  0.103244  0  1.030454  0  0  0.105189  0  1.031225  0  0  0.099945  0.102001  0  1.029896  0
H  H14  1  0.96067221  0.08931142  0.03347702  1  0  0.091702  0  0.970792  0  0  0.103275  0  1.030459  0  0  0.105235  0  1.031197  0  0  0.099972  0.102033  0  1.029898  0
H  H15  1  0.46066640  0.91068711  0.46651825  1  0  0.091634  0  0.970834  0  0  0.103242  0  1.030479  0  0  0.105216  0  1.031209  0  0  0.099961  0.102  0  1.029922  0
H  H16  1  0.05714430  0.70562920  0.98553227  1  0  0.09775  0  0.952698  0  0  0.108047  0  1.016863  0  0  0.11061  0  1.015797  0  0  0.095066  0.106334  0  1.017643  0
H  H17  1  0.55714172  0.29437168  0.51447280  1  0  0.097795  0  0.952601  0  0  0.108051  0  1.016804  0  0  0.110613  0  1.01574  0  0  0.09505  0.106337  0  1.017584  0
H  H18  1  0.94285790  0.29437006  0.01446943  1  0  0.09774  0  0.952684  0  0  0.108015  0  1.016884  0  0  0.110579  0  1.015818  0  0  0.095048  0.1063  0  1.017665  0
H  H19  1  0.44285331  0.70562935  0.48552914  1  0  0.097778  0  0.952707  0  0  0.10804  0  1.016905  0  0  0.110601  0  1.015844  0  0  0.095049  0.106322  0  1.017685  0
H  H20  1  0.12042827  0.47352466  0.10294819  1  0  0.104222  0  0.962971  0  0  0.117542  0  1.028004  0  0  0.119056  0  1.02801  0  0  0.086947  0.116346  0  1.028175  0
H  H21  1  0.62042293  0.52647390  0.39705298  1  0  0.104159  0  0.963002  0  0  0.117518  0  1.028022  0  0  0.119037  0  1.02802  0  0  0.086926  0.116321  0  1.028194  0
H  H22  1  0.87957394  0.52647459  0.89705245  1  0  0.104188  0  0.962988  0  0  0.117528  0  1.028008  0  0  0.119049  0  1.028007  0  0  0.086932  0.116333  0  1.028181  0
H  H23  1  0.37957091  0.47352536  0.60294660  1  0  0.104121  0  0.962988  0  0  0.117514  0  1.027973  0  0  0.11903  0  1.027977  0  0  0.086917  0.116316  0  1.028145  0
H  H24  1  0.02459207  0.60012615  0.08153884  1  0  0.093657  0  0.970135  0  0  0.104582  0  1.04457  0  0  0.106649  0  1.042304  0  0  0.082619  0.102966  0  1.046404  0
H  H25  1  0.52458793  0.39987243  0.41846182  1  0  0.093654  0  0.970143  0  0  0.104586  0  1.044582  0  0  0.106652  0  1.042317  0  0  0.082632  0.102969  0  1.046417  0
H  H26  1  0.97541014  0.39987400  0.91846139  1  0  0.093704  0  0.970115  0  0  0.104628  0  1.044543  0  0  0.106694  0  1.042281  0  0  0.082643  0.103011  0  1.046379  0
H  H27  1  0.47540830  0.60012683  0.58153829  1  0  0.093687  0  0.970105  0  0  0.104613  0  1.044545  0  0  0.106679  0  1.042278  0  0  0.082639  0.102997  0  1.046379  0
H  H28  1  0.03093386  0.63223926  0.21320463  1  0  0.078989  0  0.956507  0  0  0.091463  0  1.029768  0  0  0.092836  0  1.028725  0  0  0.08083  0.090436  0  1.03052  0
H  H29  1  0.53092865  0.36775931  0.28679656  1  0  0.078965  0  0.956442  0  0  0.091425  0  1.029762  0  0  0.092802  0  1.028718  0  0  0.080805  0.090391  0  1.030513  0
H  H30  1  0.96906953  0.36775999  0.78679601  1  0  0.078987  0  0.956488  0  0  0.091476  0  1.02976  0  0  0.09285  0  1.028715  0  0  0.080826  0.090442  0  1.030515  0
H  H31  1  0.46906758  0.63223906  0.71320397  1  0  0.079025  0  0.956433  0  0  0.091513  0  1.029713  0  0  0.092886  0  1.02867  0  0  0.080834  0.090478  0  1.030468  0
H  H32  1  0.17093847  0.73073873  0.18817024  1  0  0.073676  0  0.942796  0  0  0.091711  0  1.002444  0  0  0.092063  0  1.004411  0  0  0.089027  0.091515  0  1.001018  0
H  H33  1  0.67093326  0.26925982  0.31183093  1  0  0.073668  0  0.942803  0  0  0.09171  0  1.002453  0  0  0.092064  0  1.004426  0  0  0.08902  0.091513  0  1.001024  0
H  H34  1  0.82906373  0.26926230  0.81183064  1  0  0.073717  0  0.942811  0  0  0.091751  0  1.002452  0  0  0.092106  0  1.004414  0  0  0.089037  0.091554  0  1.001017  0
H  H35  1  0.32906416  0.73073855  0.68817013  1  0  0.073682  0  0.942793  0  0  0.091718  0  1.002444  0  0  0.092071  0  1.004409  0  0  0.089017  0.09152  0  1.001017  0
H  H36  1  0.25428568  0.49228085  0.22867315  1  0  0.106752  0  0.940529  0  0  0.119818  0  1.005912  0  0  0.12123  0  1.005547  0  0  0.091754  0.118709  0  1.00627  0
H  H37  1  0.75428165  0.50771680  0.27132788  1  0  0.10681  0  0.940464  0  0  0.119864  0  1.005871  0  0  0.121279  0  1.005495  0  0  0.091773  0.118751  0  1.006235  0
H  H38  1  0.74571652  0.50771929  0.77132761  1  0  0.106762  0  0.940494  0  0  0.119822  0  1.005894  0  0  0.121238  0  1.005517  0  0  0.09176  0.118715  0  1.006253  0
H  H39  1  0.24571578  0.49227980  0.72867135  1  0  0.10679  0  0.940474  0  0  0.119842  0  1.005872  0  0  0.121258  0  1.005497  0  0  0.091765  0.118731  0  1.006235  0
H  H40  1  0.39661010  0.59057807  0.20261540  1  0  0.098727  0  0.959983  0  0  0.108109  0  1.033859  0  0  0.109352  0  1.033769  0  0  0.08736  0.107114  0  1.03416  0
H  H41  1  0.89660487  0.40942045  0.29738519  1  0  0.09878  0  0.959938  0  0  0.108159  0  1.033818  0  0  0.109403  0  1.033722  0  0  0.08736  0.107165  0  1.03412  0
H  H42  1  0.60339330  0.40942119  0.79738418  1  0  0.098747  0  0.959962  0  0  0.108126  0  1.033848  0  0  0.109367  0  1.033761  0  0  0.087359  0.107135  0  1.034145  0
H  H43  1  0.10339255  0.59057792  0.70261480  1  0  0.098739  0  0.959987  0  0  0.108114  0  1.03386  0  0  0.109356  0  1.033774  0  0  0.08737  0.107123  0  1.034155  0
H  H44  1  0.60385575  0.76130063  0.31503248  1  0  0.10131  0  0.972095  0  0  0.106651  0  1.042361  0  0  0.109882  0  1.040334  0  0  0.089155  0.104305  0  1.043941  0
H  H45  1  0.10385271  0.23869794  0.18496764  1  0  0.101342  0  0.972144  0  0  0.106667  0  1.042418  0  0  0.109898  0  1.04039  0  0  0.089153  0.104324  0  1.043997  0
H  H46  1  0.39614764  0.23869952  0.68496669  1  0  0.101322  0  0.97215  0  0  0.106647  0  1.042424  0  0  0.109879  0  1.040395  0  0  0.089137  0.104301  0  1.044003  0
H  H47  1  0.89614830  0.76129777  0.81503094  1  0  0.101318  0  0.972146  0  0  0.106642  0  1.042426  0  0  0.109874  0  1.040399  0  0  0.089144  0.104297  0  1.044005  0
H  H48  1  0.69262618  0.96666714  0.31654599  1  0  0.089281  0  0.960286  0  0  0.101029  0  1.017219  0  0  0.102895  0  1.018076  0  0  0.099982  0.099646  0  1.016925  0
H  H49  1  0.19262556  0.03333319  0.18345488  1  0  0.089292  0  0.960237  0  0  0.101018  0  1.017197  0  0  0.102883  0  1.018054  0  0  0.099961  0.099634  0  1.016904  0
H  H50  1  0.30737483  0.03333656  0.68345312  1  0  0.089269  0  0.960338  0  0  0.101002  0  1.017295  0  0  0.102866  0  1.018154  0  0  0.099968  0.099622  0  1.017002  0
H  H51  1  0.80737305  0.96666252  0.81654582  1  0  0.08929  0  0.960256  0  0  0.101014  0  1.017222  0  0  0.102878  0  1.018081  0  0  0.099977  0.09963  0  1.016932  0
H  H52  1  0.49144885  0.12850599  0.32396015  1  0  0.089587  0  0.958037  0  0  0.100612  0  1.019045  0  0  0.102984  0  1.018551  0  0  0.097973  0.098802  0  1.019625  0
H  H53  1  0.99144721  0.87149429  0.17604013  1  0  0.089554  0  0.95802  0  0  0.100576  0  1.019032  0  0  0.102948  0  1.018541  0  0  0.097947  0.098765  0  1.019615  0
H  H54  1  0.50854858  0.87149416  0.67603849  1  0  0.089508  0  0.958071  0  0  0.1005  0  1.019119  0  0  0.102866  0  1.018624  0  0  0.097939  0.098696  0  1.019694  0
H  H55  1  0.00854902  0.12850319  0.82396240  1  0  0.089536  0  0.958072  0  0  0.100552  0  1.019097  0  0  0.10292  0  1.018603  0  0  0.097948  0.098743  0  1.019678  0
H  H56  1  0.20337046  0.08332891  0.32533327  1  0  0.091907  0  0.967174  0  0  0.101444  0  1.029201  0  0  0.103846  0  1.028845  0  0  0.096784  0.100058  0  1.028822  0
H  H57  1  0.70336881  0.91667406  0.17466901  1  0  0.091917  0  0.967204  0  0  0.101452  0  1.029238  0  0  0.103853  0  1.028882  0  0  0.096782  0.100062  0  1.028859  0
H  H58  1  0.79662697  0.91667300  0.67466773  1  0  0.091921  0  0.967216  0  0  0.10146  0  1.029232  0  0  0.103861  0  1.028877  0  0  0.09679  0.100077  0  1.02885  0
H  H59  1  0.29662861  0.08332696  0.82533293  1  0  0.091939  0  0.967212  0  0  0.101475  0  1.029235  0  0  0.103876  0  1.02888  0  0  0.096785  0.100087  0  1.028856  0
H  H60  1  0.11231118  0.87512503  0.32111493  1  0  0.085642  0  0.979654  0  0  0.093756  0  1.051703  0  0  0.097365  0  1.048075  0  0  0.090115  0.091205  0  1.054232  0
H  H61  1  0.61230969  0.12487708  0.17888619  1  0  0.085645  0  0.979669  0  0  0.093754  0  1.051722  0  0  0.097363  0  1.048092  0  0  0.090103  0.0912  0  1.054252  0
H  H62  1  0.88768863  0.12487424  0.67888359  1  0  0.085617  0  0.9797  0  0  0.093744  0  1.051732  0  0  0.097352  0  1.048106  0  0  0.090117  0.09119  0  1.054262  0
H  H63  1  0.38769132  0.87512394  0.82111682  1  0  0.085638  0  0.979609  0  0  0.093738  0  1.05168  0  0  0.097346  0  1.048053  0  0  0.090109  0.091185  0  1.054207  0
Au  Au64  1  0.29010987  0.46988266  0.94189339  1  0  0.10709  0  2.266681  0  0  0.021082  0  2.814293  0  0  0.04095  0  2.774172  0  0  0.219422  0.008027  0  2.84149  0
Au  Au65  1  0.79010841  0.53011819  0.55810739  1  0  0.107121  0  2.266739  0  0  0.021113  0  2.814365  0  0  0.040982  0  2.774241  0  0  0.219448  0.00805  0  2.841583  0
Au  Au66  1  0.70988755  0.53011748  0.05810684  1  0  0.107087  0  2.266718  0  0  0.021079  0  2.814338  0  0  0.040946  0  2.774218  0  0  0.219433  0.008018  0  2.84155  0
Au  Au67  1  0.20988663  0.46988550  0.44189438  1  0  0.107098  0  2.266711  0  0  0.021105  0  2.814315  0  0  0.040973  0  2.774192  0  0  0.219433  0.00804  0  2.841535  0
Au  Au68  1  0.05063547  0.67410642  0.37313721  1  0  0.148308  0  2.16968  0  0  0.069286  0  2.698035  0  0  0.08981  0  2.659427  0  0  0.239701  0.055845  0  2.723804  0
Au  Au69  1  0.55063518  0.32589305  0.12686197  1  0  0.148275  0  2.169717  0  0  0.069247  0  2.698078  0  0  0.089773  0  2.659468  0  0  0.239692  0.055814  0  2.72384  0
Au  Au70  1  0.94936673  0.32589462  0.62686101  1  0  0.148312  0  2.169732  0  0  0.069294  0  2.6981  0  0  0.089818  0  2.659492  0  0  0.239698  0.055856  0  2.723866  0
Au  Au71  1  0.44936702  0.67410443  0.87313790  1  0  0.148312  0  2.169732  0  0  0.069299  0  2.698083  0  0  0.089822  0  2.659476  0  0  0.239696  0.055867  0  2.723849  0
C  C72  1  0.28055384  0.73774201  0.04498958  1  0  0.002363  0  3.778009  0  0  0.029069  0  4.018393  0  0  0.027127  0  4.045283  0  0  -0.024572  0.030222  0  4.000499  0
C  C73  1  0.78054851  0.26225919  0.45501086  1  0  0.002389  0  3.777979  0  0  0.029191  0  4.018204  0  0  0.027251  0  4.04509  0  0  -0.024518  0.030343  0  4.000309  0
C  C74  1  0.71944955  0.26225813  0.95501119  1  0  0.002335  0  3.778  0  0  0.029093  0  4.018314  0  0  0.027153  0  4.045198  0  0  -0.024558  0.030242  0  4.000424  0
C  C75  1  0.21944653  0.73774450  0.54498984  1  0  0.00249  0  3.777796  0  0  0.029132  0  4.018258  0  0  0.027191  0  4.045144  0  0  -0.024552  0.030281  0  4.000364  0
C  C76  1  0.40004207  0.81954798  0.07289543  1  0  -0.096288  0  3.739238  0  0  -0.116739  0  3.982038  0  0  -0.118375  0  4.003176  0  0  -0.092248  -0.115584  0  3.96757  0
C  C77  1  0.90003797  0.18044965  0.42710505  1  0  -0.096235  0  3.739124  0  0  -0.116701  0  3.981911  0  0  -0.118335  0  4.003046  0  0  -0.092226  -0.115552  0  3.967447  0
C  C78  1  0.59996013  0.18045039  0.92710510  1  0  -0.096405  0  3.739198  0  0  -0.11688  0  3.981992  0  0  -0.118514  0  4.003126  0  0  -0.092313  -0.115728  0  3.967525  0
C  C79  1  0.09996065  0.81955493  0.57289578  1  0  -0.096339  0  3.739091  0  0  -0.116772  0  3.981895  0  0  -0.118406  0  4.003029  0  0  -0.092298  -0.115618  0  3.967434  0
C  C80  1  0.38864608  0.93497415  0.06161696  1  0  -0.058827  0  3.751937  0  0  -0.068515  0  3.995134  0  0  -0.07117  0  4.017188  0  0  -0.087947  -0.066606  0  3.980081  0
C  C81  1  0.88864557  0.06502792  0.43838357  1  0  -0.058999  0  3.752098  0  0  -0.068676  0  3.995299  0  0  -0.071334  0  4.017352  0  0  -0.088017  -0.066773  0  3.980254  0
C  C82  1  0.61135613  0.06502511  0.93838262  1  0  -0.058814  0  3.751887  0  0  -0.068488  0  3.995078  0  0  -0.071143  0  4.017129  0  0  -0.087914  -0.066581  0  3.980024  0
C  C83  1  0.11135543  0.93497578  0.56161660  1  0  -0.058936  0  3.752067  0  0  -0.068606  0  3.995248  0  0  -0.071262  0  4.0173  0  0  -0.087944  -0.066703  0  3.980207  0
C  C84  1  0.25974719  0.96784348  0.02331159  1  0  -0.062988  0  3.746609  0  0  -0.078996  0  3.997176  0  0  -0.080093  0  4.017734  0  0  -0.086791  -0.07804  0  3.983816  0
C  C85  1  0.75975025  0.03215329  0.47668773  1  0  -0.062944  0  3.746433  0  0  -0.078968  0  3.996978  0  0  -0.080071  0  4.017558  0  0  -0.086781  -0.078033  0  3.983611  0
C  C86  1  0.74025501  0.03215402  0.97668616  1  0  -0.062965  0  3.746427  0  0  -0.078999  0  3.99698  0  0  -0.080103  0  4.017558  0  0  -0.086817  -0.078045  0  3.983621  0
C  C87  1  0.24025196  0.96784775  0.52331050  1  0  -0.062927  0  3.746406  0  0  -0.078943  0  3.996982  0  0  -0.080044  0  4.017554  0  0  -0.086817  -0.078005  0  3.983615  0
C  C88  1  0.13960990  0.88572124  0.99684452  1  0  -0.062062  0  3.759832  0  0  -0.074479  0  4.005931  0  0  -0.077128  0  4.028924  0  0  -0.091036  -0.072606  0  3.989965  0
C  C89  1  0.63960856  0.11427875  0.50315617  1  0  -0.06204  0  3.759662  0  0  -0.07448  0  4.005779  0  0  -0.077143  0  4.028768  0  0  -0.091036  -0.072613  0  3.989825  0
C  C90  1  0.86039350  0.11427891  0.00315412  1  0  -0.062172  0  3.759734  0  0  -0.074587  0  4.005861  0  0  -0.077254  0  4.028853  0  0  -0.091094  -0.072714  0  3.989896  0
C  C91  1  0.36038886  0.88572052  0.49684288  1  0  -0.062061  0  3.759729  0  0  -0.074514  0  4.00584  0  0  -0.077198  0  4.028827  0  0  -0.091047  -0.072643  0  3.989878  0
C  C92  1  0.14935306  0.77027186  0.00742089  1  0  -0.11216  0  3.772826  0  0  -0.129569  0  4.014393  0  0  -0.132171  0  4.037096  0  0  -0.097209  -0.127468  0  3.998784  0
C  C93  1  0.64935129  0.22972491  0.49258163  1  0  -0.112222  0  3.772815  0  0  -0.129621  0  4.014385  0  0  -0.132224  0  4.037092  0  0  -0.097212  -0.127516  0  3.998773  0
C  C94  1  0.85064914  0.22972651  0.99257963  1  0  -0.112035  0  3.77278  0  0  -0.129455  0  4.01436  0  0  -0.132059  0  4.037071  0  0  -0.097143  -0.127349  0  3.998754  0
C  C95  1  0.35064614  0.77027523  0.50741860  1  0  -0.112215  0  3.772852  0  0  -0.129561  0  4.014425  0  0  -0.132165  0  4.037138  0  0  -0.097187  -0.127453  0  3.998808  0
C  C96  1  0.12939095  0.56963718  0.10746164  1  0  -0.149112  0  3.589924  0  0  -0.185499  0  3.840308  0  0  -0.185461  0  3.852395  0  0  -0.155802  -0.18529  0  3.832207  0
C  C97  1  0.62938563  0.43036139  0.39253900  1  0  -0.149025  0  3.589753  0  0  -0.185456  0  3.840156  0  0  -0.185415  0  3.852237  0  0  -0.155764  -0.185243  0  3.832051  0
C  C98  1  0.87061125  0.43036297  0.89253859  1  0  -0.149122  0  3.589884  0  0  -0.185511  0  3.840238  0  0  -0.185478  0  3.852322  0  0  -0.155797  -0.185301  0  3.832138  0
C  C99  1  0.37061059  0.56963876  0.60746070  1  0  -0.149003  0  3.589736  0  0  -0.185458  0  3.840176  0  0  -0.185419  0  3.852257  0  0  -0.155774  -0.185247  0  3.832071  0
C  C100  1  0.14701288  0.63637169  0.18622887  1  0  -0.09555  0  3.706498  0  0  -0.131545  0  3.954418  0  0  -0.133604  0  3.970419  0  0  -0.174182  -0.129933  0  3.943169  0
C  C101  1  0.64700765  0.36362598  0.31377165  1  0  -0.095454  0  3.706259  0  0  -0.131452  0  3.954226  0  0  -0.133527  0  3.97024  0  0  -0.174145  -0.129826  0  3.942964  0
C  C102  1  0.85298932  0.36362845  0.81377189  1  0  -0.095632  0  3.706509  0  0  -0.131638  0  3.954419  0  0  -0.133698  0  3.970416  0  0  -0.174215  -0.130013  0  3.943156  0
C  C103  1  0.35298978  0.63637239  0.68622887  1  0  -0.095625  0  3.706423  0  0  -0.131657  0  3.954397  0  0  -0.133718  0  3.970399  0  0  -0.17421  -0.130035  0  3.943137  0
C  C104  1  0.27754949  0.58517078  0.22652429  1  0  -0.155322  0  3.604056  0  0  -0.189643  0  3.857201  0  0  -0.189907  0  3.870187  0  0  -0.155269  -0.189244  0  3.848029  0
C  C105  1  0.77754667  0.41482864  0.27347697  1  0  -0.155481  0  3.603891  0  0  -0.189781  0  3.857047  0  0  -0.190052  0  3.87007  0  0  -0.155279  -0.189381  0  3.847881  0
C  C106  1  0.72245271  0.41482936  0.77347594  1  0  -0.155323  0  3.603974  0  0  -0.189653  0  3.857149  0  0  -0.189933  0  3.870177  0  0  -0.155259  -0.189256  0  3.847981  0
C  C107  1  0.22245195  0.58517062  0.72652367  1  0  -0.15534  0  3.603987  0  0  -0.189617  0  3.857119  0  0  -0.189876  0  3.870096  0  0  -0.155253  -0.18922  0  3.847947  0
C  C108  1  0.35275220  0.80634116  0.31669764  1  0  0.011987  0  3.756384  0  0  0.038423  0  3.996963  0  0  0.036757  0  4.023836  0  0  -0.018479  0.039206  0  3.979023  0
C  C109  1  0.85275189  0.19365826  0.18330148  1  0  0.012043  0  3.756356  0  0  0.038484  0  3.996916  0  0  0.036819  0  4.023788  0  0  -0.01847  0.039271  0  3.978975  0
C  C110  1  0.64724881  0.19365810  0.68330141  1  0  0.012051  0  3.756393  0  0  0.038454  0  3.997009  0  0  0.03679  0  4.02388  0  0  -0.018492  0.039241  0  3.979064  0
C  C111  1  0.14724912  0.80633922  0.81669892  1  0  0.011982  0  3.756375  0  0  0.038468  0  3.996876  0  0  0.036801  0  4.02375  0  0  -0.018462  0.039251  0  3.978931  0
C  C112  1  0.51612695  0.83108561  0.31530639  1  0  -0.093266  0  3.736434  0  0  -0.116023  0  3.982724  0  0  -0.117232  0  4.00312  0  0  -0.090812  -0.115065  0  3.969093  0
C  C113  1  0.01612989  0.16891652  0.18469315  1  0  -0.093267  0  3.736366  0  0  -0.116006  0  3.982646  0  0  -0.117213  0  4.003035  0  0  -0.090752  -0.115049  0  3.969018  0
C  C114  1  0.48387287  0.16892075  0.68469202  1  0  -0.093346  0  3.736178  0  0  -0.116075  0  3.982479  0  0  -0.117284  0  4.002868  0  0  -0.090773  -0.115121  0  3.968854  0
C  C115  1  0.98387351  0.83108096  0.81530672  1  0  -0.093208  0  3.736523  0  0  -0.11597  0  3.982801  0  0  -0.117178  0  4.003192  0  0  -0.090743  -0.115013  0  3.969168  0
C  C116  1  0.56555614  0.94694823  0.31684602  1  0  -0.057914  0  3.76019  0  0  -0.067116  0  4.004466  0  0  -0.069933  0  4.026916  0  0  -0.087286  -0.065287  0  3.989418  0
C  C117  1  0.06555193  0.05305212  0.18315380  1  0  -0.05801  0  3.760242  0  0  -0.067205  0  4.004531  0  0  -0.070023  0  4.026981  0  0  -0.087311  -0.065371  0  3.989482  0
C  C118  1  0.43444487  0.05305104  0.68315196  1  0  -0.057906  0  3.760071  0  0  -0.067102  0  4.004342  0  0  -0.069916  0  4.026788  0  0  -0.087327  -0.065267  0  3.989294  0
C  C119  1  0.93444788  0.94694270  0.81684678  1  0  -0.058007  0  3.760314  0  0  -0.067185  0  4.004582  0  0  -0.070001  0  4.027028  0  0  -0.087336  -0.065347  0  3.989537  0
C  C120  1  0.45307400  0.03741704  0.32084338  1  0  -0.057227  0  3.738678  0  0  -0.070598  0  3.981024  0  0  -0.071719  0  4.002331  0  0  -0.085459  -0.069757  0  3.96674  0
C  C121  1  0.95307712  0.96258591  0.17915621  1  0  -0.057049  0  3.738618  0  0  -0.0704  0  3.980936  0  0  -0.071523  0  4.00225  0  0  -0.085359  -0.069559  0  3.966647  0
C  C122  1  0.54692462  0.96258933  0.67915397  1  0  -0.057081  0  3.738905  0  0  -0.070422  0  3.981236  0  0  -0.071533  0  4.002539  0  0  -0.085346  -0.069589  0  3.966956  0
C  C123  1  0.04692269  0.03741334  0.82084550  1  0  -0.05709  0  3.738674  0  0  -0.07045  0  3.981  0  0  -0.071564  0  4.002305  0  0  -0.085383  -0.069612  0  3.966717  0
C  C124  1  0.29014960  0.01204052  0.32211505  1  0  -0.06334  0  3.763886  0  0  -0.071945  0  4.004198  0  0  -0.074653  0  4.02681  0  0  -0.088753  -0.070273  0  3.988579  0
C  C125  1  0.79014675  0.98795891  0.17788515  1  0  -0.063464  0  3.763874  0  0  -0.072084  0  4.004215  0  0  -0.074794  0  4.02683  0  0  -0.088816  -0.070408  0  3.988592  0
C  C126  1  0.70984782  0.98795609  0.67788364  1  0  -0.063412  0  3.763944  0  0  -0.072018  0  4.004251  0  0  -0.074725  0  4.026861  0  0  -0.088801  -0.070345  0  3.988636  0
C  C127  1  0.20985068  0.01203946  0.82211644  1  0  -0.063527  0  3.764001  0  0  -0.072143  0  4.004338  0  0  -0.074853  0  4.026953  0  0  -0.088815  -0.070462  0  3.988715  0
C  C128  1  0.23918771  0.89617949  0.31952977  1  0  -0.112845  0  3.77667  0  0  -0.131828  0  4.018507  0  0  -0.134538  0  4.041391  0  0  -0.095525  -0.129895  0  4.002992  0
C  C129  1  0.73918980  0.10382171  0.18047068  1  0  -0.112863  0  3.776782  0  0  -0.131833  0  4.01861  0  0  -0.134543  0  4.041494  0  0  -0.095522  -0.129903  0  4.003095  0
C  C130  1  0.76081330  0.10382244  0.68046858  1  0  -0.112792  0  3.77663  0  0  -0.131771  0  4.018469  0  0  -0.134482  0  4.041353  0  0  -0.0955  -0.129841  0  4.002954  0
C  C131  1  0.26081001  0.89617842  0.81953168  1  0  -0.112733  0  3.776653  0  0  -0.13171  0  4.018464  0  0  -0.134421  0  4.041352  0  0  -0.095505  -0.129781  0  4.002944  0
S  S132  1  0.30747419  0.58868925  0.05484675  1  0  0.140228  0  3.095583  0  0  0.164708  0  3.548413  0  0  0.160578  0  3.542144  0  0  0.018523  0.166724  0  3.553537  0
S  S133  1  0.80746883  0.41131016  0.44515504  1  0  0.140178  0  3.095634  0  0  0.16464  0  3.548466  0  0  0.160514  0  3.542185  0  0  0.018477  0.166652  0  3.553592  0
S  S134  1  0.69252682  0.41131000  0.94515390  1  0  0.140266  0  3.095562  0  0  0.164739  0  3.548383  0  0  0.16061  0  3.542117  0  0  0.01852  0.166752  0  3.553513  0
S  S135  1  0.19252620  0.58869264  0.55484661  1  0  0.140128  0  3.095558  0  0  0.164637  0  3.548449  0  0  0.160508  0  3.542173  0  0  0.018493  0.16665  0  3.553574  0
S  S136  1  0.29884823  0.65877802  0.32209077  1  0  0.136615  0  3.007065  0  0  0.160827  0  3.437502  0  0  0.156441  0  3.433561  0  0  0.027273  0.16394  0  3.439263  0
S  S137  1  0.79884670  0.34122318  0.17790966  1  0  0.136601  0  3.007017  0  0  0.160822  0  3.437448  0  0  0.156434  0  3.433507  0  0  0.027245  0.16393  0  3.439206  0
S  S138  1  0.70115277  0.34122479  0.67790928  1  0  0.13658  0  3.007037  0  0  0.160807  0  3.437483  0  0  0.15642  0  3.433542  0  0  0.027251  0.163915  0  3.439243  0
S  S139  1  0.20115311  0.65877431  0.82209021  1  0  0.136603  0  3.00715  0  0  0.160791  0  3.437554  0  0  0.156401  0  3.433615  0  0  0.027257  0.163901  0  3.439314  0
Cl  Cl140  1  0.28523498  0.34221559  0.82978567  1  0  -0.427125  0  1.177415  0  0  -0.352114  0  1.486057  0  0  -0.371399  0  1.466155  0  0  -0.271137  -0.339208  0  1.498923  0
Cl  Cl141  1  0.78523698  0.65778970  0.67021410  1  0  -0.427149  0  1.177418  0  0  -0.352149  0  1.486069  0  0  -0.371437  0  1.466172  0  0  -0.271149  -0.339247  0  1.498938  0
Cl  Cl142  1  0.71476722  0.65778455  0.17021456  1  0  -0.427105  0  1.177395  0  0  -0.352102  0  1.486049  0  0  -0.371383  0  1.466143  0  0  -0.271133  -0.339196  0  1.498915  0
Cl  Cl143  1  0.21476164  0.34221576  0.32978737  1  0  -0.427102  0  1.177391  0  0  -0.352104  0  1.486037  0  0  -0.371397  0  1.466153  0  0  -0.271123  -0.339198  0  1.498906  0
Cl  Cl144  1  0.80529354  0.70819324  0.42662345  1  0  -0.424867  0  1.217569  0  0  -0.350419  0  1.538796  0  0  -0.370157  0  1.517697  0  0  -0.27189  -0.336612  0  1.553671  0
Cl  Cl145  1  0.30529296  0.29180706  0.07337687  1  0  -0.424864  0  1.217595  0  0  -0.350403  0  1.538815  0  0  -0.370142  0  1.517714  0  0  -0.271885  -0.336596  0  1.553678  0
Cl  Cl146  1  0.19470628  0.29180779  0.57337584  1  0  -0.424853  0  1.21761  0  0  -0.350409  0  1.538843  0  0  -0.370149  0  1.517743  0  0  -0.27188  -0.336599  0  1.553705  0
Cl  Cl147  1  0.69470685  0.70819220  0.92662325  1  0  -0.424873  0  1.217624  0  0  -0.350415  0  1.538836  0  0  -0.370152  0  1.517737  0  0  -0.271885  -0.336615  0  1.553712  0
