# generated using pymatgen
data_CuH22C18(NO3)2
_symmetry_space_group_name_H-M   'P 1'
_cell_length_a   10.57341165
_cell_length_b   10.14424389
_cell_length_c   11.82788756
_cell_angle_alpha   92.59854409
_cell_angle_beta   92.84203501
_cell_angle_gamma   119.24475842
_symmetry_Int_Tables_number   1
_chemical_formula_structural   CuH22C18(NO3)2
_chemical_formula_sum   'Cu2 H44 C36 N4 O12'
_cell_volume   1102.06009872
_cell_formula_units_Z   2
loop_
 _symmetry_equiv_pos_site_id
 _symmetry_equiv_pos_as_xyz
  1  'x, y, z'
loop_
 _atom_site_type_symbol
 _atom_site_label
 _atom_site_symmetry_multiplicity
 _atom_site_fract_x
 _atom_site_fract_y
 _atom_site_fract_z
 _atom_site_occupancy
 _atom_site_pbe_bader_charge
 _atom_site_pbe_bader_spin_density
 _atom_site_pbe_cm5_charge
 _atom_site_pbe_ddec_charge
 _atom_site_pbe_ddec_spin_density
 _atom_site_pbe_ddec_sum_bond_order
 _atom_site_pbe_magmom
Cu  Cu0  1  0.99999732  0.50000682  0.99999830  1  1.085466  0.573076  0.739246  0.75637  0.760476  2.271072  0.572
Cu  Cu1  1  0.50000743  0.00001409  0.49999978  1  1.08399  -0.569167  0.749908  0.783473  -0.757983  2.264046  -0.568
H  H2  1  0.08306490  0.69126216  0.31490938  1  0.044296  0.000358  0.099342  0.043456  0.000166  1.011626  0.0
H  H3  1  0.91691081  0.30870043  0.68510804  1  0.043945  0.000358  0.09928  0.043395  0.000166  1.011658  0.0
H  H4  1  0.03237762  0.36693605  0.29136192  1  0.034874  -4.6e-05  0.082706  0.116142  -4.7e-05  1.039992  0.0
H  H5  1  0.96758109  0.63302033  0.70862593  1  0.035232  -4.6e-05  0.08264  0.116116  -4.7e-05  1.039989  0.0
H  H6  1  0.98545572  0.44787735  0.40796482  1  0.009789  2e-06  0.085983  0.118997  1.5e-05  1.038179  0.0
H  H7  1  0.01450612  0.55207197  0.59202708  1  0.009892  2e-06  0.086072  0.119157  1.5e-05  1.03815  0.0
H  H8  1  0.17231502  0.52110451  0.38055661  1  0.010756  0.000413  0.088976  0.13189  0.00021  0.99166  0.0
H  H9  1  0.82764615  0.47883194  0.61944127  1  0.010619  0.000413  0.089024  0.132048  0.00021  0.991674  0.0
H  H10  1  0.40701959  0.19199676  0.23893554  1  0.050373  -0.000141  0.099332  0.046041  -9.6e-05  0.972896  0.0
H  H11  1  0.59300116  0.80800718  0.76103939  1  0.050549  -0.000141  0.099326  0.04602  -9.6e-05  0.972991  0.0
H  H12  1  0.64688799  0.28505333  0.15858066  1  0.126621  -0.000152  0.090426  0.143917  0.000103  1.055211  0.0
H  H13  1  0.35311876  0.71491247  0.84138508  1  0.126286  -0.000153  0.090382  0.143963  0.000102  1.055242  0.0
H  H14  1  0.52089710  0.09950654  0.09507497  1  0.05533  1.3e-05  0.090371  0.132826  -0.0  1.007543  0.0
H  H15  1  0.47911028  0.90044649  0.90491378  1  0.055567  1.3e-05  0.090336  0.132776  -0.0  1.007701  0.0
H  H16  1  0.65580592  0.12462681  0.20429611  1  0.009695  3.2e-05  0.084839  0.12051  2.1e-05  1.02334  0.0
H  H17  1  0.34420208  0.87535415  0.79570108  1  0.010026  3.2e-05  0.084863  0.120616  2.1e-05  1.023381  0.0
H  H18  1  0.22203639  0.42033335  0.06091006  1  0.145452  0.001972  0.12639  0.104311  0.000961  0.974299  0.002
H  H19  1  0.77796498  0.57968745  0.93908642  1  0.145676  0.001972  0.126357  0.104257  0.000961  0.974319  0.002
H  H20  1  0.23180868  0.19723520  0.13517972  1  0.090201  0.001036  0.107729  0.115481  0.000543  1.009939  0.001
H  H21  1  0.76819338  0.80278967  0.86482466  1  0.089812  0.001037  0.107751  0.115513  0.000543  1.010005  0.001
H  H22  1  0.77282933  0.19076325  0.03489670  1  0.13957  0.002065  0.126902  0.103784  0.000955  0.997802  0.002
H  H23  1  0.22717164  0.80925502  0.96510383  1  0.139015  0.002065  0.126883  0.103726  0.000955  0.997715  0.002
H  H24  1  0.76238992  0.95981345  0.11003254  1  0.098415  0.001171  0.110224  0.119477  0.000624  0.988814  0.001
H  H25  1  0.23761353  0.04021311  0.88998136  1  0.098293  0.001171  0.110194  0.119454  0.000624  0.988868  0.001
H  H26  1  0.08799977  0.91349367  0.14955503  1  0.120786  -0.000102  0.099697  0.117308  -8.3e-05  1.0299  0.0
H  H27  1  0.91199984  0.08653155  0.85044326  1  0.120594  -0.000102  0.099604  0.117179  -8.3e-05  1.029864  0.0
H  H28  1  0.89590915  0.82279399  0.15483329  1  0.049571  -5.2e-05  0.097761  0.105177  -4.1e-05  0.985896  0.0
H  H29  1  0.10409247  0.17723133  0.84516347  1  0.049472  -5.2e-05  0.097755  0.105104  -4.2e-05  0.985909  0.0
H  H30  1  0.02746203  0.85072991  0.34161700  1  0.064768  0.000119  0.098667  0.102078  7.7e-05  1.01854  0.0
H  H31  1  0.97252831  0.14925932  0.65837427  1  0.064771  0.000119  0.098652  0.102039  7.7e-05  1.018586  0.0
H  H32  1  0.12518529  0.05069391  0.33846475  1  0.05173  -7e-06  0.096657  0.100616  -1e-06  0.976999  0.0
H  H33  1  0.87482025  0.94929880  0.66154480  1  0.051746  -7e-06  0.096593  0.100578  -1e-06  0.976923  0.0
H  H34  1  0.02235921  0.19784294  0.41609244  1  0.089181  -0.001106  0.112886  0.124603  -0.000571  0.996565  -0.001
H  H35  1  0.97765603  0.80216376  0.58391187  1  0.089386  -0.001106  0.112848  0.124683  -0.000571  0.996526  -0.001
H  H36  1  0.80707717  0.20755815  0.48507718  1  0.105645  -0.002226  0.124418  0.095871  -0.00105  0.996105  -0.002
H  H37  1  0.19294360  0.79246219  0.51492750  1  0.10544  -0.002226  0.124425  0.095879  -0.00105  0.996111  -0.002
H  H38  1  0.74029365  0.72011784  0.32315583  1  0.120191  -0.001058  0.112058  0.136123  -0.000572  1.00215  -0.001
H  H39  1  0.25970667  0.27988822  0.67685834  1  0.120953  -0.001058  0.112056  0.136085  -0.000572  1.002123  -0.001
H  H40  1  0.53473072  0.75107002  0.39358732  1  0.120746  -0.002161  0.125877  0.101077  -0.001046  0.972905  -0.002
H  H41  1  0.46527698  0.24895180  0.60643001  1  0.120409  -0.002161  0.125922  0.101118  -0.001046  0.973013  -0.002
H  H42  1  0.20760246  0.72702132  0.17715102  1  0.657996  5.1e-05  0.284499  0.33718  2.8e-05  1.022466  0.0
H  H43  1  0.79238673  0.27296752  0.82286554  1  0.657833  5.1e-05  0.284395  0.337102  2.8e-05  1.022561  0.0
H  H44  1  0.63778554  0.31791707  0.35600102  1  0.627033  9.8e-05  0.305268  0.370301  2.2e-05  0.92265  0.0
H  H45  1  0.36222890  0.68208565  0.64397506  1  0.627317  9.8e-05  0.305403  0.370536  2.2e-05  0.922308  0.0
C  C46  1  0.88953792  0.52193808  0.21945894  1  1.551993  -0.002145  0.194717  0.550852  -0.000414  4.15596  -0.003
C  C47  1  0.11044671  0.47804380  0.78054079  1  1.55187  -0.002146  0.19478  0.551003  -0.000414  4.156023  -0.003
C  C48  1  0.05016590  0.58404307  0.26397998  1  0.482253  0.001372  -0.014977  0.140576  0.00079  3.910282  0.001
C  C49  1  0.94981447  0.41592827  0.73602475  1  0.482286  0.001372  -0.014987  0.140503  0.00079  3.910388  0.001
C  C50  1  0.06081401  0.47291745  0.34135848  1  -0.029971  0.000221  -0.252558  -0.417145  0.00019  3.935783  0.0
C  C51  1  0.93915026  0.52703516  0.65863549  1  -0.030438  0.000221  -0.252546  -0.417343  0.00019  3.936047  0.0
C  C52  1  0.37660041  0.97493586  0.27057364  1  1.586404  0.002291  0.211008  0.560308  0.000346  4.123731  0.003
C  C53  1  0.62340008  0.02506324  0.72942405  1  1.58646  0.002291  0.210907  0.560135  0.000346  4.123861  0.003
C  C54  1  0.47807874  0.14529897  0.26530405  1  0.436171  -0.001235  -0.008402  0.146728  -0.00068  3.93562  -0.001
C  C55  1  0.52193304  0.85469660  0.73467734  1  0.436681  -0.001235  -0.008314  0.146748  -0.00068  3.93596  -0.001
C  C56  1  0.58188946  0.16532206  0.17435282  1  -0.119472  0.000313  -0.258111  -0.444699  0.000147  3.938246  0.0
C  C57  1  0.41811748  0.83464951  0.82563020  1  -0.120157  0.000313  -0.25814  -0.444854  0.000147  3.938592  0.0
C  C58  1  0.12362559  0.31577351  0.07412702  1  0.402115  -0.001197  0.052545  0.105219  -0.000211  3.941832  -0.001
C  C59  1  0.87637597  0.68424810  0.92587460  1  0.401956  -0.001197  0.05252  0.105191  -0.000211  3.942114  -0.001
C  C60  1  0.12737016  0.19188338  0.11574531  1  -0.041923  0.005164  -0.085423  -0.192556  0.003646  3.943639  0.004
C  C61  1  0.87263268  0.80814349  0.88426348  1  -0.041823  0.005164  -0.085417  -0.192574  0.003645  3.943728  0.004
C  C62  1  0.99715470  0.05996916  0.13122036  1  0.009274  -0.003749  0.010761  0.169122  -0.002521  3.960503  -0.003
C  C63  1  0.00284851  0.94005869  0.86879106  1  0.009087  -0.003749  0.010681  0.169098  -0.002521  3.960628  -0.003
C  C64  1  0.87150809  0.18752383  0.05982208  1  0.486124  -0.001435  0.054368  0.103456  -0.000294  3.941948  -0.001
C  C65  1  0.12849372  0.81249650  0.94018202  1  0.486492  -0.001435  0.054418  0.103669  -0.000294  3.941878  -0.001
C  C66  1  0.86729145  0.05966988  0.10155383  1  -0.05226  0.005246  -0.085193  -0.194433  0.003637  3.953517  0.004
C  C67  1  0.13271121  0.94035468  0.89845567  1  -0.051864  0.005246  -0.085166  -0.194447  0.003637  3.953629  0.004
C  C68  1  0.99858868  0.92716326  0.18042195  1  -0.071715  0.000233  -0.159791  -0.211527  0.00015  3.908959  0.0
C  C69  1  0.00141278  0.07285826  0.81958135  1  -0.071679  0.000233  -0.159662  -0.211205  0.000149  3.908662  0.0
C  C70  1  0.02107385  0.94826299  0.31158924  1  -0.006301  -0.000462  -0.153572  -0.195802  -0.000296  3.927785  0.0
C  C71  1  0.97892738  0.05173807  0.68841370  1  -0.006493  -0.000462  -0.153519  -0.195796  -0.000296  3.927718  0.0
C  C72  1  0.89843300  0.95824127  0.36199878  1  -0.047644  0.003791  0.01299  0.165679  0.002548  3.952218  0.003
C  C73  1  0.10157434  0.04176514  0.63801001  1  -0.047893  0.003791  0.013055  0.165755  0.002548  3.951961  0.003
C  C74  1  0.91616335  0.09575645  0.40907564  1  -0.015074  -0.005458  -0.083028  -0.18832  -0.003806  3.95194  -0.004
C  C75  1  0.08384960  0.90425355  0.59093039  1  -0.015352  -0.005458  -0.083002  -0.188528  -0.003806  3.951929  -0.004
C  C76  1  0.79737048  0.10257230  0.44761245  1  0.474417  0.001483  0.04997  0.094498  0.000341  3.956603  0.001
C  C77  1  0.20264722  0.89744567  0.55239355  1  0.475081  0.001481  0.049999  0.094594  0.000342  3.956793  0.001
C  C78  1  0.75908100  0.83075436  0.35732115  1  0.032727  -0.005555  -0.081508  -0.184898  -0.003903  3.908784  -0.004
C  C79  1  0.24092494  0.16925530  0.64269027  1  0.033121  -0.005553  -0.081609  -0.184923  -0.003903  3.908708  -0.004
C  C80  1  0.64506497  0.84636241  0.39679164  1  0.403846  0.000899  0.050353  0.098647  -7.5e-05  3.946358  0.001
C  C81  1  0.35494471  0.15365517  0.60322051  1  0.401916  0.000895  0.050437  0.098733  -7.5e-05  3.946658  0.001
N  N82  1  0.99729062  0.31369135  0.04750024  1  -1.218473  0.07992  -0.355428  -0.227056  0.055348  3.63167  0.069
N  N83  1  0.00271045  0.68632702  0.95249862  1  -1.218139  0.079907  -0.355346  -0.227129  0.055341  3.63171  0.069
N  N84  1  0.66393356  0.98019473  0.44093014  1  -1.206606  -0.084652  -0.353104  -0.238186  -0.058406  3.643107  -0.074
N  N85  1  0.33608144  0.01982768  0.55907761  1  -1.205291  -0.084646  -0.353245  -0.238394  -0.058405  3.643671  -0.074
O  O86  1  0.85323151  0.48311799  0.11262924  1  -1.12407  0.10382  -0.328764  -0.549583  0.069269  2.331905  0.095
O  O87  1  0.14676173  0.51688572  0.88736733  1  -1.123933  0.103838  -0.328768  -0.549592  0.069281  2.331876  0.095
O  O88  1  0.80105043  0.50992697  0.29137451  1  -1.200752  0.016642  -0.351328  -0.586701  0.010927  2.084111  0.014
O  O89  1  0.19892913  0.49004019  0.70862399  1  -1.200468  0.016646  -0.351383  -0.586814  0.010929  2.084121  0.014
O  O90  1  0.14557347  0.61336006  0.17600471  1  -1.18681  0.001056  -0.417282  -0.543872  0.000788  2.366916  0.002
O  O91  1  0.85441741  0.38662794  0.82400686  1  -1.186491  0.001056  -0.41725  -0.54385  0.000788  2.366982  0.002
O  O92  1  0.37913235  0.90422871  0.35701362  1  -1.125735  -0.103355  -0.326601  -0.536843  -0.068872  2.369467  -0.095
O  O93  1  0.62087618  0.09578589  0.64299149  1  -1.125723  -0.10336  -0.326537  -0.53678  -0.068875  2.369571  -0.095
O  O94  1  0.29369028  0.90881883  0.18173851  1  -1.183358  -0.016729  -0.308287  -0.531636  -0.010973  2.217674  -0.014
O  O95  1  0.70630011  0.09116958  0.81826627  1  -1.183469  -0.01673  -0.308283  -0.531573  -0.010974  2.217647  -0.014
O  O96  1  0.55573038  0.21947559  0.37241576  1  -1.142934  0.001284  -0.408918  -0.54884  0.00086  2.275943  0.0
O  O97  1  0.44428348  0.78053028  0.62756470  1  -1.143272  0.001283  -0.408987  -0.548965  0.000861  2.275993  0.0
