# generated using pymatgen
data_ZnH14C14(N3O2)2
_symmetry_space_group_name_H-M   'P 1'
_cell_length_a   7.89386079
_cell_length_b   10.09317655
_cell_length_c   10.55072590
_cell_angle_alpha   79.49099663
_cell_angle_beta   72.48325680
_cell_angle_gamma   84.48299322
_symmetry_Int_Tables_number   1
_chemical_formula_structural   ZnH14C14(N3O2)2
_chemical_formula_sum   'Zn2 H28 C28 N12 O8'
_cell_volume   787.43013818
_cell_formula_units_Z   2
loop_
 _symmetry_equiv_pos_site_id
 _symmetry_equiv_pos_as_xyz
  1  'x, y, z'
loop_
 _atom_site_type_symbol
 _atom_site_label
 _atom_site_symmetry_multiplicity
 _atom_site_fract_x
 _atom_site_fract_y
 _atom_site_fract_z
 _atom_site_occupancy
 _atom_site_hle17_bader_spin_density
 _atom_site_hle17_ddec_charge
 _atom_site_hle17_ddec_spin_density
 _atom_site_hle17_ddec_sum_bond_order
 _atom_site_hle17_magmom
 _atom_site_hse06_10hf_bader_spin_density
 _atom_site_hse06_10hf_ddec_charge
 _atom_site_hse06_10hf_ddec_spin_density
 _atom_site_hse06_10hf_ddec_sum_bond_order
 _atom_site_hse06_10hf_magmom
 _atom_site_hse06_bader_spin_density
 _atom_site_hse06_ddec_charge
 _atom_site_hse06_ddec_spin_density
 _atom_site_hse06_ddec_sum_bond_order
 _atom_site_hse06_magmom
 _atom_site_pbe_bader_spin_density
 _atom_site_pbe_cm5_charge
 _atom_site_pbe_ddec_charge
 _atom_site_pbe_ddec_spin_density
 _atom_site_pbe_ddec_sum_bond_order
 _atom_site_pbe_magmom
Zn  Zn0  1  0.47369437  0.51662338  0.13941430  1  0  1.059095  0  1.843513  0  0  0.889184  0  2.311125  0  0  0.942047  0  2.245737  0  0  0.669238  0.852332  0  2.355849  0
Zn  Zn1  1  0.52631555  0.48338583  0.86058386  1  0  1.059058  0  1.843523  0  0  0.889151  0  2.311134  0  0  0.942025  0  2.245724  0  0  0.669211  0.8523  0  2.355864  0
H  H2  1  0.26450774  0.67449378  0.59924583  1  0  0.331705  0  0.831682  0  0  0.323603  0  0.874678  0  0  0.330245  0  0.870024  0  0  0.34855  0.318763  0  0.878324  0
H  H3  1  0.73547537  0.32548780  0.40075799  1  0  0.331621  0  0.831575  0  0  0.323675  0  0.874398  0  0  0.330306  0  0.869764  0  0  0.348538  0.31883  0  0.878037  0
H  H4  1  0.93035437  0.37625315  0.11627513  1  0  0.106931  0  0.938984  0  0  0.123487  0  0.996953  0  0  0.125835  0  0.996379  0  0  0.099435  0.121792  0  0.997464  0
H  H5  1  0.06964998  0.62375897  0.88372478  1  0  0.106966  0  0.938744  0  0  0.123489  0  0.996746  0  0  0.125846  0  0.996151  0  0  0.099408  0.121793  0  0.997259  0
H  H6  1  0.03161023  0.24022790  0.20200451  1  0  0.103204  0  0.933696  0  0  0.114363  0  1.001172  0  0  0.117083  0  0.999457  0  0  0.098469  0.112369  0  1.002544  0
H  H7  1  0.96838760  0.75978302  0.79800086  1  0  0.10321  0  0.933799  0  0  0.114384  0  1.001227  0  0  0.117099  0  0.999507  0  0  0.098492  0.112389  0  1.002598  0
H  H8  1  0.09714722  0.11525703  0.01291706  1  0  0.061831  0  0.959477  0  0  0.079555  0  1.024412  0  0  0.08026  0  1.024672  0  0  0.087223  0.078981  0  1.024344  0
H  H9  1  0.90285619  0.88475087  0.98709225  1  0  0.061832  0  0.959494  0  0  0.079554  0  1.024422  0  0  0.080259  0  1.02468  0  0  0.08722  0.07898  0  1.024354  0
H  H10  1  0.03278238  0.25544134  0.90846591  1  0  0.065388  0  0.965971  0  0  0.082181  0  1.031571  0  0  0.083201  0  1.032216  0  0  0.087883  0.081362  0  1.031239  0
H  H11  1  0.96722667  0.74456274  0.09153608  1  0  0.065329  0  0.966169  0  0  0.082149  0  1.031718  0  0  0.083168  0  1.032367  0  0  0.087861  0.081332  0  1.031382  0
H  H12  1  0.80039465  0.08231289  0.99816848  1  0  0.090498  0  0.972942  0  0  0.10091  0  1.04209  0  0  0.102748  0  1.041995  0  0  0.091953  0.099566  0  1.042315  0
H  H13  1  0.19961141  0.91769509  0.00183832  1  0  0.09055  0  0.972955  0  0  0.100986  0  1.042132  0  0  0.102828  0  1.042035  0  0  0.091985  0.099643  0  1.042354  0
H  H14  1  0.78027804  0.10495558  0.16625665  1  0  0.096783  0  0.918504  0  0  0.11371  0  0.97103  0  0  0.116193  0  0.969908  0  0  0.09322  0.111856  0  0.972019  0
H  H15  1  0.21972342  0.89505943  0.83374821  1  0  0.096811  0  0.918535  0  0  0.113772  0  0.971066  0  0  0.116252  0  0.969949  0  0  0.093257  0.111916  0  0.972061  0
H  H16  1  0.28341521  0.26383857  0.33295546  1  0  0.12038  0  0.972  0  0  0.123871  0  1.04188  0  0  0.12705  0  1.040026  0  0  0.104815  0.121447  0  1.04356  0
H  H17  1  0.71659268  0.73616294  0.66702445  1  0  0.120283  0  0.971995  0  0  0.12376  0  1.04191  0  0  0.126938  0  1.040055  0  0  0.104763  0.121339  0  1.043597  0
H  H18  1  0.06216381  0.14151361  0.53001170  1  0  0.091455  0  0.973865  0  0  0.095665  0  1.045843  0  0  0.098405  0  1.044549  0  0  0.095917  0.09364  0  1.046977  0
H  H19  1  0.93783968  0.85847702  0.46995574  1  0  0.091547  0  0.973788  0  0  0.095789  0  1.045714  0  0  0.098522  0  1.044422  0  0  0.095959  0.09376  0  1.046848  0
H  H20  1  0.92199947  0.24589189  0.73532308  1  0  0.097036  0  0.958993  0  0  0.10694  0  1.020472  0  0  0.10939  0  1.020152  0  0  0.098926  0.105136  0  1.020854  0
H  H21  1  0.07800143  0.75408332  0.26465874  1  0  0.097167  0  0.958831  0  0  0.107026  0  1.02036  0  0  0.109475  0  1.02004  0  0  0.098981  0.105212  0  1.020753  0
H  H22  1  0.00760349  0.46942607  0.75448034  1  0  0.124562  0  0.961384  0  0  0.133467  0  1.021868  0  0  0.13672  0  1.020152  0  0  0.108234  0.131062  0  1.023291  0
H  H23  1  0.99238807  0.53054981  0.24551202  1  0  0.124463  0  0.961431  0  0  0.133395  0  1.021893  0  0  0.136654  0  1.020162  0  0  0.10818  0.130985  0  1.023317  0
H  H24  1  0.56494128  0.77146118  0.42112940  1  0  0.113839  0  0.93215  0  0  0.124233  0  0.993242  0  0  0.125702  0  0.992265  0  0  0.123053  0.123044  0  0.993538  0
H  H25  1  0.43504850  0.22853549  0.57887908  1  0  0.113855  0  0.932128  0  0  0.124268  0  0.993182  0  0  0.125748  0  0.992205  0  0  0.123061  0.12308  0  0.993473  0
H  H26  1  0.62217042  0.71541453  0.26191882  1  0  0.138897  0  0.935954  0  0  0.148028  0  0.99988  0  0  0.150796  0  0.99725  0  0  0.133558  0.145859  0  1.001476  0
H  H27  1  0.37782696  0.28458627  0.73808918  1  0  0.138877  0  0.935936  0  0  0.147998  0  0.999846  0  0  0.150773  0  0.997223  0  0  0.133532  0.145831  0  1.001439  0
H  H28  1  0.54964487  0.88908454  0.07508803  1  0  0.125461  0  0.949258  0  0  0.125697  0  1.025848  0  0  0.129292  0  1.021144  0  0  0.146994  0.122862  0  1.029014  0
H  H29  1  0.45035687  0.11092737  0.92492104  1  0  0.12543  0  0.94933  0  0  0.125676  0  1.0259  0  0  0.129278  0  1.021188  0  0  0.146982  0.122836  0  1.02908  0
C  C30  1  0.21019166  0.36768833  0.04748355  1  0  0.723978  0  3.807835  0  0  0.673109  0  4.108031  0  0  0.707736  0  4.100894  0  0  0.218692  0.649497  0  4.11223  0
C  C31  1  0.78981422  0.63232164  0.95252393  1  0  0.724095  0  3.807925  0  0  0.673078  0  4.108283  0  0  0.707698  0  4.101152  0  0  0.218621  0.649467  0  4.112475  0
C  C32  1  0.03641804  0.29609011  0.10128981  1  0  -0.271149  0  3.671615  0  0  -0.30859  0  3.925612  0  0  -0.315044  0  3.933844  0  0  -0.169836  -0.30415  0  3.919916  0
C  C33  1  0.96358897  0.70392202  0.89871139  1  0  -0.271175  0  3.671532  0  0  -0.308566  0  3.925467  0  0  -0.314993  0  3.93364  0  0  -0.169852  -0.304137  0  3.919791  0
C  C34  1  0.00390846  0.20340198  0.01292529  1  0  -0.055501  0  3.670424  0  0  -0.097412  0  3.925382  0  0  -0.096994  0  3.939003  0  0  -0.167408  -0.097507  0  3.915864  0
C  C35  1  0.99609493  0.79660601  0.98707928  1  0  -0.055483  0  3.670569  0  0  -0.097357  0  3.925511  0  0  -0.096943  0  3.939128  0  0  -0.167378  -0.097456  0  3.915994  0
C  C36  1  0.81244038  0.15469945  0.06062910  1  0  -0.267066  0  3.662876  0  0  -0.304954  0  3.915024  0  0  -0.311281  0  3.923476  0  0  -0.169823  -0.300548  0  3.909015  0
C  C37  1  0.18756558  0.84530959  0.93937472  1  0  -0.267122  0  3.662992  0  0  -0.305187  0  3.915301  0  0  -0.311521  0  3.923756  0  0  -0.169903  -0.300778  0  3.909293  0
C  C38  1  0.68242455  0.27338835  0.04615181  1  0  0.719878  0  3.812538  0  0  0.675435  0  4.104163  0  0  0.709644  0  4.097733  0  0  0.21394  0.652227  0  4.107672  0
C  C39  1  0.31758148  0.72661979  0.95384740  1  0  0.719702  0  3.812957  0  0  0.675317  0  4.104549  0  0  0.709529  0  4.098118  0  0  0.213895  0.652111  0  4.108048  0
C  C40  1  0.27244384  0.43468660  0.43457979  1  0  0.138838  0  3.815929  0  0  0.137357  0  4.058603  0  0  0.139845  0  4.083289  0  0  0.084903  0.135686  0  4.041946  0
C  C41  1  0.72755534  0.56530853  0.56541163  1  0  0.138616  0  3.816398  0  0  0.13705  0  4.059134  0  0  0.139534  0  4.083829  0  0  0.084829  0.13539  0  4.042486  0
C  C42  1  0.22621703  0.30737662  0.42433610  1  0  -0.141262  0  3.740321  0  0  -0.161329  0  3.994393  0  0  -0.16337  0  4.013825  0  0  -0.095374  -0.159881  0  3.981303  0
C  C43  1  0.77378362  0.69261664  0.57564864  1  0  -0.140852  0  3.740337  0  0  -0.160852  0  3.994335  0  0  -0.162893  0  4.013784  0  0  -0.095264  -0.159392  0  3.981195  0
C  C44  1  0.10195689  0.24031074  0.53517590  1  0  -0.091057  0  3.798925  0  0  -0.110612  0  4.06277  0  0  -0.113929  0  4.086755  0  0  -0.102691  -0.108219  0  4.046456  0
C  C45  1  0.89804276  0.75967862  0.46480210  1  0  -0.091507  0  3.799202  0  0  -0.111115  0  4.063108  0  0  -0.114419  0  4.087077  0  0  -0.102835  -0.108717  0  4.04679  0
C  C46  1  0.02402554  0.29864115  0.65230115  1  0  -0.069597  0  3.764662  0  0  -0.088923  0  4.025068  0  0  -0.091307  0  4.048539  0  0  -0.098815  -0.087247  0  4.009174  0
C  C47  1  0.97597085  0.70133999  0.34768361  1  0  -0.069367  0  3.764642  0  0  -0.088641  0  4.024943  0  0  -0.09103  0  4.04843  0  0  -0.09871  -0.086951  0  4.009028  0
C  C48  1  0.07163004  0.42385071  0.66511124  1  0  -0.144172  0  3.723451  0  0  -0.161974  0  3.976625  0  0  -0.164452  0  3.995734  0  0  -0.09233  -0.160305  0  3.963911  0
C  C49  1  0.92836743  0.57613337  0.33487756  1  0  -0.144198  0  3.723314  0  0  -0.162027  0  3.976497  0  0  -0.164516  0  3.995621  0  0  -0.092324  -0.160339  0  3.963776  0
C  C50  1  0.19961374  0.48940956  0.55501190  1  0  0.155597  0  3.788088  0  0  0.149651  0  4.030833  0  0  0.152888  0  4.054651  0  0  0.096069  0.147447  0  4.014863  0
C  C51  1  0.80038093  0.51057638  0.44498293  1  0  0.155493  0  3.788017  0  0  0.149552  0  4.030844  0  0  0.152778  0  4.054664  0  0  0.095961  0.147319  0  4.014917  0
C  C52  1  0.39296917  0.62850689  0.40392592  1  0  0.39348  0  3.682958  0  0  0.357767  0  3.970828  0  0  0.376199  0  3.980483  0  0  0.237416  0.345844  0  3.962611  0
C  C53  1  0.60702475  0.37148793  0.59607717  1  0  0.393421  0  3.683183  0  0  0.357664  0  3.971094  0  0  0.376114  0  3.980731  0  0  0.237456  0.34574  0  3.962872  0
C  C54  1  0.51117737  0.74468747  0.34491068  1  0  -0.133787  0  3.652205  0  0  -0.202044  0  3.888564  0  0  -0.191823  0  3.897256  0  0  -0.033495  -0.20309  0  3.884544  0
C  C55  1  0.48881365  0.25531023  0.65509735  1  0  -0.133786  0  3.652364  0  0  -0.20201  0  3.888604  0  0  -0.191856  0  3.897359  0  0  -0.033466  -0.203048  0  3.884575  0
C  C56  1  0.45046833  0.92390957  0.16015370  1  0  0.14792  0  3.640937  0  0  0.078357  0  3.914424  0  0  0.098665  0  3.928454  0  0  0.17318  0.070962  0  3.906989  0
C  C57  1  0.54953375  0.07609836  0.83985307  1  0  0.148037  0  3.641059  0  0  0.07845  0  3.914541  0  0  0.098748  0  3.928535  0  0  0.173252  0.071057  0  3.907113  0
N  N58  1  0.38976214  0.52529066  0.34189497  1  0  -0.452463  0  3.137869  0  0  -0.38838  0  3.428066  0  0  -0.409792  0  3.43778  0  0  -0.342909  -0.374064  0  3.421473  0
N  N59  1  0.61023821  0.47470635  0.65810347  1  0  -0.452461  0  3.137974  0  0  -0.388258  0  3.428082  0  0  -0.409676  0  3.437797  0  0  -0.342901  -0.373952  0  3.42152  0
N  N60  1  0.28095476  0.61087100  0.53170923  1  0  -0.367198  0  3.34447  0  0  -0.316685  0  3.581599  0  0  -0.333607  0  3.593219  0  0  -0.366152  -0.305374  0  3.573715  0
N  N61  1  0.71903155  0.38911963  0.46829719  1  0  -0.366889  0  3.344436  0  0  -0.316566  0  3.581601  0  0  -0.333459  0  3.593214  0  0  -0.366068  -0.305238  0  3.573711  0
N  N62  1  0.42199617  0.86446086  0.28923577  1  0  0.040659  0  3.545538  0  0  0.151453  0  3.74092  0  0  0.114754  0  3.794429  0  0  -0.123235  0.158691  0  3.725766  0
N  N63  1  0.57799741  0.13553785  0.71077342  1  0  0.040637  0  3.545919  0  0  0.151508  0  3.741172  0  0  0.114871  0  3.794646  0  0  -0.123249  0.158739  0  3.726027  0
N  N64  1  0.28719592  0.93332538  0.36776753  1  0  -0.12683  0  2.847015  0  0  -0.143736  0  3.127299  0  0  -0.133392  0  3.14019  0  0  -0.083992  -0.144982  0  3.121697  0
N  N65  1  0.71279519  0.06667129  0.63224160  1  0  -0.126818  0  2.847235  0  0  -0.143762  0  3.127511  0  0  -0.133434  0  3.140391  0  0  -0.083977  -0.145004  0  3.121908  0
N  N66  1  0.23686563  0.03155302  0.28653462  1  0  -0.048381  0  2.92231  0  0  -0.038908  0  3.229059  0  0  -0.03698  0  3.235165  0  0  -0.068931  -0.03963  0  3.222914  0
N  N67  1  0.76312780  0.96844761  0.71347905  1  0  -0.048553  0  2.922151  0  0  -0.03907  0  3.228923  0  0  -0.037145  0  3.235032  0  0  -0.069087  -0.039792  0  3.222775  0
N  N68  1  0.33665171  0.02917522  0.15618385  1  0  -0.261325  0  2.919839  0  0  -0.235182  0  3.214442  0  0  -0.247042  0  3.224216  0  0  -0.213628  -0.227215  0  3.205849  0
N  N69  1  0.66334765  0.97083355  0.84382909  1  0  -0.261227  0  2.919701  0  0  -0.235111  0  3.214339  0  0  -0.246974  0  3.224126  0  0  -0.213533  -0.227141  0  3.205741  0
O  O70  1  0.25717797  0.41856433  0.13263205  1  0  -0.656618  0  2.10185  0  0  -0.586661  0  2.369485  0  0  -0.616011  0  2.356894  0  0  -0.315574  -0.566204  0  2.377449  0
O  O71  1  0.74281951  0.58145059  0.86737467  1  0  -0.656624  0  2.101914  0  0  -0.586647  0  2.369607  0  0  -0.616001  0  2.357023  0  0  -0.31551  -0.566191  0  2.377568  0
O  O72  1  0.29457569  0.37755837  0.92233228  1  0  -0.650621  0  2.044731  0  0  -0.581079  0  2.307525  0  0  -0.61025  0  2.295444  0  0  -0.320038  -0.5608  0  2.31528  0
O  O73  1  0.70543879  0.62244463  0.07767719  1  0  -0.650738  0  2.044793  0  0  -0.581027  0  2.307504  0  0  -0.610197  0  2.295428  0  0  -0.319998  -0.560749  0  2.315255  0
O  O74  1  0.65367728  0.30674989  0.93178489  1  0  -0.656369  0  2.05682  0  0  -0.590181  0  2.321169  0  0  -0.619838  0  2.310188  0  0  -0.319411  -0.569578  0  2.328068  0
O  O75  1  0.34633910  0.69326145  0.06821147  1  0  -0.656265  0  2.056961  0  0  -0.590063  0  2.321246  0  0  -0.619718  0  2.310264  0  0  -0.31942  -0.569459  0  2.328132  0
O  O76  1  0.61853335  0.33530896  0.14679796  1  0  -0.653994  0  2.025189  0  0  -0.591431  0  2.28616  0  0  -0.619653  0  2.27187  0  0  -0.32801  -0.571694  0  2.295222  0
O  O77  1  0.38146224  0.66469699  0.85320301  1  0  -0.65396  0  2.025404  0  0  -0.591376  0  2.286311  0  0  -0.619601  0  2.272022  0  0  -0.327983  -0.571641  0  2.295376  0
