# generated using pymatgen
data_Cd3H40C54(N2O9)2
_symmetry_space_group_name_H-M   'P 1'
_cell_length_a   8.60628181
_cell_length_b   12.39987272
_cell_length_c   13.88245893
_cell_angle_alpha   103.91825798
_cell_angle_beta   99.60010399
_cell_angle_gamma   100.01390559
_symmetry_Int_Tables_number   1
_chemical_formula_structural   Cd3H40C54(N2O9)2
_chemical_formula_sum   'Cd3 H40 C54 N4 O18'
_cell_volume   1381.95596282
_cell_formula_units_Z   1
loop_
 _symmetry_equiv_pos_site_id
 _symmetry_equiv_pos_as_xyz
  1  'x, y, z'
loop_
 _atom_site_type_symbol
 _atom_site_label
 _atom_site_symmetry_multiplicity
 _atom_site_fract_x
 _atom_site_fract_y
 _atom_site_fract_z
 _atom_site_occupancy
 _atom_site_pbe_bader_charge
 _atom_site_pbe_bader_spin_density
 _atom_site_pbe_cm5_charge
 _atom_site_pbe_ddec_charge
 _atom_site_pbe_ddec_spin_density
 _atom_site_pbe_ddec_sum_bond_order
 _atom_site_pbe_magmom
Cd  Cd0  1  0.00000155  0.50000055  0.00000233  1  1.38235  0  0.789516  1.107696  0  2.212084  0
Cd  Cd1  1  0.25298718  0.54470299  0.25198887  1  1.266435  0  0.778144  0.877389  0  2.175709  0
Cd  Cd2  1  0.74701393  0.45529541  0.74801117  1  1.26643  0  0.778132  0.877383  0  2.175744  0
H  H3  1  0.25261377  0.20170098  0.92888832  1  0.067024  0  0.104633  0.089016  0  1.008533  0
H  H4  1  0.74738806  0.79829575  0.07110783  1  0.067084  0  0.104662  0.089024  0  1.008511  0
H  H5  1  0.44942789  0.29277457  0.97474616  1  0.070134  0  0.107708  0.090888  0  0.983549  0
H  H6  1  0.55057255  0.70722554  0.02525417  1  0.070517  0  0.107715  0.090927  0  0.983504  0
H  H7  1  0.96551788  0.76943421  0.56511421  1  0.118528  0  0.103567  0.110026  0  1.019873  0
H  H8  1  0.03448164  0.23056674  0.43488621  1  0.118526  0  0.103562  0.110001  0  1.019899  0
H  H9  1  0.67936081  0.36103643  0.14741872  1  0.101732  0  0.120853  0.121611  0  0.955264  0
H  H10  1  0.32064153  0.63896200  0.85257857  1  0.101684  0  0.120865  0.121627  0  0.9552  0
H  H11  1  0.78057045  0.27618166  0.06940693  1  0.115606  0  0.107218  0.097882  0  1.011031  0
H  H12  1  0.21943277  0.72381592  0.93059244  1  0.115376  0  0.10722  0.097879  0  1.011053  0
H  H13  1  0.56797216  0.94733312  0.83074492  1  0.077116  0  0.108621  0.120762  0  0.985294  0
H  H14  1  0.43202683  0.05266190  0.16924839  1  0.076873  0  0.108623  0.120739  0  0.985327  0
H  H15  1  0.10022597  0.02223034  0.09856330  1  0.059721  0  0.099816  0.112167  0  1.03447  0
H  H16  1  0.89977644  0.97777233  0.90143708  1  0.05955  0  0.099767  0.112067  0  1.034477  0
H  H17  1  0.46105117  0.12061128  0.88214094  1  0.082537  0  0.101651  0.112162  0  1.018188  0
H  H18  1  0.53894925  0.87938460  0.11785343  1  0.082533  0  0.101614  0.112112  0  1.018263  0
H  H19  1  0.96038946  0.17632380  0.08819426  1  0.045784  0  0.100774  0.110645  0  1.023779  0
H  H20  1  0.03960837  0.82367544  0.91180560  1  0.04578  0  0.100783  0.110652  0  1.023745  0
H  H21  1  0.23873915  0.89464689  0.14199802  1  0.077919  0  0.104345  0.09037  0  1.017692  0
H  H22  1  0.76126552  0.10535155  0.85800097  1  0.077906  0  0.104328  0.090315  0  1.017692  0
H  H23  1  0.04265315  0.81000546  0.07889550  1  0.059889  0  0.102266  0.082261  0  1.014885  0
H  H24  1  0.95735034  0.18999719  0.92111076  1  0.059771  0  0.102279  0.082232  0  1.014809  0
H  H25  1  0.86834660  0.95731202  0.33789309  1  0.060909  0  0.105153  0.119942  0  0.993284  0
H  H26  1  0.13165792  0.04268982  0.66210735  1  0.061109  0  0.105171  0.120015  0  0.993268  0
H  H27  1  0.11970468  0.53233475  0.45576236  1  0.135969  0  0.118584  0.093494  0  1.001306  0
H  H28  1  0.88029367  0.46765852  0.54423770  1  0.136027  0  0.118581  0.093489  0  1.001267  0
H  H29  1  0.56946502  0.58758722  0.14450575  1  0.0904  0  0.116819  0.086814  0  0.990347  0
H  H30  1  0.43053528  0.41241629  0.85549530  1  0.090367  0  0.116796  0.086776  0  0.990329  0
H  H31  1  0.72369450  0.11414168  0.32587954  1  0.073515  0  0.107267  0.120131  0  0.985438  0
H  H32  1  0.27630255  0.88585500  0.67411968  1  0.073592  0  0.107237  0.120107  0  0.985476  0
H  H33  1  0.51314526  0.69126345  0.71838757  1  0.106162  0  0.114878  0.125361  0  0.999279  0
H  H34  1  0.48685230  0.30873492  0.28161280  1  0.106176  0  0.114859  0.125372  0  0.999272  0
H  H35  1  0.79060712  0.75030431  0.68610120  1  0.135417  0  0.109697  0.121946  0  1.002292  0
H  H36  1  0.20939088  0.24969153  0.31389649  1  0.135394  0  0.109684  0.121983  0  1.002226  0
H  H37  1  0.99678570  0.74408653  0.38169525  1  0.096778  0  0.115342  0.125103  0  0.98409  0
H  H38  1  0.00320993  0.25592118  0.61830909  1  0.096665  0  0.115309  0.125048  0  0.984132  0
H  H39  1  0.86567834  0.67075995  0.19678920  1  0.126027  0  0.107324  0.123834  0  1.035248  0
H  H40  1  0.13432075  0.32925121  0.80321267  1  0.126081  0  0.107308  0.123799  0  1.035286  0
H  H41  1  0.21674163  0.60235245  0.64499720  1  0.137921  0  0.10657  0.117763  0  1.048819  0
H  H42  1  0.78325636  0.39764338  0.35500122  1  0.137855  0  0.106572  0.117789  0  1.048725  0
C  C43  1  0.50089067  0.63642202  0.46325706  1  0.49638  0  0.119215  0.125372  0  3.96393  0
C  C44  1  0.49910479  0.36357720  0.53674253  1  0.496507  0  0.119215  0.125371  0  3.964028  0
C  C45  1  0.93662055  0.40215965  0.20190015  1  1.575214  0  0.196424  0.581719  0  4.190783  0
C  C46  1  0.06338122  0.59783706  0.79809959  1  1.575102  0  0.196522  0.581933  0  4.19056  0
C  C47  1  0.56941892  0.67498774  0.56954392  1  -0.069761  0  -0.001155  0.041968  0  3.995996  0
C  C48  1  0.43057942  0.32501320  0.43045636  1  -0.069794  0  -0.001158  0.041979  0  3.996002  0
C  C49  1  0.60325939  0.64876165  0.39210325  1  0.494529  0  0.112241  0.118336  0  3.97924  0
C  C50  1  0.39673880  0.35124269  0.60789776  1  0.494668  0  0.112236  0.118222  0  3.979526  0
C  C51  1  0.34016402  0.25558726  0.99824863  1  0.417692  0  -0.069845  -0.126671  0  3.917873  0
C  C52  1  0.65983423  0.74440944  0.00174928  1  0.417289  0  -0.069899  -0.126687  0  3.917778  0
C  C53  1  0.43785222  0.09694501  0.02978711  1  0.459933  0  0.067703  0.230512  0  4.075468  0
C  C54  1  0.56214794  0.90305002  0.97020705  1  0.460316  0  0.067612  0.230421  0  4.075353  0
C  C55  1  0.83081496  0.15444904  0.20587764  1  0.431489  0  0.076132  0.240698  0  4.063193  0
C  C56  1  0.16918433  0.84555106  0.79412112  1  0.430943  0  0.076177  0.240754  0  4.063014  0
C  C57  1  0.18481222  0.73306672  0.17328657  1  1.593164  0  0.195855  0.600041  0  4.1817  0
C  C58  1  0.81519344  0.26693511  0.82671614  1  1.593659  0  0.195838  0.599978  0  4.181646  0
C  C59  1  0.83605763  0.73397712  0.53722382  1  -0.079234  0  -0.081811  -0.116704  0  3.965414  0
C  C60  1  0.16394284  0.26602299  0.46277507  1  -0.079229  0  -0.081833  -0.116676  0  3.965507  0
C  C61  1  0.77822286  0.31550110  0.14921889  1  0.396577  0  -0.065901  -0.129121  0  3.902431  0
C  C62  1  0.22177941  0.68449732  0.85078200  1  0.397022  0  -0.065937  -0.129196  0  3.902274  0
C  C63  1  0.54057737  0.97258968  0.90576217  1  0.018378  0  -0.106023  -0.18098  0  4.04342  0
C  C64  1  0.45942304  0.02740620  0.09423220  1  0.018976  0  -0.105964  -0.180817  0  4.043452  0
C  C65  1  0.01697363  0.04011230  0.14834492  1  0.008793  0  -0.112489  -0.201037  0  4.018804  0
C  C66  1  0.98303113  0.95989039  0.85165645  1  0.009245  0  -0.112412  -0.200956  0  4.018766  0
C  C67  1  0.47886771  0.06924334  0.93476280  1  -0.102266  0  -0.109912  -0.203369  0  4.035911  0
C  C68  1  0.52113439  0.93075425  0.06523284  1  -0.102278  0  -0.109917  -0.203439  0  4.036006  0
C  C69  1  0.93711389  0.12852019  0.14253654  1  0.026592  0  -0.110101  -0.18833  0  4.007295  0
C  C70  1  0.06288681  0.87148077  0.85746400  1  0.026683  0  -0.110108  -0.1883  0  4.007214  0
C  C71  1  0.26950180  0.35372399  0.04877671  1  1.595151  0  0.208907  0.612649  0  4.191442  0
C  C72  1  0.73049329  0.64627013  0.95122174  1  1.59489  0  0.208919  0.612723  0  4.191544  0
C  C73  1  0.99170993  0.97840791  0.21861207  1  0.386072  0  0.065973  0.220756  0  4.095447  0
C  C74  1  0.00829652  0.02159649  0.78139057  1  0.386141  0  0.066007  0.220777  0  4.095405  0
C  C75  1  0.13241908  0.83753019  0.15164799  1  0.410768  0  -0.070134  -0.117689  0  3.907543  0
C  C76  1  0.86758802  0.16247251  0.84835507  1  0.410822  0  -0.070059  -0.117484  0  3.907158  0
C  C77  1  0.88632065  0.00578560  0.28316439  1  0.012532  0  -0.104743  -0.183421  0  4.028479  0
C  C78  1  0.11367990  0.99421876  0.71683688  1  0.011961  0  -0.10479  -0.183535  0  4.028512  0
C  C79  1  0.24585023  0.57422452  0.49072940  1  0.445335  0  0.054774  0.104075  0  3.952245  0
C  C80  1  0.75414772  0.42577130  0.50927118  1  0.445373  0  0.054748  0.104102  0  3.952146  0
C  C81  1  0.62939114  0.61970887  0.22485927  1  0.505324  0  0.05569  0.105477  0  3.95072  0
C  C82  1  0.37060849  0.38029633  0.77514208  1  0.505728  0  0.055709  0.105594  0  3.950606  0
C  C83  1  0.80689416  0.09282086  0.27676666  1  -0.038768  0  -0.10174  -0.17867  0  4.031059  0
C  C84  1  0.19310446  0.90718094  0.72323240  1  -0.038535  0  -0.101726  -0.178664  0  4.031007  0
C  C85  1  0.46469136  0.66196553  0.63635128  1  0.039879  0  -0.055788  -0.062664  0  3.880564  0
C  C86  1  0.53530500  0.33803283  0.36364967  1  0.039859  0  -0.055801  -0.06271  0  3.880596  0
C  C87  1  0.73916135  0.72367576  0.60457210  1  -0.017524  0  -0.077728  -0.100428  0  3.944631  0
C  C88  1  0.26083884  0.27632349  0.39542802  1  -0.017525  0  -0.077688  -0.10046  0  3.944651  0
C  C89  1  0.86730941  0.70651446  0.35742588  1  -0.031813  0  -0.059086  -0.068079  0  3.894663  0
C  C90  1  0.13268677  0.29349496  0.64257673  1  -0.031707  0  -0.059087  -0.068077  0  3.894795  0
C  C91  1  0.77139453  0.69767905  0.42978440  1  0.048158  0  -0.000515  0.040418  0  4.013885  0
C  C92  1  0.22860130  0.30232527  0.57021635  1  0.048151  0  -0.000502  0.040455  0  4.014004  0
C  C93  1  0.79630123  0.66692233  0.25486152  1  -0.034018  0  -0.081902  -0.115436  0  3.965123  0
C  C94  1  0.20369614  0.33308710  0.74514122  1  -0.034038  0  -0.081851  -0.115389  0  3.96508  0
C  C95  1  0.30252241  0.61165538  0.59662619  1  -0.029551  0  -0.085426  -0.126183  0  3.970229  0
C  C96  1  0.69747581  0.38834130  0.40337388  1  -0.029421  0  -0.085388  -0.126208  0  3.97009  0
N  N97  1  0.34177310  0.58660012  0.42639181  1  -1.244645  0  -0.32872  -0.27285  0  3.540565  0
N  N98  1  0.65822328  0.41339825  0.57360842  1  -1.244949  0  -0.328725  -0.272826  0  3.540581  0
N  N99  1  0.53595021  0.61171014  0.29122968  1  -1.243464  0  -0.326501  -0.274393  0  3.521875  0
N  N100  1  0.46404704  0.38829503  0.70877285  1  -1.243879  0  -0.326479  -0.274393  0  3.521881  0
O  O101  1  0.98557452  0.47466970  0.15438627  1  -1.185101  0  -0.343515  -0.598254  0  2.438449  0
O  O102  1  0.01442497  0.52533123  0.84561630  1  -1.185144  0  -0.343539  -0.598306  0  2.438433  0
O  O103  1  0.20981700  0.66111268  0.09756052  1  -1.209594  0  -0.353434  -0.625494  0  2.231107  0
O  O104  1  0.79018367  0.33888827  0.90244218  1  -1.209621  0  -0.353413  -0.625461  0  2.231105  0
O  O105  1  0.37864121  0.19101715  0.06695994  1  -1.079691  0  -0.184118  -0.185738  0  2.585409  0
O  O106  1  0.62135772  0.80897785  0.93303696  1  -1.079807  0  -0.184056  -0.185686  0  2.585354  0
O  O107  1  0.73944417  0.23453917  0.20305890  1  -1.083866  0  -0.180015  -0.189795  0  2.639551  0
O  O108  1  0.26055603  0.76546009  0.79694050  1  -1.083873  0  -0.180036  -0.189819  0  2.639375  0
O  O109  1  0.01306197  0.40317346  0.28713976  1  -1.170262  0  -0.306627  -0.52834  0  2.18462  0
O  O110  1  0.98694113  0.59681986  0.71285939  1  -1.170246  0  -0.306678  -0.528459  0  2.18462  0
O  O111  1  0.30277678  0.38868215  0.14471044  1  -1.149072  0  -0.325127  -0.546989  0  2.290157  0
O  O112  1  0.69721884  0.61131367  0.85528771  1  -1.149122  0  -0.325153  -0.547028  0  2.290111  0
O  O113  1  0.20238363  0.72368429  0.26297007  1  -1.134273  0  -0.321258  -0.523733  0  2.215125  0
O  O114  1  0.79761678  0.27631580  0.73703242  1  -1.134764  0  -0.32127  -0.523748  0  2.215144  0
O  O115  1  0.18570492  0.39160230  0.98533339  1  -1.181729  0  -0.335811  -0.59098  0  2.300291  0
O  O116  1  0.81428780  0.60839179  0.01466551  1  -1.18144  0  -0.335716  -0.590945  0  2.300411  0
O  O117  1  0.06528030  0.89159638  0.23217291  1  -1.074318  0  -0.189501  -0.190116  0  2.583738  0
O  O118  1  0.93473280  0.10841061  0.76783246  1  -1.074137  0  -0.189602  -0.190194  0  2.583579  0
