# generated using pymatgen
data_ZnMoH9C12N5O4
_symmetry_space_group_name_H-M   'P 1'
_cell_length_a   6.35988619
_cell_length_b   9.38816579
_cell_length_c   22.97429397
_cell_angle_alpha   90.00015798
_cell_angle_beta   90.00004001
_cell_angle_gamma   90.00033845
_symmetry_Int_Tables_number   1
_chemical_formula_structural   ZnMoH9C12N5O4
_chemical_formula_sum   'Zn4 Mo4 H36 C48 N20 O16'
_cell_volume   1371.74146978
_cell_formula_units_Z   4
loop_
 _symmetry_equiv_pos_site_id
 _symmetry_equiv_pos_as_xyz
  1  'x, y, z'
loop_
 _atom_site_type_symbol
 _atom_site_label
 _atom_site_symmetry_multiplicity
 _atom_site_fract_x
 _atom_site_fract_y
 _atom_site_fract_z
 _atom_site_occupancy
 _atom_site_hle17_bader_spin_density
 _atom_site_hle17_ddec_charge
 _atom_site_hle17_ddec_spin_density
 _atom_site_hle17_ddec_sum_bond_order
 _atom_site_hle17_magmom
 _atom_site_hse06_10hf_bader_spin_density
 _atom_site_hse06_10hf_ddec_charge
 _atom_site_hse06_10hf_ddec_spin_density
 _atom_site_hse06_10hf_ddec_sum_bond_order
 _atom_site_hse06_10hf_magmom
 _atom_site_hse06_bader_spin_density
 _atom_site_hse06_ddec_charge
 _atom_site_hse06_ddec_spin_density
 _atom_site_hse06_ddec_sum_bond_order
 _atom_site_hse06_magmom
 _atom_site_pbe_bader_spin_density
 _atom_site_pbe_cm5_charge
 _atom_site_pbe_ddec_charge
 _atom_site_pbe_ddec_spin_density
 _atom_site_pbe_ddec_sum_bond_order
 _atom_site_pbe_magmom
Zn  Zn0  1  0.50140458  0.31069958  0.93817965  1  0  1.19229  0  1.853385  0  0  1.047229  0  2.32906  0  0  1.094844  0  2.265817  0  0  0.69403  1.013605  0  2.373251  0
Zn  Zn1  1  0.00140248  0.68929993  0.06182079  1  0  1.192268  0  1.853338  0  0  1.047238  0  2.328951  0  0  1.094852  0  2.265709  0  0  0.694045  1.013625  0  2.373132  0
Zn  Zn2  1  0.50140657  0.18930038  0.43817945  1  0  1.192314  0  1.853362  0  0  1.047252  0  2.329026  0  0  1.094869  0  2.265776  0  0  0.694058  1.013629  0  2.373204  0
Zn  Zn3  1  0.00140049  0.81070126  0.56182055  1  0  1.192294  0  1.853278  0  0  1.047251  0  2.328914  0  0  1.094865  0  2.26567  0  0  0.694044  1.013632  0  2.373099  0
Mo  Mo4  1  0.00139180  0.51873170  0.91947838  1  0  2.176472  0  4.318133  0  0  2.147147  0  4.920572  0  0  2.248672  0  4.880681  0  0  1.503348  2.075775  0  4.951214  0
Mo  Mo5  1  0.50138539  0.48126781  0.08052162  1  0  2.176536  0  4.31802  0  0  2.147239  0  4.920433  0  0  2.248749  0  4.880557  0  0  1.503375  2.075858  0  4.951082  0
Mo  Mo6  1  0.00139005  0.98126658  0.41947851  1  0  2.176543  0  4.318112  0  0  2.147221  0  4.920557  0  0  2.248745  0  4.880659  0  0  1.503396  2.075843  0  4.9512  0
Mo  Mo7  1  0.50138714  0.01873399  0.58052149  1  0  2.176512  0  4.318233  0  0  2.147195  0  4.920672  0  0  2.248716  0  4.880782  0  0  1.503362  2.075817  0  4.951321  0
H  H8  1  0.49985312  0.11764621  0.71674423  1  0  0.33457  0  0.930735  0  0  0.312558  0  0.99432  0  0  0.322889  0  0.984985  0  0  0.312421  0.305245  0  1.000814  0
H  H9  1  0.99985543  0.88234997  0.28325631  1  0  0.334575  0  0.930751  0  0  0.312546  0  0.99435  0  0  0.32288  0  0.985013  0  0  0.312401  0.305228  0  1.000849  0
H  H10  1  0.49985051  0.38235224  0.21674512  1  0  0.334583  0  0.930749  0  0  0.312565  0  0.994342  0  0  0.322892  0  0.985014  0  0  0.312434  0.305248  0  1.000839  0
H  H11  1  0.99985175  0.61764713  0.78325498  1  0  0.334605  0  0.930696  0  0  0.312585  0  0.994289  0  0  0.322916  0  0.984957  0  0  0.312448  0.305273  0  1.000783  0
H  H12  1  0.49075314  0.31587434  0.67534329  1  0  0.08645  0  0.977873  0  0  0.097751  0  1.039127  0  0  0.101052  0  1.036096  0  0  0.110605  0.095077  0  1.041657  0
H  H13  1  0.99074910  0.68412606  0.32465464  1  0  0.086452  0  0.977901  0  0  0.09779  0  1.039108  0  0  0.101093  0  1.036075  0  0  0.11063  0.095114  0  1.04164  0
H  H14  1  0.49074722  0.18413019  0.17534439  1  0  0.086399  0  0.977896  0  0  0.09775  0  1.039114  0  0  0.101055  0  1.03607  0  0  0.1106  0.095077  0  1.041646  0
H  H15  1  0.99075030  0.81587340  0.82465528  1  0  0.086445  0  0.977881  0  0  0.097786  0  1.039095  0  0  0.101088  0  1.036063  0  0  0.110621  0.095113  0  1.041625  0
H  H16  1  0.50147019  0.10839506  0.04373725  1  0  0.096954  0  0.940989  0  0  0.107083  0  1.000103  0  0  0.109621  0  0.998398  0  0  0.119503  0.105002  0  1.001846  0
H  H17  1  0.00146895  0.89160658  0.95626362  1  0  0.096918  0  0.941141  0  0  0.107046  0  1.000244  0  0  0.109583  0  0.998538  0  0  0.119493  0.104974  0  1.001979  0
H  H18  1  0.50147048  0.39160543  0.54373798  1  0  0.09699  0  0.941049  0  0  0.107131  0  1.000145  0  0  0.10967  0  0.99844  0  0  0.119547  0.105078  0  1.001861  0
H  H19  1  0.00146866  0.60839408  0.45626202  1  0  0.096963  0  0.941064  0  0  0.107106  0  1.000154  0  0  0.109643  0  0.998449  0  0  0.119529  0.105039  0  1.001879  0
H  H20  1  0.49314703  0.79505381  0.87229455  1  0  0.112957  0  0.96087  0  0  0.126059  0  1.016616  0  0  0.12879  0  1.01624  0  0  0.113384  0.124085  0  1.017052  0
H  H21  1  0.99314933  0.20494554  0.12770686  1  0  0.112964  0  0.960853  0  0  0.126073  0  1.016596  0  0  0.128804  0  1.01622  0  0  0.113376  0.124099  0  1.017024  0
H  H22  1  0.49315073  0.70494612  0.37229524  1  0  0.112958  0  0.960906  0  0  0.126071  0  1.016638  0  0  0.128801  0  1.01626  0  0  0.113387  0.124094  0  1.017069  0
H  H23  1  0.99314563  0.29505429  0.62770486  1  0  0.112998  0  0.960842  0  0  0.126102  0  1.016585  0  0  0.128833  0  1.016208  0  0  0.113404  0.124132  0  1.017017  0
H  H24  1  0.50795425  0.52359709  0.84332158  1  0  0.097833  0  0.953313  0  0  0.108599  0  1.017528  0  0  0.11146  0  1.014879  0  0  0.107696  0.106371  0  1.019811  0
H  H25  1  0.00796311  0.47639818  0.15667712  1  0  0.097841  0  0.953276  0  0  0.108639  0  1.017458  0  0  0.1115  0  1.014808  0  0  0.107691  0.10641  0  1.019745  0
H  H26  1  0.50796032  0.97639844  0.34332083  1  0  0.097799  0  0.953373  0  0  0.108585  0  1.017573  0  0  0.11145  0  1.014919  0  0  0.107686  0.106358  0  1.019858  0
H  H27  1  0.00796176  0.02360003  0.65667830  1  0  0.097797  0  0.953386  0  0  0.108619  0  1.017532  0  0  0.111481  0  1.014883  0  0  0.107692  0.106392  0  1.019817  0
H  H28  1  0.50608568  0.75893574  0.78828934  1  0  0.09376  0  0.998466  0  0  0.09463  0  1.077325  0  0  0.098699  0  1.07503  0  0  0.098574  0.093458  0  1.076913  0
H  H29  1  0.00608633  0.24106060  0.21171023  1  0  0.093796  0  0.998489  0  0  0.094652  0  1.077348  0  0  0.098721  0  1.075053  0  0  0.098578  0.093479  0  1.076936  0
H  H30  1  0.50609598  0.74106048  0.28828789  1  0  0.093814  0  0.998394  0  0  0.094652  0  1.077294  0  0  0.098723  0  1.074997  0  0  0.098567  0.093483  0  1.07688  0
H  H31  1  0.00608860  0.25893798  0.71171081  1  0  0.093833  0  0.998422  0  0  0.094687  0  1.077284  0  0  0.098755  0  1.07499  0  0  0.098603  0.093516  0  1.07687  0
H  H32  1  0.49798947  0.75564718  0.68116352  1  0  0.068223  0  0.925437  0  0  0.075949  0  0.991948  0  0  0.078646  0  0.989142  0  0  0.109357  0.073241  0  0.994992  0
H  H33  1  0.99798945  0.24435219  0.31883658  1  0  0.068236  0  0.925402  0  0  0.075938  0  0.991931  0  0  0.078649  0  0.98911  0  0  0.109346  0.073228  0  0.994975  0
H  H34  1  0.49799037  0.74435574  0.18116120  1  0  0.068203  0  0.925396  0  0  0.075937  0  0.991905  0  0  0.078631  0  0.989103  0  0  0.109355  0.073222  0  0.99495  0
H  H35  1  0.99799169  0.25564682  0.81883716  1  0  0.068213  0  0.925422  0  0  0.07594  0  0.991936  0  0  0.078638  0  0.989129  0  0  0.10935  0.07323  0  0.994973  0
H  H36  1  0.49971553  0.84424172  0.05951704  1  0  0.115698  0  0.948749  0  0  0.119167  0  1.020055  0  0  0.122983  0  1.017833  0  0  0.108968  0.116604  0  1.021482  0
H  H37  1  0.99971628  0.15576084  0.94048436  1  0  0.11574  0  0.948674  0  0  0.119215  0  1.019973  0  0  0.12303  0  1.017753  0  0  0.108981  0.116653  0  1.021396  0
H  H38  1  0.49971690  0.65575931  0.55951794  1  0  0.115741  0  0.948776  0  0  0.119231  0  1.020043  0  0  0.123046  0  1.017824  0  0  0.10899  0.116667  0  1.021476  0
H  H39  1  0.99971963  0.34424219  0.44048216  1  0  0.115738  0  0.9488  0  0  0.119237  0  1.020052  0  0  0.123054  0  1.017829  0  0  0.108983  0.116678  0  1.021475  0
H  H40  1  0.49577879  0.68380664  0.97126292  1  0  0.09309  0  0.946112  0  0  0.100341  0  1.012522  0  0  0.102781  0  1.010257  0  0  0.110525  0.097771  0  1.015476  0
H  H41  1  0.99578024  0.31619484  0.02873892  1  0  0.093124  0  0.946032  0  0  0.10034  0  1.012476  0  0  0.10278  0  1.010211  0  0  0.110533  0.097774  0  1.015421  0
H  H42  1  0.49578032  0.81619397  0.47126330  1  0  0.093057  0  0.946123  0  0  0.100337  0  1.012512  0  0  0.102778  0  1.010246  0  0  0.110522  0.097764  0  1.015466  0
H  H43  1  0.99578029  0.18380646  0.52873593  1  0  0.093054  0  0.94611  0  0  0.10033  0  1.012498  0  0  0.102772  0  1.010231  0  0  0.110522  0.097763  0  1.015446  0
C  C44  1  0.49938213  0.26056788  0.79177208  1  0  0.343179  0  3.730575  0  0  0.301738  0  3.999562  0  0  0.31695  0  4.016104  0  0  0.237812  0.291807  0  3.987765  0
C  C45  1  0.99938458  0.73943042  0.20822715  1  0  0.343151  0  3.730646  0  0  0.301708  0  3.999645  0  0  0.316919  0  4.016192  0  0  0.237831  0.291785  0  3.987848  0
C  C46  1  0.49937827  0.23943001  0.29177324  1  0  0.342868  0  3.731001  0  0  0.30147  0  3.999892  0  0  0.316654  0  4.016469  0  0  0.237705  0.291576  0  3.988053  0
C  C47  1  0.99938215  0.76056936  0.70822686  1  0  0.343123  0  3.73077  0  0  0.301701  0  3.999721  0  0  0.316891  0  4.016294  0  0  0.237795  0.291772  0  3.987925  0
C  C48  1  0.49923962  0.40030329  0.76368860  1  0  -0.060176  0  3.764446  0  0  -0.035949  0  4.002445  0  0  -0.04329  0  4.025759  0  0  -0.004003  -0.03161  0  3.986482  0
C  C49  1  0.99923934  0.59969395  0.23631020  1  0  -0.060063  0  3.764365  0  0  -0.035849  0  4.002398  0  0  -0.043182  0  4.02571  0  0  -0.00396  -0.031516  0  3.986445  0
C  C50  1  0.49923297  0.09969762  0.26368699  1  0  -0.060076  0  3.764481  0  0  -0.035749  0  4.002372  0  0  -0.043083  0  4.02569  0  0  -0.003907  -0.031425  0  3.986409  0
C  C51  1  0.99923971  0.90030495  0.73631181  1  0  -0.060153  0  3.764488  0  0  -0.035885  0  4.002436  0  0  -0.043207  0  4.02575  0  0  -0.003946  -0.031539  0  3.986478  0
C  C52  1  0.49767360  0.00853714  0.90649842  1  0  0.180614  0  3.778112  0  0  0.177789  0  4.017705  0  0  0.185599  0  4.036478  0  0  0.130518  0.172489  0  4.005026  0
C  C53  1  0.99767795  0.99146329  0.09350211  1  0  0.180631  0  3.778145  0  0  0.177789  0  4.017748  0  0  0.185599  0  4.036517  0  0  0.13054  0.172498  0  4.005059  0
C  C54  1  0.49767665  0.49146259  0.40649900  1  0  0.180614  0  3.778139  0  0  0.177757  0  4.017743  0  0  0.185561  0  4.036519  0  0  0.130561  0.172488  0  4.005011  0
C  C55  1  0.99767490  0.50853784  0.59350154  1  0  0.18062  0  3.778113  0  0  0.177754  0  4.01769  0  0  0.185565  0  4.036457  0  0  0.130541  0.172467  0  4.004997  0
C  C56  1  0.49448007  0.41149588  0.70245408  1  0  0.092604  0  3.679169  0  0  0.055211  0  3.940578  0  0  0.061845  0  3.955342  0  0  0.044257  0.052045  0  3.930098  0
C  C57  1  0.99447514  0.58850347  0.29754428  1  0  0.092639  0  3.679176  0  0  0.055217  0  3.940615  0  0  0.061847  0  3.955378  0  0  0.044289  0.052052  0  3.930135  0
C  C58  1  0.49447018  0.08850565  0.20245594  1  0  0.092736  0  3.679121  0  0  0.055207  0  3.940582  0  0  0.061843  0  3.955347  0  0  0.044272  0.052037  0  3.930112  0
C  C59  1  0.99447717  0.91149796  0.79754460  1  0  0.092689  0  3.679207  0  0  0.055232  0  3.940646  0  0  0.061859  0  3.955412  0  0  0.044293  0.052057  0  3.930171  0
C  C60  1  0.49784053  0.08441440  0.85113441  1  0  0.248538  0  3.830727  0  0  0.222953  0  4.108855  0  0  0.231937  0  4.125426  0  0  0.215061  0.217124  0  4.097433  0
C  C61  1  0.99784908  0.91558497  0.14886612  1  0  0.24842  0  3.830697  0  0  0.222904  0  4.108755  0  0  0.231883  0  4.125324  0  0  0.215044  0.217073  0  4.097331  0
C  C62  1  0.49784292  0.41558496  0.35113534  1  0  0.24856  0  3.83068  0  0  0.223019  0  4.108766  0  0  0.232002  0  4.125334  0  0  0.215056  0.217189  0  4.097328  0
C  C63  1  0.99784511  0.58441547  0.64886476  1  0  0.248534  0  3.830639  0  0  0.223084  0  4.108618  0  0  0.232067  0  4.125183  0  0  0.215092  0.217256  0  4.097191  0
C  C64  1  0.50021665  0.03382233  0.00741705  1  0  0.142028  0  3.691467  0  0  0.109509  0  3.942095  0  0  0.116636  0  3.960792  0  0  0.050336  0.104929  0  3.93002  0
C  C65  1  0.00021772  0.96617931  0.99258295  1  0  0.142067  0  3.691615  0  0  0.109566  0  3.942222  0  0  0.116698  0  3.960919  0  0  0.050366  0.104975  0  3.930159  0
C  C66  1  0.50021916  0.46617897  0.50741786  1  0  0.142149  0  3.691483  0  0  0.109598  0  3.942129  0  0  0.116728  0  3.960821  0  0  0.050357  0.104993  0  3.930064  0
C  C67  1  0.00021521  0.53382373  0.49258301  1  0  0.142057  0  3.691563  0  0  0.109525  0  3.942205  0  0  0.116653  0  3.960901  0  0  0.050336  0.104935  0  3.930128  0
C  C68  1  0.49582823  0.86019020  0.91135955  1  0  -0.126346  0  3.663668  0  0  -0.146571  0  3.905275  0  0  -0.153813  0  3.92556  0  0  -0.070347  -0.141751  0  3.89156  0
C  C69  1  0.99582829  0.13980809  0.08864142  1  0  -0.126431  0  3.663805  0  0  -0.146678  0  3.905429  0  0  -0.153918  0  3.925713  0  0  -0.070384  -0.14186  0  3.891711  0
C  C70  1  0.49582979  0.63981000  0.41135973  1  0  -0.126381  0  3.663676  0  0  -0.146615  0  3.905311  0  0  -0.153851  0  3.925594  0  0  -0.070362  -0.1418  0  3.891578  0
C  C71  1  0.99582673  0.36018935  0.58863906  1  0  -0.126351  0  3.663768  0  0  -0.146569  0  3.90539  0  0  -0.153809  0  3.925673  0  0  -0.07033  -0.141759  0  3.891675  0
C  C72  1  0.50360979  0.52730159  0.79594951  1  0  -0.013768  0  3.66765  0  0  -0.043235  0  3.9145  0  0  -0.039122  0  3.931469  0  0  -0.063406  -0.04628  0  3.904026  0
C  C73  1  0.00361244  0.47269580  0.20404919  1  0  -0.013915  0  3.667593  0  0  -0.04342  0  3.914477  0  0  -0.039311  0  3.931448  0  0  -0.063478  -0.046469  0  3.904007  0
C  C74  1  0.50360954  0.97269574  0.29595137  1  0  -0.013803  0  3.667512  0  0  -0.04335  0  3.914378  0  0  -0.039234  0  3.931342  0  0  -0.063468  -0.046395  0  3.90391  0
C  C75  1  0.00361113  0.02730378  0.70404951  1  0  -0.013869  0  3.667647  0  0  -0.043408  0  3.914519  0  0  -0.039301  0  3.93149  0  0  -0.063477  -0.046459  0  3.904049  0
C  C76  1  0.50286187  0.65633734  0.76613016  1  0  -0.128058  0  3.73687  0  0  -0.141102  0  3.997901  0  0  -0.148113  0  4.01814  0  0  -0.092444  -0.138122  0  3.984283  0
C  C77  1  0.00286033  0.34366004  0.23386984  1  0  -0.128043  0  3.736876  0  0  -0.141065  0  3.997901  0  0  -0.148079  0  4.01815  0  0  -0.092411  -0.138086  0  3.984284  0
C  C78  1  0.50286521  0.84366298  0.26612709  1  0  -0.128056  0  3.736865  0  0  -0.141068  0  3.99792  0  0  -0.14808  0  4.01816  0  0  -0.092335  -0.138095  0  3.984307  0
C  C79  1  0.00286328  0.15633867  0.73387074  1  0  -0.128054  0  3.736842  0  0  -0.14106  0  3.997876  0  0  -0.148073  0  4.018118  0  0  -0.092417  -0.138085  0  3.984261  0
C  C80  1  0.49835857  0.65538486  0.70537792  1  0  0.133142  0  3.715593  0  0  0.101093  0  3.986341  0  0  0.108795  0  4.001712  0  0  0.03975  0.097299  0  3.976114  0
C  C81  1  0.99835621  0.34461450  0.29462131  1  0  0.133098  0  3.715734  0  0  0.101079  0  3.986453  0  0  0.108774  0  4.001824  0  0  0.039759  0.097287  0  3.976224  0
C  C82  1  0.49835720  0.84461822  0.20537963  1  0  0.133196  0  3.715697  0  0  0.10112  0  3.986425  0  0  0.108822  0  4.001797  0  0  0.039692  0.097335  0  3.976185  0
C  C83  1  0.99835916  0.15538541  0.79462134  1  0  0.133141  0  3.715635  0  0  0.101072  0  3.986391  0  0  0.108778  0  4.001762  0  0  0.039744  0.097283  0  3.976156  0
C  C84  1  0.49924867  0.88716263  0.01551528  1  0  -0.110591  0  3.698733  0  0  -0.127483  0  3.958769  0  0  -0.134157  0  3.979128  0  0  -0.080325  -0.123264  0  3.945081  0
C  C85  1  0.99924916  0.11283993  0.98448656  1  0  -0.110732  0  3.698791  0  0  -0.127639  0  3.95883  0  0  -0.134316  0  3.979191  0  0  -0.080392  -0.123423  0  3.945147  0
C  C86  1  0.49924967  0.61283917  0.51551526  1  0  -0.110777  0  3.698927  0  0  -0.127673  0  3.958969  0  0  -0.134352  0  3.979331  0  0  -0.080367  -0.123459  0  3.9453  0
C  C87  1  0.99924973  0.38716020  0.48448397  1  0  -0.110664  0  3.698733  0  0  -0.127569  0  3.958768  0  0  -0.134244  0  3.979124  0  0  -0.080333  -0.123355  0  3.945083  0
C  C88  1  0.49700887  0.79914971  0.96651507  1  0  0.021195  0  3.696132  0  0  0.001571  0  3.951085  0  0  0.00628  0  3.968266  0  0  -0.055572  -0.000835  0  3.939486  0
C  C89  1  0.99700932  0.20085071  0.03348633  1  0  0.021294  0  3.696046  0  0  0.001717  0  3.950984  0  0  0.006427  0  3.968165  0  0  -0.055519  -0.000693  0  3.939378  0
C  C90  1  0.49700624  0.70085087  0.46651663  1  0  0.021297  0  3.69618  0  0  0.001647  0  3.951128  0  0  0.006354  0  3.96831  0  0  -0.055584  -0.000762  0  3.93953  0
C  C91  1  0.99700723  0.29915169  0.53348478  1  0  0.021243  0  3.696278  0  0  0.001579  0  3.951272  0  0  0.006288  0  3.968451  0  0  -0.055602  -0.000833  0  3.939686  0
N  N92  1  0.49894600  0.13522062  0.76232344  1  0  -0.22682  0  3.423032  0  0  -0.156689  0  3.652025  0  0  -0.173289  0  3.670617  0  0  -0.24886  -0.146023  0  3.63951  0
N  N93  1  0.99894804  0.86477662  0.23767622  1  0  -0.22695  0  3.423239  0  0  -0.156786  0  3.652232  0  0  -0.173398  0  3.67083  0  0  -0.248914  -0.146117  0  3.639723  0
N  N94  1  0.49894324  0.36477921  0.26232344  1  0  -0.22671  0  3.423054  0  0  -0.156596  0  3.652025  0  0  -0.173188  0  3.670625  0  0  -0.248792  -0.145943  0  3.639513  0
N  N95  1  0.99894609  0.63522229  0.73767579  1  0  -0.226868  0  3.423122  0  0  -0.156736  0  3.652119  0  0  -0.173336  0  3.670723  0  0  -0.248888  -0.146072  0  3.639606  0
N  N96  1  0.49892294  0.22974736  0.84904781  1  0  -0.487406  0  3.113544  0  0  -0.427229  0  3.394243  0  0  -0.448222  0  3.405046  0  0  -0.3294  -0.412466  0  3.386385  0
N  N97  1  0.99892866  0.77025307  0.15095185  1  0  -0.487329  0  3.113595  0  0  -0.427179  0  3.394284  0  0  -0.448168  0  3.405086  0  0  -0.329392  -0.412417  0  3.386424  0
N  N98  1  0.49892249  0.27025199  0.34904858  1  0  -0.487348  0  3.113615  0  0  -0.427206  0  3.394298  0  0  -0.448187  0  3.405106  0  0  -0.329405  -0.412458  0  3.386432  0
N  N99  1  0.99892596  0.72974845  0.65095152  1  0  -0.487421  0  3.113639  0  0  -0.427309  0  3.394325  0  0  -0.448294  0  3.405133  0  0  -0.329438  -0.41255  0  3.38647  0
N  N100  1  0.49773799  0.02315092  0.79873407  1  0  -0.224079  0  2.881992  0  0  -0.215663  0  3.152839  0  0  -0.222816  0  3.169761  0  0  -0.204858  -0.211016  0  3.140004  0
N  N101  1  0.99774564  0.97684738  0.20126690  1  0  -0.22395  0  2.881962  0  0  -0.215571  0  3.152794  0  0  -0.222715  0  3.169711  0  0  -0.204823  -0.210925  0  3.139962  0
N  N102  1  0.49773935  0.47684808  0.29873463  1  0  -0.224045  0  2.882009  0  0  -0.215641  0  3.152849  0  0  -0.222794  0  3.16977  0  0  -0.204869  -0.210994  0  3.140004  0
N  N103  1  0.99774271  0.52315235  0.70126547  1  0  -0.223995  0  2.881938  0  0  -0.215632  0  3.152762  0  0  -0.22278  0  3.16968  0  0  -0.204838  -0.210985  0  3.139923  0
N  N104  1  0.49972595  0.09303411  0.95414215  1  0  -0.380988  0  3.291915  0  0  -0.303186  0  3.553671  0  0  -0.322995  0  3.568457  0  0  -0.323225  -0.289724  0  3.544058  0
N  N105  1  0.99972788  0.90696633  0.04585882  1  0  -0.380917  0  3.291804  0  0  -0.303142  0  3.553597  0  0  -0.322951  0  3.568381  0  0  -0.323227  -0.289689  0  3.543996  0
N  N106  1  0.49972827  0.40696701  0.45414263  1  0  -0.381079  0  3.291961  0  0  -0.30327  0  3.553766  0  0  -0.323075  0  3.568546  0  0  -0.323294  -0.289819  0  3.544151  0
N  N107  1  0.99972556  0.59303342  0.54585660  1  0  -0.381063  0  3.291976  0  0  -0.303272  0  3.553775  0  0  -0.323079  0  3.568558  0  0  -0.323309  -0.289812  0  3.544158  0
N  N108  1  0.49440353  0.53544332  0.67359842  1  0  -0.313458  0  3.068865  0  0  -0.277884  0  3.349628  0  0  -0.289135  0  3.36453  0  0  -0.326316  -0.270731  0  3.339223  0
N  N109  1  0.99439759  0.46455603  0.32640081  1  0  -0.313466  0  3.068867  0  0  -0.277893  0  3.349636  0  0  -0.289145  0  3.364543  0  0  -0.326372  -0.270742  0  3.339226  0
N  N110  1  0.49439377  0.96456060  0.17359766  1  0  -0.313554  0  3.068682  0  0  -0.277911  0  3.349449  0  0  -0.28916  0  3.364346  0  0  -0.32635  -0.270755  0  3.339038  0
N  N111  1  0.99440106  0.03544301  0.82640157  1  0  -0.313473  0  3.068787  0  0  -0.277878  0  3.349572  0  0  -0.28913  0  3.364474  0  0  -0.32636  -0.270724  0  3.339162  0
O  O112  1  0.23292065  0.41362540  0.92714126  1  0  -0.919159  0  1.692233  0  0  -0.882334  0  2.028886  0  0  -0.919389  0  2.006334  0  0  -0.583981  -0.855787  0  2.044863  0
O  O113  1  0.73290884  0.58638036  0.07285748  1  0  -0.919203  0  1.692207  0  0  -0.882378  0  2.028828  0  0  -0.919446  0  2.006312  0  0  -0.583989  -0.855828  0  2.044796  0
O  O114  1  0.23291545  0.08637554  0.42714182  1  0  -0.919137  0  1.692254  0  0  -0.882287  0  2.028853  0  0  -0.91938  0  2.006381  0  0  -0.583971  -0.855739  0  2.044819  0
O  O115  1  0.73291090  0.91362276  0.57285910  1  0  -0.919163  0  1.692166  0  0  -0.882343  0  2.028812  0  0  -0.919406  0  2.006278  0  0  -0.584022  -0.855789  0  2.044773  0
O  O116  1  0.77094914  0.41219169  0.92692934  1  0  -0.920464  0  1.691713  0  0  -0.883337  0  2.02855  0  0  -0.920401  0  2.005855  0  0  -0.583851  -0.856835  0  2.044697  0
O  O117  1  0.27093675  0.58779612  0.07307203  1  0  -0.920422  0  1.691704  0  0  -0.883328  0  2.028589  0  0  -0.920385  0  2.005893  0  0  -0.583835  -0.856829  0  2.044744  0
O  O118  1  0.77094553  0.08780182  0.42692946  1  0  -0.920478  0  1.691723  0  0  -0.883351  0  2.028553  0  0  -0.92041  0  2.005856  0  0  -0.583858  -0.856849  0  2.044695  0
O  O119  1  0.27093721  0.91220303  0.57307147  1  0  -0.920443  0  1.691743  0  0  -0.883348  0  2.028641  0  0  -0.920408  0  2.005946  0  0  -0.583802  -0.856847  0  2.044795  0
O  O120  1  0.00074936  0.65417367  0.97296694  1  0  -0.87962  0  1.682787  0  0  -0.84391  0  1.999679  0  0  -0.88025  0  1.982294  0  0  -0.568477  -0.818186  0  2.012838  0
O  O121  1  0.50074950  0.34582370  0.02703394  1  0  -0.879637  0  1.682807  0  0  -0.843928  0  1.999689  0  0  -0.880266  0  1.982309  0  0  -0.568471  -0.818197  0  2.012835  0
O  O122  1  0.00075272  0.84582497  0.47296691  1  0  -0.879606  0  1.682773  0  0  -0.843891  0  1.999659  0  0  -0.880227  0  1.982271  0  0  -0.568476  -0.818166  0  2.012816  0
O  O123  1  0.50075400  0.15417667  0.52703309  1  0  -0.879623  0  1.682943  0  0  -0.843905  0  1.999836  0  0  -0.880245  0  1.982456  0  0  -0.568439  -0.818175  0  2.012985  0
O  O124  1  0.00122697  0.59964823  0.85049829  1  0  -0.83865  0  1.575997  0  0  -0.821795  0  1.843839  0  0  -0.853471  0  1.830583  0  0  -0.571084  -0.79929  0  1.85416  0
O  O125  1  0.50123103  0.40034808  0.14950215  1  0  -0.838722  0  1.575942  0  0  -0.821884  0  1.84379  0  0  -0.853553  0  1.830536  0  0  -0.571132  -0.799366  0  1.854102  0
O  O126  1  0.00122451  0.90034852  0.35049789  1  0  -0.838751  0  1.575996  0  0  -0.821909  0  1.843854  0  0  -0.853582  0  1.830594  0  0  -0.571141  -0.799393  0  1.854168  0
O  O127  1  0.50122562  0.09965312  0.64950124  1  0  -0.838723  0  1.576048  0  0  -0.821874  0  1.843903  0  0  -0.853547  0  1.830645  0  0  -0.571137  -0.799365  0  1.854224  0
