# generated using pymatgen
data_ZnH16C27N2O7
_symmetry_space_group_name_H-M   'P 1'
_cell_length_a   9.51695182
_cell_length_b   11.05571999
_cell_length_c   28.09149922
_cell_angle_alpha   91.69558242
_cell_angle_beta   91.65514681
_cell_angle_gamma   87.79379186
_symmetry_Int_Tables_number   1
_chemical_formula_structural   ZnH16C27N2O7
_chemical_formula_sum   'Zn2 H32 C54 N4 O14'
_cell_volume   2951.07310078
_cell_formula_units_Z   2
loop_
 _symmetry_equiv_pos_site_id
 _symmetry_equiv_pos_as_xyz
  1  'x, y, z'
loop_
 _atom_site_type_symbol
 _atom_site_label
 _atom_site_symmetry_multiplicity
 _atom_site_fract_x
 _atom_site_fract_y
 _atom_site_fract_z
 _atom_site_occupancy
 _atom_site_pbe_bader_charge
 _atom_site_pbe_bader_spin_density
 _atom_site_pbe_cm5_charge
 _atom_site_pbe_ddec_charge
 _atom_site_pbe_ddec_spin_density
 _atom_site_pbe_ddec_sum_bond_order
 _atom_site_pbe_magmom
Zn  Zn0  1  0.35863067  0.50468209  0.49725472  1  1.268237  0  0.661324  0.795642  0  2.477519  0
Zn  Zn1  1  0.64058747  0.49479972  0.50303331  1  1.256898  0  0.661141  0.79571  0  2.474797  0
H  H2  1  0.71216390  0.53779576  0.65612818  1  0.093305  0  0.103583  0.113329  0  1.042756  0
H  H3  1  0.28676780  0.46880666  0.34432209  1  0.081795  0  0.103797  0.113489  0  1.042672  0
H  H4  1  0.47736905  0.80259846  0.88066772  1  0.130768  0  0.115793  0.122249  0  0.980266  0
H  H5  1  0.49167036  0.19715137  0.11956498  1  0.124257  0  0.115688  0.121814  0  0.980863  0
H  H6  1  0.73049321  0.52179423  0.35250813  1  0.077298  0  0.100754  0.105341  0  1.010457  0
H  H7  1  0.27125653  0.47254654  0.64755887  1  0.066936  0  0.101189  0.106009  0  1.009755  0
H  H8  1  0.73542430  0.52580761  0.26292141  1  0.055453  0  0.106091  0.110262  0  1.001493  0
H  H9  1  0.26615336  0.46774743  0.73715247  1  0.065651  0  0.106668  0.11096  0  0.99784  0
H  H10  1  0.52442584  0.80253226  0.12598464  1  0.099417  0  0.116666  0.122144  0  0.980514  0
H  H11  1  0.50461187  0.19500928  0.87416391  1  0.128093  0  0.116628  0.122813  0  0.979378  0
H  H12  1  0.51429493  0.80600266  0.03784293  1  0.062859  0  0.104613  0.102454  0  1.009867  0
H  H13  1  0.50795614  0.19170452  0.96231369  1  0.052234  0  0.104084  0.101538  0  1.010131  0
H  H14  1  0.48694173  0.80655171  0.96889460  1  0.068027  0  0.104071  0.101287  0  1.011542  0
H  H15  1  0.48667975  0.19286416  0.03130962  1  0.066064  0  0.104148  0.102059  0  1.011204  0
H  H16  1  0.72176000  0.87792208  0.51072875  1  0.097161  0  0.100819  0.102074  0  1.009535  0
H  H17  1  0.27546341  0.12157623  0.48959281  1  0.084234  0  0.100749  0.10275  0  1.009133  0
H  H18  1  0.72388128  0.10540045  0.51075472  1  0.054497  0  0.102308  0.105803  0  1.002685  0
H  H19  1  0.27332786  0.89405882  0.48958080  1  0.077262  0  0.1026  0.105699  0  1.00411  0
H  H20  1  0.86488980  0.36044274  0.44948026  1  0.186954  0  0.142591  0.124744  0  0.956439  0
H  H21  1  0.13438012  0.63899888  0.55077323  1  0.161967  0  0.142602  0.124968  0  0.956345  0
H  H22  1  0.86496194  0.63080030  0.55496720  1  0.142319  0  0.141805  0.123139  0  0.956899  0
H  H23  1  0.13440704  0.36837486  0.44543938  1  0.142228  0  0.141826  0.123111  0  0.958012  0
H  H24  1  0.83504181  0.66643536  0.72213636  1  0.022057  0  0.104431  0.06448  0  0.953129  0
H  H25  1  0.88659293  0.51479808  0.70459253  1  0.03584  0  0.101097  0.059271  0  0.970286  0
H  H26  1  0.99383398  0.47693189  0.78436371  1  0.009853  0  0.093203  0.125703  0  0.994217  0
H  H27  1  0.06318690  0.61116696  0.76201714  1  0.059044  0  0.096033  0.129789  0  0.999828  0
H  H28  1  0.93210256  0.62189749  0.80606212  1  0.048445  0  0.094917  0.129995  0  0.990302  0
H  H29  1  0.11042158  0.50323934  0.29454530  1  0.047939  0  0.101211  0.059465  0  0.966378  0
H  H30  1  0.15882140  0.34811838  0.28163532  1  0.064831  0  0.104044  0.063876  0  0.955352  0
H  H31  1  0.06721121  0.37699367  0.19619627  1  0.066329  0  0.095328  0.130532  0  0.989987  0
H  H32  1  0.93386684  0.40080738  0.23898089  1  0.038804  0  0.094747  0.127312  0  1.005997  0
H  H33  1  0.00951543  0.52729311  0.21270085  1  0.026008  0  0.093366  0.125843  0  0.993979  0
C  C34  1  0.49647880  0.73773769  0.50033788  1  1.557128  0  0.215749  0.593832  0  4.162047  0
C  C35  1  0.50084873  0.26176714  0.49998808  1  1.571131  0  0.216312  0.594265  0  4.16084  0
C  C36  1  0.49801728  0.50716381  0.59418922  1  1.590486  0  0.215732  0.596411  0  4.151395  0
C  C37  1  0.50258927  0.49294347  0.40611441  1  1.578615  0  0.217306  0.599635  0  4.149125  0
C  C38  1  0.48053840  0.61205581  0.82147974  1  1.298659  0  0.240728  0.432732  0  4.109249  0
C  C39  1  0.50736566  0.38705674  0.17871763  1  1.315642  0  0.24093  0.437803  0  4.108786  0
C  C40  1  0.49251425  0.38524560  0.81895406  1  1.287714  0  0.241947  0.433869  0  4.100636  0
C  C41  1  0.51974764  0.61301980  0.18116561  1  1.28077  0  0.241696  0.440678  0  4.098509  0
C  C42  1  0.36333161  0.48294466  0.71897431  1  0.00841  0  -0.084504  -0.133956  0  4.012929  0
C  C43  1  0.63770193  0.51324779  0.28116497  1  0.053135  0  -0.084937  -0.134507  0  4.010746  0
C  C44  1  0.36582825  0.48603975  0.66947213  1  -0.008078  0  -0.095504  -0.110459  0  4.002497  0
C  C45  1  0.63528437  0.51066580  0.33068218  1  -0.027295  0  -0.09498  -0.108645  0  4.001571  0
C  C46  1  0.61613070  0.52288634  0.67478291  1  -0.054849  0  -0.101349  -0.22607  0  3.978294  0
C  C47  1  0.38343138  0.48089378  0.32560875  1  0.058686  0  -0.10134  -0.226546  0  3.978988  0
C  C48  1  0.61388352  0.51951218  0.72441205  1  0.502891  0  0.092816  0.196008  0  4.052616  0
C  C49  1  0.38568107  0.48373645  0.27597018  1  0.463399  0  0.091642  0.195481  0  4.053871  0
C  C50  1  0.48558696  0.49969037  0.74615292  1  0.40092  0  0.083363  0.094353  0  3.999993  0
C  C51  1  0.51470623  0.49953491  0.25405959  1  0.30466  0  0.08326  0.099278  0  4.001345  0
C  C52  1  0.49132303  0.49887000  0.89819038  1  0.091823  0  0.004318  0.036671  0  3.997568  0
C  C53  1  0.50747666  0.49963869  0.10196568  1  0.113686  0  0.004646  0.035775  0  3.999517  0
C  C54  1  0.48511753  0.60978225  0.87411232  1  -0.016538  0  -0.0096  -0.067478  0  3.99611  0
C  C55  1  0.50360669  0.38921211  0.12608327  1  -0.025016  0  -0.009603  -0.06612  0  3.995129  0
C  C56  1  0.48297865  0.71856376  0.90009823  1  -0.047777  0  -0.070221  -0.071407  0  3.978694  0
C  C57  1  0.49560973  0.28077231  0.10010661  1  -0.059935  0  -0.069243  -0.069725  0  3.97912  0
C  C58  1  0.49436225  0.38782483  0.87170263  1  0.006364  0  -0.009671  -0.067362  0  3.994168  0
C  C59  1  0.51537969  0.61030711  0.12843356  1  -0.017691  0  -0.010067  -0.068297  0  3.995117  0
C  C60  1  0.49257849  0.50585040  0.64747494  1  -0.027825  0  -0.015389  -0.000977  0  3.980697  0
C  C61  1  0.50785228  0.49449110  0.35281788  1  -0.028044  0  -0.015674  -0.002973  0  3.98237  0
C  C62  1  0.50368348  0.61214976  0.02731867  1  -0.025857  0  0.004452  0.039175  0  3.97998  0
C  C63  1  0.49848997  0.38619111  0.97282567  1  -0.020052  0  0.003886  0.039674  0  3.977496  0
C  C64  1  0.49798006  0.38654461  0.02492569  1  0.074452  0  0.003799  0.03882  0  3.976914  0
C  C65  1  0.49547740  0.61210012  0.97523060  1  0.029643  0  0.004054  0.040338  0  3.976611  0
C  C66  1  0.50307519  0.49944264  0.05098615  1  -0.107838  0  0.004276  0.002409  0  3.91511  0
C  C67  1  0.49499860  0.49904589  0.94916845  1  -0.058994  0  0.004183  0.00049  0  3.914729  0
C  C68  1  0.51200219  0.71915602  0.05504144  1  -0.000885  0  -0.083922  -0.124815  0  3.977584  0
C  C69  1  0.50267281  0.27878220  0.94510632  1  -0.013144  0  -0.082938  -0.12264  0  3.976167  0
C  C70  1  0.51807413  0.71864555  0.10476616  1  0.036021  0  -0.068111  -0.067185  0  3.974995  0
C  C71  1  0.50095673  0.27921311  0.89537426  1  -0.008489  0  -0.068489  -0.069605  0  3.974416  0
C  C72  1  0.48852402  0.71933906  0.94982624  1  -0.063412  0  -0.083334  -0.123139  0  3.979114  0
C  C73  1  0.49303500  0.27978967  0.05035923  1  -0.060891  0  -0.083901  -0.125134  0  3.981443  0
C  C74  1  0.62467134  0.93231742  0.50622427  1  -0.097899  0  -0.085427  -0.094546  0  3.985683  0
C  C75  1  0.37250212  0.06716817  0.49416928  1  -0.102608  0  -0.085285  -0.09502  0  3.983624  0
C  C76  1  0.62592950  0.05803685  0.50607297  1  0.048958  0  -0.084479  -0.094884  0  3.981396  0
C  C77  1  0.37124916  0.94143572  0.49431341  1  0.013073  0  -0.084763  -0.095036  0  3.982596  0
C  C78  1  0.49983017  0.12634492  0.50002899  1  -0.006374  0  -0.014315  -0.0245  0  3.957374  0
C  C79  1  0.49736135  0.87315064  0.50037324  1  -0.021286  0  -0.014196  -0.023328  0  3.95774  0
C  C80  1  0.92688943  0.42175459  0.47191071  1  0.446816  0  0.081395  0.061818  0  3.864113  0
C  C81  1  0.07236229  0.57761503  0.52839250  1  0.479542  0  0.081403  0.061345  0  3.862223  0
C  C82  1  0.92686492  0.57279306  0.53078466  1  0.552062  0  0.080887  0.063453  0  3.864297  0
C  C83  1  0.07239542  0.42648156  0.46954688  1  0.568748  0  0.081095  0.063368  0  3.865258  0
C  C84  1  0.85517137  0.57391090  0.73505356  1  0.449765  0  -0.061319  0.091337  0  3.914448  0
C  C85  1  0.96758044  0.57052274  0.77429362  1  -0.055681  0  -0.241314  -0.39936  0  3.979215  0
C  C86  1  0.14183114  0.43801012  0.26597064  1  0.397752  0  -0.060406  0.092856  0  3.914547  0
C  C87  1  0.03173249  0.43590916  0.22598285  1  -0.068853  0  -0.240907  -0.397467  0  3.979051  0
N  N88  1  0.48296629  0.49862895  0.79727487  1  -1.168333  0  -0.231389  -0.193969  0  3.600586  0
N  N89  1  0.51698524  0.50000406  0.20293528  1  -1.176305  0  -0.230989  -0.211039  0  3.619865  0
N  N90  1  0.14297424  0.50442575  0.49776841  1  -1.215978  0  -0.29365  -0.135866  0  3.506411  0
N  N91  1  0.85626451  0.49492072  0.50253888  1  -1.212067  0  -0.293228  -0.136198  0  3.508146  0
O  O92  1  0.37711631  0.68886305  0.49788440  1  -1.156521  0  -0.319732  -0.548272  0  2.318071  0
O  O93  1  0.62020677  0.31069963  0.50279865  1  -1.166381  0  -0.319982  -0.548268  0  2.316032  0
O  O94  1  0.38203918  0.31880939  0.49727315  1  -1.167292  0  -0.319386  -0.552962  0  2.334213  0
O  O95  1  0.61537907  0.68070919  0.50261817  1  -1.16822  0  -0.319181  -0.552551  0  2.33289  0
O  O96  1  0.38101006  0.50901989  0.57089330  1  -1.167879  0  -0.319258  -0.555327  0  2.324634  0
O  O97  1  0.61969188  0.48981827  0.42936469  1  -1.159565  0  -0.32037  -0.557223  0  2.323737  0
O  O98  1  0.38138115  0.49553951  0.42447191  1  -1.166781  0  -0.322239  -0.547361  0  2.306104  0
O  O99  1  0.61927384  0.50546829  0.57588549  1  -1.165521  0  -0.321796  -0.546704  0  2.304946  0
O  O100  1  0.47416633  0.70653009  0.79933532  1  -1.09374  0  -0.282937  -0.441529  0  2.063514  0
O  O101  1  0.50356073  0.29299017  0.20087541  1  -1.102147  0  -0.282337  -0.440558  0  2.062198  0
O  O102  1  0.52550950  0.70749811  0.20525310  1  -1.101274  0  -0.281838  -0.438093  0  2.053945  0
O  O103  1  0.49843689  0.29070234  0.79479185  1  -1.096819  0  -0.282157  -0.437226  0  2.054927  0
O  O104  1  0.72764539  0.53271346  0.75443438  1  -1.067782  0  -0.182322  -0.201762  0  2.541693  0
O  O105  1  0.27126286  0.47322886  0.24611136  1  -1.066099  0  -0.181814  -0.201441  0  2.546973  0
