# generated using pymatgen
data_CdH16C20S(NO4)2
_symmetry_space_group_name_H-M   'P 1'
_cell_length_a   8.12725742
_cell_length_b   10.19237534
_cell_length_c   12.95432963
_cell_angle_alpha   92.85107715
_cell_angle_beta   94.27058379
_cell_angle_gamma   107.82262957
_symmetry_Int_Tables_number   1
_chemical_formula_structural   CdH16C20S(NO4)2
_chemical_formula_sum   'Cd2 H32 C40 S2 N4 O16'
_cell_volume   1015.77264466
_cell_formula_units_Z   2
loop_
 _symmetry_equiv_pos_site_id
 _symmetry_equiv_pos_as_xyz
  1  'x, y, z'
loop_
 _atom_site_type_symbol
 _atom_site_label
 _atom_site_symmetry_multiplicity
 _atom_site_fract_x
 _atom_site_fract_y
 _atom_site_fract_z
 _atom_site_occupancy
 _atom_site_hle17_bader_spin_density
 _atom_site_hle17_ddec_charge
 _atom_site_hle17_ddec_spin_density
 _atom_site_hle17_ddec_sum_bond_order
 _atom_site_hle17_magmom
 _atom_site_hse06_10hf_bader_spin_density
 _atom_site_hse06_10hf_ddec_charge
 _atom_site_hse06_10hf_ddec_spin_density
 _atom_site_hse06_10hf_ddec_sum_bond_order
 _atom_site_hse06_10hf_magmom
 _atom_site_hse06_bader_spin_density
 _atom_site_hse06_ddec_charge
 _atom_site_hse06_ddec_spin_density
 _atom_site_hse06_ddec_sum_bond_order
 _atom_site_hse06_magmom
 _atom_site_pbe_bader_spin_density
 _atom_site_pbe_cm5_charge
 _atom_site_pbe_ddec_charge
 _atom_site_pbe_ddec_spin_density
 _atom_site_pbe_ddec_sum_bond_order
 _atom_site_pbe_magmom
Cd  Cd0  1  0.21986754  0.12046659  0.50419072  1  0  1.163  0  1.620492  0  0  0.979562  0  2.056144  0  0  1.038475  0  2.001941  0  0  0.776213  0.933817  0  2.096865  0
Cd  Cd1  1  0.78013220  0.87952778  0.49580733  1  0  1.16297  0  1.620505  0  0  0.979527  0  2.05617  0  0  1.038443  0  2.001963  0  0  0.776199  0.933783  0  2.096883  0
H  H2  1  0.13767015  0.39011639  0.01211187  1  0  0.317941  0  0.933678  0  0  0.292625  0  1.002513  0  0  0.302685  0  0.994385  0  0  0.307567  0.285446  0  1.008432  0
H  H3  1  0.86233558  0.60988730  0.98788604  1  0  0.318001  0  0.933621  0  0  0.292686  0  1.002451  0  0  0.302744  0  0.994323  0  0  0.307594  0.285508  0  1.008367  0
H  H4  1  0.57405967  0.18805821  0.46450810  1  0  0.430965  0  0.871985  0  0  0.39667  0  0.941705  0  0  0.408227  0  0.925  0  0  0.288293  0.38836  0  0.953676  0
H  H5  1  0.42593904  0.81193722  0.53549298  1  0  0.430971  0  0.87197  0  0  0.396634  0  0.941726  0  0  0.408191  0  0.925021  0  0  0.288276  0.388327  0  0.953692  0
H  H6  1  0.49747748  0.31381877  0.44530157  1  0  0.430545  0  0.828451  0  0  0.405743  0  0.896059  0  0  0.415101  0  0.88501  0  0  0.307672  0.398823  0  0.904257  0
H  H7  1  0.50251789  0.68617458  0.55470078  1  0  0.430492  0  0.828464  0  0  0.405685  0  0.896085  0  0  0.415043  0  0.885039  0  0  0.307654  0.398768  0  0.904281  0
H  H8  1  0.69268303  0.33752767  0.82016350  1  0  0.115989  0  0.933261  0  0  0.129018  0  0.986579  0  0  0.131621  0  0.986803  0  0  0.114542  0.127167  0  0.986585  0
H  H9  1  0.30730393  0.66247696  0.17984313  1  0  0.115988  0  0.933228  0  0  0.129003  0  0.986573  0  0  0.131605  0  0.986795  0  0  0.114503  0.127147  0  0.986578  0
H  H10  1  0.49078924  0.33563867  0.66657066  1  0  0.089409  0  0.919961  0  0  0.100219  0  0.979283  0  0  0.102425  0  0.977173  0  0  0.122947  0.098573  0  0.980803  0
H  H11  1  0.50920038  0.66436594  0.33343307  1  0  0.089429  0  0.91992  0  0  0.100263  0  0.979205  0  0  0.102446  0  0.977122  0  0  0.122961  0.098613  0  0.980719  0
H  H12  1  0.24434228  0.91442608  0.66950129  1  0  0.093031  0  0.939668  0  0  0.100871  0  1.003785  0  0  0.103526  0  1.001204  0  0  0.119955  0.098867  0  1.005775  0
H  H13  1  0.75565713  0.08557757  0.33049849  1  0  0.093006  0  0.939673  0  0  0.100884  0  1.003752  0  0  0.103541  0  1.001173  0  0  0.119946  0.098882  0  1.005745  0
H  H14  1  0.43625969  0.89628309  0.82337053  1  0  0.133493  0  0.972914  0  0  0.141506  0  1.036418  0  0  0.145222  0  1.034951  0  0  0.110169  0.138889  0  1.037508  0
H  H15  1  0.56373330  0.10372053  0.17663265  1  0  0.133473  0  0.972967  0  0  0.14151  0  1.036451  0  0  0.145223  0  1.034988  0  0  0.110161  0.138896  0  1.037537  0
H  H16  1  0.66983312  0.00435557  0.95485369  1  0  0.092796  0  0.943274  0  0  0.106486  0  1.000079  0  0  0.109045  0  0.999519  0  0  0.10735  0.104681  0  1.000481  0
H  H17  1  0.33016508  0.99565223  0.04515072  1  0  0.09271  0  0.943354  0  0  0.106456  0  1.000101  0  0  0.109015  0  0.999542  0  0  0.107354  0.104649  0  1.000504  0
H  H18  1  0.88543751  0.30467987  0.92296380  1  0  0.118733  0  0.956105  0  0  0.125732  0  1.021176  0  0  0.129089  0  1.019251  0  0  0.114659  0.123288  0  1.022677  0
H  H19  1  0.11456951  0.69532382  0.07703343  1  0  0.118741  0  0.956066  0  0  0.125693  0  1.021215  0  0  0.129053  0  1.019285  0  0  0.114647  0.12326  0  1.022697  0
H  H20  1  0.36304235  0.40277943  0.13792816  1  0  0.113683  0  0.953784  0  0  0.11944  0  1.017066  0  0  0.123238  0  1.013142  0  0  0.131298  0.116653  0  1.019842  0
H  H21  1  0.63696430  0.59722630  0.86206754  1  0  0.113658  0  0.953812  0  0  0.119447  0  1.017044  0  0  0.123237  0  1.013129  0  0  0.131305  0.116662  0  1.019822  0
H  H22  1  0.33569547  0.21145336  0.25892487  1  0  0.131515  0  0.946793  0  0  0.139801  0  1.004814  0  0  0.14318  0  1.003885  0  0  0.116638  0.137383  0  1.005683  0
H  H23  1  0.66431676  0.78855452  0.74107360  1  0  0.131466  0  0.94687  0  0  0.139796  0  1.004842  0  0  0.143175  0  1.003911  0  0  0.11665  0.137381  0  1.005714  0
H  H24  1  0.05941499  0.01154203  0.23999595  1  0  0.11327  0  0.94253  0  0  0.123102  0  1.000373  0  0  0.125995  0  0.998222  0  0  0.112099  0.120791  0  1.002365  0
H  H25  1  0.94059643  0.98846380  0.76000319  1  0  0.113273  0  0.942387  0  0  0.123043  0  1.00031  0  0  0.125931  0  0.998171  0  0  0.112116  0.120733  0  1.002296  0
H  H26  1  0.83060913  0.00147970  0.09789115  1  0  0.113688  0  0.949067  0  0  0.125895  0  1.00247  0  0  0.128875  0  1.002766  0  0  0.11265  0.123798  0  1.002408  0
H  H27  1  0.16939796  0.99852510  0.90211152  1  0  0.113639  0  0.949027  0  0  0.125856  0  1.002425  0  0  0.128853  0  1.002703  0  0  0.112644  0.123761  0  1.002362  0
H  H28  1  0.24381823  0.62678866  0.48253909  1  0  0.092624  0  0.982713  0  0  0.101708  0  1.05111  0  0  0.105649  0  1.047217  0  0  0.107091  0.098886  0  1.054177  0
H  H29  1  0.75618275  0.37320573  0.51745904  1  0  0.092661  0  0.982672  0  0  0.101703  0  1.0511  0  0  0.10564  0  1.047211  0  0  0.107106  0.098882  0  1.054166  0
H  H30  1  0.88953921  0.73029383  0.26048581  1  0  0.109647  0  0.942518  0  0  0.116737  0  1.009453  0  0  0.12064  0  1.006498  0  0  0.107132  0.113881  0  1.011616  0
H  H31  1  0.11046172  0.26970056  0.73951310  1  0  0.109648  0  0.942635  0  0  0.116739  0  1.009555  0  0  0.120648  0  1.006583  0  0  0.107114  0.113885  0  1.011717  0
H  H32  1  0.90500070  0.31175480  0.26564939  1  0  0.108318  0  0.953302  0  0  0.115432  0  1.021719  0  0  0.119076  0  1.019127  0  0  0.10677  0.11269  0  1.023689  0
H  H33  1  0.09499961  0.68824056  0.73434563  1  0  0.108345  0  0.953337  0  0  0.11546  0  1.021737  0  0  0.119098  0  1.019152  0  0  0.106788  0.112721  0  1.023702  0
C  C34  1  0.58613129  0.11560778  0.83425939  1  0  0.128501  0  3.791208  0  0  0.144586  0  4.020811  0  0  0.14957  0  4.043575  0  0  0.009431  0.141412  0  4.005206  0
C  C35  1  0.41386372  0.88439793  0.16574398  1  0  0.128481  0  3.791331  0  0  0.144634  0  4.020855  0  0  0.149619  0  4.043618  0  0  0.009387  0.141457  0  4.005254  0
C  C36  1  0.59777752  0.24042166  0.78902106  1  0  -0.127666  0  3.653223  0  0  -0.14513  0  3.896387  0  0  -0.152977  0  3.917906  0  0  -0.070835  -0.140157  0  3.882062  0
C  C37  1  0.40221376  0.75958093  0.21098351  1  0  -0.127686  0  3.653163  0  0  -0.145177  0  3.896328  0  0  -0.153021  0  3.91784  0  0  -0.070815  -0.140203  0  3.882002  0
C  C38  1  0.48489604  0.24066138  0.70346106  1  0  0.142827  0  3.704885  0  0  0.107923  0  3.96473  0  0  0.115835  0  3.983412  0  0  0.051508  0.102785  0  3.951675  0
C  C39  1  0.51509738  0.75934327  0.29654140  1  0  0.142752  0  3.704907  0  0  0.107849  0  3.964762  0  0  0.115776  0  3.983449  0  0  0.051457  0.102712  0  3.951698  0
C  C40  1  0.34624721  0.00510819  0.70556307  1  0  0.145616  0  3.68759  0  0  0.114481  0  3.939029  0  0  0.12276  0  3.957059  0  0  0.048116  0.109055  0  3.926417  0
C  C41  1  0.65374921  0.99489749  0.29443731  1  0  0.14561  0  3.687603  0  0  0.11444  0  3.939037  0  0  0.122717  0  3.957071  0  0  0.04815  0.109008  0  3.926431  0
C  C42  1  0.45392894  0.99633059  0.79151067  1  0  -0.170287  0  3.667481  0  0  -0.187135  0  3.91144  0  0  -0.195598  0  3.931908  0  0  -0.08108  -0.181545  0  3.897529  0
C  C43  1  0.54606661  0.00366998  0.20849262  1  0  -0.170248  0  3.667604  0  0  -0.187137  0  3.911551  0  0  -0.195601  0  3.932019  0  0  -0.081049  -0.181554  0  3.897645  0
C  C44  1  0.70415960  0.10437166  0.92125057  1  0  -0.071785  0  3.69938  0  0  -0.093996  0  3.950913  0  0  -0.095962  0  3.970415  0  0  -0.069555  -0.092475  0  3.937464  0
C  C45  1  0.29583955  0.89563511  0.07875234  1  0  -0.07168  0  3.699495  0  0  -0.093952  0  3.95099  0  0  -0.095916  0  3.970494  0  0  -0.069536  -0.092426  0  3.93754  0
C  C46  1  0.85025333  0.20606374  0.95806271  1  0  -0.122561  0  3.702351  0  0  -0.147878  0  3.964048  0  0  -0.151407  0  3.982151  0  0  -0.074132  -0.145564  0  3.951945  0
C  C47  1  0.14974651  0.79394093  0.04193634  1  0  -0.122631  0  3.702266  0  0  -0.147886  0  3.963993  0  0  -0.151414  0  3.982088  0  0  -0.074155  -0.145575  0  3.951889  0
C  C48  1  0.97135765  0.19683515  0.04306997  1  0  0.269749  0  3.729779  0  0  0.261217  0  3.972679  0  0  0.272315  0  3.990607  0  0  0.135719  0.253794  0  3.960755  0
C  C49  1  0.02864667  0.80316856  0.95693093  1  0  0.269742  0  3.729789  0  0  0.261118  0  3.972836  0  0  0.272216  0  3.990772  0  0  0.135713  0.253692  0  3.960918  0
C  C50  1  0.24841386  0.31173528  0.13413361  1  0  0.158435  0  3.59303  0  0  0.117411  0  3.843375  0  0  0.125988  0  3.858264  0  0  0.074201  0.11185  0  3.833405  0
C  C51  1  0.75158982  0.68826634  0.86586487  1  0  0.158478  0  3.592959  0  0  0.117432  0  3.843313  0  0  0.126018  0  3.858202  0  0  0.074231  0.111876  0  3.833349  0
C  C52  1  0.23136043  0.20562011  0.19934944  1  0  -0.100798  0  3.670692  0  0  -0.114674  0  3.927003  0  0  -0.122778  0  3.947639  0  0  -0.068168  -0.109584  0  3.913261  0
C  C53  1  0.76864899  0.79438670  0.80064803  1  0  -0.100757  0  3.670563  0  0  -0.114667  0  3.926879  0  0  -0.122768  0  3.947511  0  0  -0.068177  -0.109591  0  3.913151  0
C  C54  1  0.07843595  0.09352624  0.18685838  1  0  0.025374  0  3.67975  0  0  0.003085  0  3.936672  0  0  0.009309  0  3.952897  0  0  -0.051504  -0.000689  0  3.925879  0
C  C55  1  0.92157120  0.90648162  0.81314204  1  0  0.025362  0  3.67946  0  0  0.003126  0  3.936433  0  0  0.009347  0  3.952664  0  0  -0.05153  -0.000642  0  3.925635  0
C  C56  1  0.94980384  0.08824292  0.10816522  1  0  -0.163405  0  3.690857  0  0  -0.181924  0  3.941812  0  0  -0.191652  0  3.96373  0  0  -0.073485  -0.175856  0  3.927391  0
C  C57  1  0.05020579  0.91176497  0.89183538  1  0  -0.163341  0  3.690604  0  0  -0.18185  0  3.941572  0  0  -0.191592  0  3.963486  0  0  -0.073485  -0.175784  0  3.92715  0
C  C58  1  0.15596679  0.35740166  0.42924458  1  0  0.621852  0  3.961764  0  0  0.574363  0  4.248053  0  0  0.607645  0  4.245465  0  0  0.188606  0.551637  0  4.248915  0
C  C59  1  0.84403467  0.64259374  0.57075207  1  0  0.621911  0  3.961751  0  0  0.574428  0  4.248013  0  0  0.607711  0  4.245423  0  0  0.18868  0.551698  0  4.24888  0
C  C60  1  0.08545925  0.46029183  0.37801921  1  0  -0.057253  0  3.753678  0  0  -0.028304  0  3.987165  0  0  -0.038269  0  4.010388  0  0  -0.017277  -0.022231  0  3.972567  0
C  C61  1  0.91454207  0.53970360  0.62197974  1  0  -0.05744  0  3.753772  0  0  -0.028441  0  3.987206  0  0  -0.038409  0  4.010425  0  0  -0.017352  -0.022361  0  3.972607  0
C  C62  1  0.14671765  0.59840830  0.41629689  1  0  -0.060673  0  3.713683  0  0  -0.102164  0  3.962378  0  0  -0.098546  0  3.981011  0  0  -0.074758  -0.105195  0  3.95152  0
C  C63  1  0.85328047  0.40158502  0.58370102  1  0  -0.060601  0  3.713566  0  0  -0.102066  0  3.962263  0  0  -0.098457  0  3.980927  0  0  -0.074722  -0.105099  0  3.951406  0
C  C64  1  0.07849833  0.69642528  0.37444829  1  0  -0.078168  0  3.780505  0  0  -0.047867  0  4.016069  0  0  -0.05826  0  4.039647  0  0  -0.020258  -0.041374  0  4.001128  0
C  C65  1  0.92150136  0.30356910  0.62555052  1  0  -0.078146  0  3.780568  0  0  -0.047851  0  4.016106  0  0  -0.058257  0  4.039701  0  0  -0.02026  -0.041357  0  4.001164  0
C  C66  1  0.14383518  0.84204119  0.42049444  1  0  0.65206  0  3.906251  0  0  0.596482  0  4.19683  0  0  0.631576  0  4.190767  0  0  0.203324  0.572264  0  4.200501  0
C  C67  1  0.85616204  0.15795316  0.57950420  1  0  0.652112  0  3.906147  0  0  0.596602  0  4.196649  0  0  0.6317  0  4.190577  0  0  0.203392  0.572379  0  4.200326  0
C  C68  1  0.94688748  0.65555324  0.29216315  1  0  -0.050228  0  3.687658  0  0  -0.092601  0  3.942746  0  0  -0.088004  0  3.959624  0  0  -0.074192  -0.09451  0  3.930881  0
C  C69  1  0.05311179  0.34444012  0.70783638  1  0  -0.050345  0  3.687785  0  0  -0.092683  0  3.94287  0  0  -0.088077  0  3.95975  0  0  -0.07421  -0.094589  0  3.931006  0
C  C70  1  0.88818692  0.51767784  0.25232384  1  0  -0.115309  0  3.727068  0  0  -0.085725  0  3.97615  0  0  -0.094232  0  3.996835  0  0  -0.018884  -0.080634  0  3.962007  0
C  C71  1  0.11181188  0.48231757  0.74767571  1  0  -0.115244  0  3.727011  0  0  -0.085742  0  3.976196  0  0  -0.094257  0  3.996889  0  0  -0.018866  -0.08065  0  3.962058  0
C  C72  1  0.95534551  0.41970622  0.29529202  1  0  -0.045972  0  3.683137  0  0  -0.087062  0  3.933508  0  0  -0.0819  0  3.949948  0  0  -0.073414  -0.089272  0  3.921956  0
C  C73  1  0.04465551  0.58028815  0.70470534  1  0  -0.045904  0  3.68333  0  0  -0.086993  0  3.933723  0  0  -0.081823  0  3.950168  0  0  -0.073397  -0.08921  0  3.922171  0
S  S74  1  0.72840682  0.46442098  0.14279572  1  0  1.281681  0  5.697932  0  0  1.189836  0  6.219172  0  0  1.238309  0  6.194154  0  0  0.498582  1.156351  0  6.23543  0
S  S75  1  0.27159151  0.53557648  0.85720384  1  0  1.281834  0  5.697829  0  0  1.190009  0  6.219079  0  0  1.238481  0  6.194067  0  0  0.498663  1.156529  0  6.235331  0
N  N76  1  0.36243581  0.12484044  0.66135497  1  0  -0.351817  0  3.285635  0  0  -0.269423  0  3.555595  0  0  -0.29218  0  3.574909  0  0  -0.335874  -0.253245  0  3.541373  0
N  N77  1  0.63756065  0.87516216  0.33864611  1  0  -0.351718  0  3.28558  0  0  -0.26932  0  3.555514  0  0  -0.292074  0  3.574821  0  0  -0.33583  -0.253137  0  3.541281  0
N  N78  1  0.12024069  0.30522658  0.06023947  1  0  -0.258848  0  3.402453  0  0  -0.1876  0  3.617039  0  0  -0.204176  0  3.632188  0  0  -0.332551  -0.176687  0  3.607054  0
N  N79  1  0.87976505  0.69477711  0.93975844  1  0  -0.25889  0  3.402551  0  0  -0.187609  0  3.61718  0  0  -0.204185  0  3.632328  0  0  -0.332566  -0.176694  0  3.607191  0
O  O80  1  0.29018895  0.39887911  0.49280273  1  0  -0.640111  0  1.896522  0  0  -0.587041  0  2.115586  0  0  -0.612316  0  2.107207  0  0  -0.334307  -0.568369  0  2.120235  0
O  O81  1  0.70981580  0.60111838  0.50719342  1  0  -0.640137  0  1.896523  0  0  -0.58711  0  2.115634  0  0  -0.612381  0  2.107251  0  0  -0.334364  -0.568436  0  2.120283  0
O  O82  1  0.07095702  0.22904524  0.40514928  1  0  -0.653395  0  2.017166  0  0  -0.582892  0  2.265282  0  0  -0.614956  0  2.259461  0  0  -0.333269  -0.558902  0  2.269665  0
O  O83  1  0.92904425  0.77095020  0.59485044  1  0  -0.653405  0  2.017204  0  0  -0.582888  0  2.265289  0  0  -0.614958  0  2.259479  0  0  -0.333297  -0.558899  0  2.269673  0
O  O84  1  0.05054720  0.92201370  0.40152784  1  0  -0.681281  0  2.046737  0  0  -0.603506  0  2.304169  0  0  -0.634748  0  2.291826  0  0  -0.332967  -0.580345  0  2.313925  0
O  O85  1  0.94945105  0.07797959  0.59846776  1  0  -0.68127  0  2.046602  0  0  -0.603534  0  2.304051  0  0  -0.634775  0  2.2917  0  0  -0.332991  -0.580376  0  2.31382  0
O  O86  1  0.28702462  0.88544406  0.47645462  1  0  -0.62214  0  1.99498  0  0  -0.557606  0  2.223591  0  0  -0.585321  0  2.215699  0  0  -0.304183  -0.537487  0  2.228108  0
O  O87  1  0.71297071  0.11455237  0.52354701  1  0  -0.622121  0  1.994964  0  0  -0.557661  0  2.223611  0  0  -0.585375  0  2.215714  0  0  -0.304214  -0.537537  0  2.228127  0
O  O88  1  0.62485253  0.55914398  0.14501819  1  0  -0.663181  0  1.916347  0  0  -0.621939  0  2.154044  0  0  -0.64196  0  2.14042  0  0  -0.357152  -0.607783  0  2.162846  0
O  O89  1  0.37514035  0.44084627  0.85498545  1  0  -0.663186  0  1.916315  0  0  -0.621944  0  2.154007  0  0  -0.641965  0  2.140386  0  0  -0.357131  -0.607796  0  2.162817  0
O  O90  1  0.83513556  0.48087675  0.05262723  1  0  -0.672567  0  1.993422  0  0  -0.622015  0  2.244452  0  0  -0.643963  0  2.231094  0  0  -0.350027  -0.606255  0  2.253145  0
O  O91  1  0.16486098  0.51912583  0.94737232  1  0  -0.672583  0  1.993387  0  0  -0.622013  0  2.24439  0  0  -0.64396  0  2.231037  0  0  -0.350018  -0.606251  0  2.253074  0
O  O92  1  0.63350505  0.31956147  0.15316887  1  0  -0.665015  0  1.958533  0  0  -0.621083  0  2.205016  0  0  -0.642007  0  2.192397  0  0  -0.348768  -0.60617  0  2.213145  0
O  O93  1  0.36649922  0.68043193  0.84683025  1  0  -0.665136  0  1.958564  0  0  -0.621215  0  2.205064  0  0  -0.642136  0  2.192443  0  0  -0.348855  -0.606304  0  2.213194  0
O  O94  1  0.47973714  0.21590038  0.42618483  1  0  -0.822311  0  1.846411  0  0  -0.762368  0  2.039899  0  0  -0.78416  0  2.00979  0  0  -0.575904  -0.74682  0  2.061514  0
O  O95  1  0.52026289  0.78409505  0.57381481  1  0  -0.822257  0  1.846416  0  0  -0.762279  0  2.040021  0  0  -0.784073  0  2.009915  0  0  -0.575858  -0.746734  0  2.061634  0
