# generated using pymatgen
data_AgH28C15S2N5O7
_symmetry_space_group_name_H-M   'P 1'
_cell_length_a   9.48560280
_cell_length_b   14.99021386
_cell_length_c   19.11147068
_cell_angle_alpha   113.40294898
_cell_angle_beta   89.99990705
_cell_angle_gamma   90.00000112
_symmetry_Int_Tables_number   1
_chemical_formula_structural   AgH28C15S2N5O7
_chemical_formula_sum   'Ag4 H112 C60 S8 N20 O28'
_cell_volume   2493.92724962
_cell_formula_units_Z   4
loop_
 _symmetry_equiv_pos_site_id
 _symmetry_equiv_pos_as_xyz
  1  'x, y, z'
loop_
 _atom_site_type_symbol
 _atom_site_label
 _atom_site_symmetry_multiplicity
 _atom_site_fract_x
 _atom_site_fract_y
 _atom_site_fract_z
 _atom_site_occupancy
 _atom_site_pbe_bader_charge
 _atom_site_pbe_bader_spin_density
 _atom_site_pbe_cm5_charge
 _atom_site_pbe_ddec_charge
 _atom_site_pbe_ddec_spin_density
 _atom_site_pbe_ddec_sum_bond_order
 _atom_site_pbe_magmom
Ag  Ag0  1  0.99883594  0.55961009  0.60713648  1  0.409935  0  0.331062  0.283259  0  2.286637  0
Ag  Ag1  1  0.49883246  0.44039775  0.89286612  1  0.410055  0  0.331077  0.283229  0  2.286785  0
Ag  Ag2  1  0.00115905  0.44039148  0.39286558  1  0.409924  0  0.331027  0.283197  0  2.286637  0
Ag  Ag3  1  0.50116464  0.55960305  0.10713362  1  0.409938  0  0.33106  0.283232  0  2.286733  0
H  H4  1  0.75436951  0.64340851  0.70824140  1  0.547707  0  0.303764  0.291414  0  1.005532  0
H  H5  1  0.25437161  0.35659512  0.79176118  1  0.547688  0  0.303745  0.291317  0  1.00568  0
H  H6  1  0.24562443  0.35659310  0.29176224  1  0.547636  0  0.303738  0.291245  0  1.005677  0
H  H7  1  0.74562760  0.64340639  0.20823773  1  0.547647  0  0.30374  0.291294  0  1.005647  0
H  H8  1  0.77154156  0.62382798  0.88565790  1  0.519294  0  0.312526  0.280539  0  0.986347  0
H  H9  1  0.27154424  0.37616837  0.61434195  1  0.519261  0  0.312576  0.280613  0  0.986215  0
H  H10  1  0.22845554  0.37616641  0.11434619  1  0.519304  0  0.312613  0.280753  0  0.986189  0
H  H11  1  0.72845497  0.62383457  0.38565582  1  0.519301  0  0.312569  0.280678  0  0.986213  0
H  H12  1  0.25966041  0.77942149  0.97416662  1  0.52546  0  0.314561  0.274753  0  0.986304  0
H  H13  1  0.75965041  0.22057488  0.52583429  1  0.525326  0  0.314552  0.27471  0  0.986525  0
H  H14  1  0.74033985  0.22057788  0.02583374  1  0.525421  0  0.314558  0.274738  0  0.986326  0
H  H15  1  0.24034352  0.77942597  0.47416756  1  0.525351  0  0.314566  0.274712  0  0.986485  0
H  H16  1  0.56111879  0.70066081  0.03100369  1  0.546626  0  0.303761  0.284441  0  1.017079  0
H  H17  1  0.06110766  0.29933152  0.46899532  1  0.546818  0  0.303755  0.284498  0  1.016994  0
H  H18  1  0.43888253  0.29933926  0.96899530  1  0.54671  0  0.303748  0.28439  0  1.017086  0
H  H19  1  0.93888522  0.70066709  0.53100323  1  0.546658  0  0.30377  0.284472  0  1.016961  0
H  H20  1  0.29342676  0.67021209  0.69815025  1  0.031561  0  0.091061  0.058936  0  0.981195  0
H  H21  1  0.79342326  0.32978643  0.80185076  1  0.031555  0  0.091045  0.0589  0  0.98118  0
H  H22  1  0.70657877  0.32978808  0.30185401  1  0.031497  0  0.09105  0.058914  0  0.981268  0
H  H23  1  0.20657700  0.67021288  0.19814644  1  0.031538  0  0.091032  0.058896  0  0.98114  0
H  H24  1  0.45509077  0.77798287  0.66586850  1  0.082602  0  0.086406  0.124547  0  1.030022  0
H  H25  1  0.95509137  0.22201546  0.83412709  1  0.082428  0  0.086363  0.124496  0  1.030177  0
H  H26  1  0.54491055  0.22201505  0.33413142  1  0.082641  0  0.086414  0.124567  0  1.030027  0
H  H27  1  0.04490784  0.77798458  0.16587086  1  0.082815  0  0.086404  0.124529  0  1.030084  0
H  H28  1  0.37014403  0.88306503  0.73337990  1  0.011729  0  0.080887  0.1067  0  1.00769  0
H  H29  1  0.87014484  0.11693630  0.76661876  1  0.011728  0  0.080894  0.106694  0  1.007693  0
H  H30  1  0.62985728  0.11693358  0.26661814  1  0.011703  0  0.080861  0.106685  0  1.007692  0
H  H31  1  0.12985437  0.88306521  0.23338015  1  0.011716  0  0.080895  0.106703  0  1.007661  0
H  H32  1  0.27728659  0.80395193  0.65153336  1  0.003631  0  0.080507  0.115951  0  1.018892  0
H  H33  1  0.77729347  0.19604728  0.84846578  1  0.003711  0  0.080508  0.11595  0  1.018914  0
H  H34  1  0.72271577  0.19604599  0.34846656  1  0.003594  0  0.080514  0.115955  0  1.018842  0
H  H35  1  0.22270785  0.80395493  0.15153230  1  0.003848  0  0.080498  0.11593  0  1.018907  0
H  H36  1  0.08071488  0.77631631  0.73183630  1  0.038605  0  0.086307  0.126279  0  1.00664  0
H  H37  1  0.58071463  0.22368519  0.76816421  1  0.038601  0  0.086298  0.126248  0  1.006646  0
H  H38  1  0.91928749  0.22368453  0.26816555  1  0.038576  0  0.086312  0.126249  0  1.00666  0
H  H39  1  0.41928774  0.77631487  0.23183478  1  0.038541  0  0.086308  0.126296  0  1.006689  0
H  H40  1  0.16347701  0.85697100  0.81674376  1  0.007386  0  0.081846  0.107666  0  1.036221  0
H  H41  1  0.66347282  0.14303192  0.68325711  1  0.007433  0  0.081839  0.107644  0  1.036223  0
H  H42  1  0.83652430  0.14302980  0.18325599  1  0.007403  0  0.081823  0.107617  0  1.036204  0
H  H43  1  0.33652639  0.85696813  0.31674083  1  0.007276  0  0.081821  0.107639  0  1.036214  0
H  H44  1  0.12076703  0.73610277  0.80514388  1  0.030227  0  0.080518  0.112853  0  1.026955  0
H  H45  1  0.62076387  0.26389730  0.69485773  1  0.030254  0  0.080542  0.112901  0  1.026946  0
H  H46  1  0.87923428  0.26389877  0.19485661  1  0.03019  0  0.080511  0.112829  0  1.026979  0
H  H47  1  0.37923534  0.73610276  0.30514074  1  0.030285  0  0.080558  0.112923  0  1.026938  0
H  H48  1  0.42280893  0.82379949  0.84330924  1  0.051796  0  0.099223  0.068687  0  0.991033  0
H  H49  1  0.92280693  0.17620472  0.65669024  1  0.051711  0  0.099199  0.068654  0  0.99105  0
H  H50  1  0.57719344  0.17620714  0.15669279  1  0.051766  0  0.09921  0.068657  0  0.99105  0
H  H51  1  0.07719333  0.82379604  0.34330687  1  0.051738  0  0.099201  0.068681  0  0.991022  0
H  H52  1  0.37124975  0.70354637  0.82991103  1  0.055228  0  0.098346  0.067111  0  1.021001  0
H  H53  1  0.87124878  0.29645938  0.67009210  1  0.055205  0  0.098345  0.067122  0  1.020977  0
H  H54  1  0.62875051  0.29646250  0.17009481  1  0.055209  0  0.098343  0.067123  0  1.02095  0
H  H55  1  0.12875253  0.70354285  0.32990650  1  0.055269  0  0.098351  0.067143  0  1.021006  0
H  H56  1  0.96032985  0.45635690  0.82975115  1  0.07062  0  0.101096  0.080569  0  1.026198  0
H  H57  1  0.46033132  0.54364083  0.67025053  1  0.070619  0  0.101139  0.080612  0  1.02617  0
H  H58  1  0.03967357  0.54363816  0.17025053  1  0.070673  0  0.101112  0.080561  0  1.026227  0
H  H59  1  0.53966578  0.45636213  0.32974829  1  0.070661  0  0.101096  0.080563  0  1.026217  0
H  H60  1  0.90941359  0.52614701  0.92527456  1  0.116532  0  0.108838  0.094787  0  1.000581  0
H  H61  1  0.40941009  0.47385651  0.57472682  1  0.116505  0  0.108848  0.094817  0  1.000455  0
H  H62  1  0.09059510  0.47385312  0.07472759  1  0.116641  0  0.10889  0.094872  0  1.000423  0
H  H63  1  0.59058912  0.52614643  0.42527148  1  0.116679  0  0.108865  0.09487  0  1.000486  0
H  H64  1  0.17219112  0.52543463  0.89308925  1  0.044266  0  0.083493  0.087703  0  1.053389  0
H  H65  1  0.67218827  0.47456097  0.60690679  1  0.044254  0  0.083442  0.087616  0  1.053448  0
H  H66  1  0.82781441  0.47456251  0.10690782  1  0.044313  0  0.083464  0.087661  0  1.053394  0
H  H67  1  0.32780988  0.52543985  0.39309348  1  0.04425  0  0.083454  0.087633  0  1.053443  0
H  H68  1  0.13049434  0.59436321  0.83951322  1  0.057546  0  0.079219  0.078826  0  1.039134  0
H  H69  1  0.63049025  0.40563608  0.66048606  1  0.057541  0  0.079206  0.078764  0  1.039116  0
H  H70  1  0.86950697  0.40563468  0.16048512  1  0.057579  0  0.079209  0.078781  0  1.03911  0
H  H71  1  0.36950157  0.59436766  0.33951613  1  0.057575  0  0.079204  0.078751  0  1.039136  0
H  H72  1  0.02834883  0.72529361  0.95844077  1  0.065064  0  0.106614  0.081784  0  0.992075  0
H  H73  1  0.52833668  0.27470504  0.54155997  1  0.06495  0  0.106559  0.081724  0  0.992017  0
H  H74  1  0.97165354  0.27470355  0.04155735  1  0.065057  0  0.106598  0.081715  0  0.992077  0
H  H75  1  0.47165620  0.72529728  0.45844337  1  0.065023  0  0.106596  0.081732  0  0.992046  0
H  H76  1  0.06598845  0.65224868  0.00984380  1  0.123046  0  0.104974  0.090288  0  1.03616  0
H  H77  1  0.56598540  0.34774655  0.49015556  1  0.123289  0  0.104954  0.090257  0  1.036229  0
H  H78  1  0.93401392  0.34774849  0.99015485  1  0.123018  0  0.104974  0.090259  0  1.036249  0
H  H79  1  0.43401064  0.65225428  0.50984576  1  0.123325  0  0.104973  0.090272  0  1.036177  0
H  H80  1  0.62846702  0.00454908  0.09562187  1  0.046342  0  0.101456  0.067229  0  0.987028  0
H  H81  1  0.12847306  0.99544396  0.40437783  1  0.046293  0  0.101432  0.067135  0  0.987099  0
H  H82  1  0.37153219  0.99545028  0.90437797  1  0.046339  0  0.101447  0.067203  0  0.987037  0
H  H83  1  0.87153142  0.00455389  0.59561840  1  0.046352  0  0.10146  0.067252  0  0.987089  0
H  H84  1  0.60047162  0.95891479  0.99518522  1  0.089171  0  0.106028  0.077002  0  1.027449  0
H  H85  1  0.10047250  0.04107875  0.50481444  1  0.089205  0  0.106021  0.077022  0  1.027457  0
H  H86  1  0.39952969  0.04108314  0.00481522  1  0.08911  0  0.106007  0.076967  0  1.027451  0
H  H87  1  0.89952776  0.95892128  0.49518245  1  0.089088  0  0.106025  0.077019  0  1.027456  0
H  H88  1  0.84027338  0.02266243  0.03325965  1  0.001551  0  0.094577  0.056226  0  0.973749  0
H  H89  1  0.34027816  0.97733778  0.46674256  1  0.001516  0  0.094594  0.05625  0  0.973725  0
H  H90  1  0.15972688  0.97733695  0.96674123  1  0.001531  0  0.094576  0.056225  0  0.973766  0
H  H91  1  0.65972421  0.02266230  0.53325696  1  0.001502  0  0.094609  0.056288  0  0.973689  0
H  H92  1  0.80189070  0.89635285  0.90341589  1  0.021685  0  0.087296  0.122073  0  0.991898  0
H  H93  1  0.30188813  0.10364784  0.59658524  1  0.021703  0  0.08726  0.122036  0  0.991943  0
H  H94  1  0.19811061  0.10364726  0.09658521  1  0.021653  0  0.087262  0.122025  0  0.991919  0
H  H95  1  0.69810897  0.89635222  0.40341323  1  0.021705  0  0.087256  0.122027  0  0.991932  0
H  H96  1  0.82860481  0.80309537  0.93725065  1  0.063637  0  0.085386  0.120409  0  1.039652  0
H  H97  1  0.32860025  0.19690456  0.56274918  1  0.063695  0  0.085389  0.120425  0  1.039643  0
H  H98  1  0.17139756  0.19690473  0.06274993  1  0.063699  0  0.085403  0.120429  0  1.039643  0
H  H99  1  0.67139579  0.80309551  0.43724982  1  0.063623  0  0.085392  0.12042  0  1.039673  0
H  H100  1  0.97081086  0.88037221  0.93670094  1  -0.006461  0  0.082573  0.10864  0  1.034971  0
H  H101  1  0.47081050  0.11962986  0.56330152  1  -0.006386  0  0.082616  0.108694  0  1.034901  0
H  H102  1  0.02919046  0.11962789  0.06329964  1  -0.006435  0  0.082554  0.108617  0  1.035032  0
H  H103  1  0.52918765  0.88037316  0.43670046  1  -0.006451  0  0.082579  0.108647  0  1.03492  0
H  H104  1  0.87290376  0.97716066  0.14590449  1  0.007845  0  0.084968  0.111966  0  1.018618  0
H  H105  1  0.37290351  0.02283952  0.35409716  1  0.007848  0  0.084966  0.111993  0  1.018569  0
H  H106  1  0.12709650  0.02284018  0.85409683  1  0.007843  0  0.084967  0.11198  0  1.018586  0
H  H107  1  0.62709991  0.97716201  0.64590281  1  0.00827  0  0.084965  0.111983  0  1.018556  0
H  H108  1  0.01549394  0.93531820  0.08071751  1  0.038228  0  0.086389  0.119332  0  1.005602  0
H  H109  1  0.51549424  0.06468358  0.41928283  1  0.038233  0  0.086395  0.11936  0  1.005605  0
H  H110  1  0.98450632  0.06468337  0.91928456  1  0.038233  0  0.086397  0.11936  0  1.005602  0
H  H111  1  0.48450813  0.93531867  0.58071683  1  0.038263  0  0.086412  0.119384  0  1.005591  0
H  H112  1  0.88277250  0.85277215  0.08309560  1  0.01904  0  0.088502  0.127388  0  1.010975  0
H  H113  1  0.38276995  0.14722730  0.41690582  1  0.019051  0  0.088492  0.127396  0  1.010954  0
H  H114  1  0.11722882  0.14722869  0.91690572  1  0.019025  0  0.088506  0.127396  0  1.010973  0
H  H115  1  0.61723137  0.85277280  0.58309476  1  0.019053  0  0.088483  0.127372  0  1.011009  0
C  C116  1  0.30355573  0.74660245  0.73874802  1  0.045807  0  -0.09587  0.083239  0  3.905199  0
C  C117  1  0.80355446  0.25339822  0.76125206  1  0.045773  0  -0.095816  0.083397  0  3.90508  0
C  C118  1  0.69644347  0.25340057  0.26125396  1  0.045964  0  -0.095853  0.083297  0  3.905164  0
C  C119  1  0.19644791  0.74660256  0.23874611  1  0.045556  0  -0.095731  0.083519  0  3.904917  0
C  C120  1  0.35495476  0.80631868  0.69486582  1  -0.07962  0  -0.249012  -0.385857  0  3.918348  0
C  C121  1  0.85495650  0.19368192  0.80513210  1  -0.079515  0  -0.248999  -0.385837  0  3.91846  0
C  C122  1  0.64504656  0.19367997  0.30513431  1  -0.079608  0  -0.249001  -0.385879  0  3.918269  0
C  C123  1  0.14504482  0.80631957  0.19486576  1  -0.080035  0  -0.249017  -0.385858  0  3.918343  0
C  C124  1  0.15918636  0.78087154  0.77541422  1  -0.081564  0  -0.245712  -0.395874  0  3.932355  0
C  C125  1  0.65918731  0.21912995  0.72458727  1  -0.081639  0  -0.245739  -0.395923  0  3.932396  0
C  C126  1  0.84081390  0.21912929  0.22458658  1  -0.081559  0  -0.245706  -0.395801  0  3.932318  0
C  C127  1  0.34081506  0.78087010  0.27541067  1  -0.081298  0  -0.245774  -0.396029  0  3.932461  0
C  C128  1  0.40695128  0.74929441  0.80045101  1  0.385305  0  -0.064521  0.006619  0  3.821136  0
C  C129  1  0.90694704  0.25070839  0.69955015  1  0.385439  0  -0.064493  0.006637  0  3.821081  0
C  C130  1  0.59304793  0.25071078  0.19955163  1  0.385353  0  -0.064509  0.006711  0  3.821104  0
C  C131  1  0.09305322  0.74929092  0.30044705  1  0.385461  0  -0.064557  0.006523  0  3.821133  0
C  C132  1  0.63222319  0.68305916  0.80581877  1  1.972919  0  0.326927  0.668755  0  4.158503  0
C  C133  1  0.13222349  0.31693439  0.69418244  1  1.972602  0  0.326919  0.668768  0  4.158613  0
C  C134  1  0.36777075  0.31693667  0.19418523  1  1.972742  0  0.327133  0.669102  0  4.158768  0
C  C135  1  0.86777782  0.68306346  0.30581380  1  1.972776  0  0.327188  0.669228  0  4.158593  0
C  C136  1  0.84734082  0.58424455  0.77878405  1  0.946024  0  0.25228  0.414691  0  4.058554  0
C  C137  1  0.34734104  0.41575755  0.72121642  1  0.945991  0  0.252312  0.414655  0  4.058525  0
C  C138  1  0.15265523  0.41575702  0.22121802  1  0.945954  0  0.252279  0.414721  0  4.058461  0
C  C139  1  0.65265816  0.58424536  0.27877976  1  0.94601  0  0.252287  0.414693  0  4.058554  0
C  C140  1  0.95154384  0.53052607  0.87333020  1  0.293127  0  -0.064876  -0.007073  0  3.8757  0
C  C141  1  0.45154017  0.46947454  0.62667079  1  0.29285  0  -0.064884  -0.007075  0  3.87554  0
C  C142  1  0.04845958  0.46947188  0.12667130  1  0.292769  0  -0.064921  -0.00701  0  3.875467  0
C  C143  1  0.54845904  0.53052986  0.37332795  1  0.29237  0  -0.064916  -0.007071  0  3.8755  0
C  C144  1  0.09702670  0.57832200  0.88834710  1  -0.021721  0  -0.175784  -0.20517  0  3.922863  0
C  C145  1  0.59702277  0.42167656  0.61165094  1  -0.021594  0  -0.175786  -0.2051  0  3.922756  0
C  C146  1  0.90297673  0.42167733  0.11165115  1  -0.021707  0  -0.175806  -0.205189  0  3.922818  0
C  C147  1  0.40297433  0.57832571  0.38834977  1  -0.021265  0  -0.175721  -0.205016  0  3.922711  0
C  C148  1  0.10038325  0.66992115  0.96194168  1  0.259343  0  -0.066294  -0.011377  0  3.895536  0
C  C149  1  0.60037744  0.33007526  0.53805728  1  0.259059  0  -0.066263  -0.011223  0  3.895312  0
C  C150  1  0.89962228  0.33007747  0.03805741  1  0.259243  0  -0.066257  -0.011199  0  3.895416  0
C  C151  1  0.39962071  0.66992557  0.46194352  1  0.259002  0  -0.066285  -0.011275  0  3.895418  0
C  C152  1  0.34625215  0.68140638  0.00686682  1  0.935106  0  0.253881  0.410361  0  4.061461  0
C  C153  1  0.84624802  0.31858873  0.49313385  1  0.934974  0  0.25389  0.410444  0  4.061305  0
C  C154  1  0.65375022  0.31859151  0.99313205  1  0.935184  0  0.253894  0.410392  0  4.061361  0
C  C155  1  0.15375013  0.68141064  0.50686651  1  0.93502  0  0.253936  0.410481  0  4.061287  0
C  C156  1  0.48744717  0.82419934  0.02127074  1  1.985006  0  0.3353  0.687226  0  4.129467  0
C  C157  1  0.98744834  0.17579635  0.47872579  1  1.98427  0  0.335402  0.687387  0  4.129302  0
C  C158  1  0.51255099  0.17580221  0.97873027  1  1.984976  0  0.335286  0.687245  0  4.129432  0
C  C159  1  0.01255192  0.82420223  0.52127066  1  1.984268  0  0.335388  0.687334  0  4.129331  0
C  C160  1  0.65919058  0.94761878  0.04034328  1  0.377084  0  -0.062974  -0.001286  0  3.820915  0
C  C161  1  0.15919209  0.05237569  0.45965683  1  0.377035  0  -0.062953  -0.001214  0  3.820925  0
C  C162  1  0.34080968  0.05238059  0.95965708  1  0.377145  0  -0.062949  -0.001215  0  3.820815  0
C  C163  1  0.84081028  0.94762289  0.54034015  1  0.377038  0  -0.063032  -0.001444  0  3.821087  0
C  C164  1  0.81751158  0.94780633  0.02745498  1  0.064684  0  -0.091721  0.092069  0  3.89769  0
C  C165  1  0.31751306  0.05219316  0.47254703  1  0.064831  0  -0.091716  0.092131  0  3.897664  0
C  C166  1  0.18248762  0.05219377  0.97254560  1  0.064704  0  -0.091682  0.092127  0  3.897605  0
C  C167  1  0.68249142  0.94780763  0.52745218  1  0.064575  0  -0.091714  0.092137  0  3.897578  0
C  C168  1  0.85703736  0.87793752  0.94651441  1  -0.073871  0  -0.24888  -0.396047  0  3.916755  0
C  C169  1  0.35703388  0.12206460  0.55348763  1  -0.074026  0  -0.248897  -0.396101  0  3.916666  0
C  C170  1  0.14296501  0.12206330  0.05348639  1  -0.073944  0  -0.248861  -0.396012  0  3.916782  0
C  C171  1  0.64296427  0.87793621  0.44651211  1  -0.073716  0  -0.248856  -0.396024  0  3.916648  0
C  C172  1  0.90184139  0.92721101  0.08776357  1  -0.048763  0  -0.245708  -0.396578  0  3.925159  0
C  C173  1  0.40184096  0.07278842  0.41223783  1  -0.048804  0  -0.245723  -0.396695  0  3.92522  0
C  C174  1  0.09815887  0.07278909  0.91223701  1  -0.048739  0  -0.245753  -0.396679  0  3.925208  0
C  C175  1  0.59816247  0.92721165  0.58776169  1  -0.049133  0  -0.245705  -0.396662  0  3.925165  0
S  S176  1  0.96390494  0.51321229  0.71194524  1  -0.148895  0  -0.183508  -0.342452  0  2.678364  0
S  S177  1  0.46390496  0.48678901  0.78805438  1  -0.14893  0  -0.183507  -0.342413  0  2.67847  0
S  S178  1  0.03609216  0.48678488  0.28805341  1  -0.148884  0  -0.183529  -0.342449  0  2.678467  0
S  S179  1  0.53608687  0.51321397  0.21194550  1  -0.149  0  -0.183517  -0.342402  0  2.678427  0
S  S180  1  0.33023416  0.57574444  0.02000326  1  -0.128297  0  -0.172097  -0.325138  0  2.811791  0
S  S181  1  0.83022799  0.42424777  0.47999602  1  -0.128008  0  -0.171998  -0.324983  0  2.811692  0
S  S182  1  0.66977137  0.42425194  0.97999148  1  -0.128317  0  -0.172111  -0.325152  0  2.811679  0
S  S183  1  0.16976911  0.57575092  0.52000622  1  -0.128166  0  -0.172059  -0.325054  0  2.81158  0
N  N184  1  0.74735353  0.63850469  0.76104481  1  -1.270827  0  -0.394311  -0.449526  0  3.554721  0
N  N185  1  0.24735264  0.36149387  0.73895730  1  -1.270846  0  -0.394297  -0.449431  0  3.554747  0
N  N186  1  0.25264252  0.36149190  0.23896099  1  -1.27055  0  -0.394368  -0.449434  0  3.554657  0
N  N187  1  0.75264551  0.63850762  0.26104056  1  -1.270915  0  -0.394348  -0.449525  0  3.55484  0
N  N188  1  0.84851722  0.58428281  0.84845316  1  -1.237731  0  -0.402077  -0.301752  0  3.5558  0
N  N189  1  0.34851241  0.41571344  0.65154398  1  -1.237462  0  -0.402172  -0.301856  0  3.555644  0
N  N190  1  0.15148726  0.41571006  0.15154733  1  -1.237509  0  -0.402102  -0.302059  0  3.55577  0
N  N191  1  0.65148469  0.58429091  0.34845212  1  -1.237395  0  -0.40207  -0.301953  0  3.555711  0
N  N192  1  0.23951408  0.71454411  0.97881937  1  -1.260253  0  -0.401228  -0.289178  0  3.556105  0
N  N193  1  0.73950832  0.28544575  0.52118064  1  -1.260353  0  -0.401239  -0.289332  0  3.556285  0
N  N194  1  0.76049040  0.28545380  0.02118002  1  -1.260218  0  -0.401274  -0.289262  0  3.556005  0
N  N195  1  0.26048983  0.71455149  0.47882116  1  -1.260339  0  -0.401313  -0.289345  0  3.556311  0
N  N196  1  0.46868820  0.73472220  0.02493345  1  -1.248181  0  -0.395078  -0.456959  0  3.581544  0
N  N197  1  0.96868202  0.26526855  0.47506894  1  -1.248022  0  -0.395077  -0.457112  0  3.581702  0
N  N198  1  0.53131312  0.26527717  0.97506690  1  -1.248207  0  -0.395048  -0.456872  0  3.58152  0
N  N199  1  0.03131508  0.73473011  0.52493173  1  -1.2479  0  -0.395105  -0.457085  0  3.581676  0
N  N200  1  0.71676326  0.65179375  0.57559452  1  0.83405  0  0.092286  0.701332  0  4.427289  0
N  N201  1  0.21675966  0.34820772  0.92440744  1  0.834159  0  0.092164  0.701166  0  4.427142  0
N  N202  1  0.28323595  0.34820568  0.42440900  1  0.834081  0  0.092293  0.701416  0  4.427103  0
N  N203  1  0.78323955  0.65179164  0.07559239  1  0.834152  0  0.092143  0.701143  0  4.427118  0
O  O204  1  0.54215729  0.71209258  0.76474563  1  -1.059519  0  -0.161635  -0.250086  0  2.514154  0
O  O205  1  0.04215324  0.28790977  0.73525988  1  -1.058952  0  -0.161603  -0.250091  0  2.514116  0
O  O206  1  0.45784403  0.28791195  0.23525994  1  -1.059546  0  -0.161641  -0.250254  0  2.514224  0
O  O207  1  0.95784702  0.71209029  0.26473860  1  -1.059305  0  -0.161667  -0.25022  0  2.514122  0
O  O208  1  0.61435706  0.69377038  0.87250457  1  -1.158054  0  -0.282138  -0.509943  0  2.200942  0
O  O209  1  0.11436390  0.30622022  0.62749315  1  -1.158217  0  -0.282161  -0.50999  0  2.201097  0
O  O210  1  0.38563371  0.30621962  0.12749715  1  -1.158108  0  -0.282297  -0.510187  0  2.201274  0
O  O211  1  0.88563214  0.69378124  0.37250313  1  -1.158065  0  -0.282341  -0.510254  0  2.201246  0
O  O212  1  0.61969071  0.85455155  0.04174185  1  -1.060212  0  -0.158022  -0.234456  0  2.499609  0
O  O213  1  0.11968592  0.14544296  0.45825882  1  -1.06026  0  -0.157947  -0.234352  0  2.499714  0
O  O214  1  0.38030955  0.14544929  0.95825947  1  -1.060221  0  -0.158027  -0.234476  0  2.499643  0
O  O215  1  0.88031118  0.85455562  0.54173764  1  -1.060277  0  -0.157965  -0.234328  0  2.499742  0
O  O216  1  0.39594115  0.87020668  0.00347109  1  -1.167103  0  -0.29118  -0.536944  0  2.154194  0
O  O217  1  0.89593278  0.12978780  0.49653563  1  -1.166448  0  -0.29136  -0.537162  0  2.153698  0
O  O218  1  0.60405700  0.12979490  0.99653151  1  -1.167078  0  -0.291131  -0.536923  0  2.154101  0
O  O219  1  0.10406854  0.87021093  0.50346872  1  -1.166431  0  -0.291293  -0.537057  0  2.1538  0
O  O220  1  0.79955812  0.67919242  0.63399633  1  -0.606402  0  -0.222242  -0.46744  0  2.075062  0
O  O221  1  0.29955997  0.32081048  0.86600704  1  -0.606299  0  -0.222221  -0.467366  0  2.07501  0
O  O222  1  0.20043898  0.32080630  0.36600750  1  -0.606418  0  -0.222261  -0.467453  0  2.074972  0
O  O223  1  0.70044029  0.67919033  0.13399270  1  -0.6063  0  -0.222236  -0.467387  0  2.074977  0
O  O224  1  0.76487311  0.65324661  0.51388642  1  -0.569038  0  -0.184346  -0.439212  0  2.018891  0
O  O225  1  0.26486931  0.34675772  0.98611585  1  -0.569205  0  -0.184318  -0.439125  0  2.018799  0
O  O226  1  0.23512926  0.34675352  0.48611627  1  -0.569179  0  -0.184261  -0.439166  0  2.018805  0
O  O227  1  0.73513095  0.65324017  0.01388302  1  -0.569181  0  -0.184291  -0.439072  0  2.018776  0
O  O228  1  0.59477206  0.62383798  0.58012803  1  -0.498322  0  -0.153618  -0.389313  0  1.999131  0
O  O229  1  0.09476847  0.37615988  0.91987085  1  -0.498382  0  -0.153557  -0.389257  0  1.999027  0
O  O230  1  0.40522610  0.37616211  0.41987202  1  -0.498231  0  -0.153686  -0.38941  0  1.999062  0
O  O231  1  0.90523179  0.62384020  0.08012867  1  -0.498388  0  -0.153548  -0.389252  0  1.999019  0
