# generated using pymatgen
data_BaH26C14S2N2O7
_symmetry_space_group_name_H-M   'P 1'
_cell_length_a   7.77229861
_cell_length_b   11.50965789
_cell_length_c   13.15980000
_cell_angle_alpha   82.02190087
_cell_angle_beta   80.95949512
_cell_angle_gamma   76.54525561
_symmetry_Int_Tables_number   1
_chemical_formula_structural   BaH26C14S2N2O7
_chemical_formula_sum   'Ba2 H52 C28 S4 N4 O14'
_cell_volume   1124.27319884
_cell_formula_units_Z   2
loop_
 _symmetry_equiv_pos_site_id
 _symmetry_equiv_pos_as_xyz
  1  'x, y, z'
loop_
 _atom_site_type_symbol
 _atom_site_label
 _atom_site_symmetry_multiplicity
 _atom_site_fract_x
 _atom_site_fract_y
 _atom_site_fract_z
 _atom_site_occupancy
 _atom_site_hle17_bader_spin_density
 _atom_site_hle17_ddec_charge
 _atom_site_hle17_ddec_spin_density
 _atom_site_hle17_ddec_sum_bond_order
 _atom_site_hle17_magmom
 _atom_site_hse06_10hf_bader_spin_density
 _atom_site_hse06_10hf_ddec_charge
 _atom_site_hse06_10hf_ddec_spin_density
 _atom_site_hse06_10hf_ddec_sum_bond_order
 _atom_site_hse06_10hf_magmom
 _atom_site_hse06_bader_spin_density
 _atom_site_hse06_ddec_charge
 _atom_site_hse06_ddec_spin_density
 _atom_site_hse06_ddec_sum_bond_order
 _atom_site_hse06_magmom
 _atom_site_pbe_bader_charge
 _atom_site_pbe_bader_spin_density
 _atom_site_pbe_cm5_charge
 _atom_site_pbe_ddec_charge
 _atom_site_pbe_ddec_spin_density
 _atom_site_pbe_ddec_sum_bond_order
 _atom_site_pbe_magmom
Ba  Ba0  1  0.30240686  0.32040114  0.26958177  1  0  1.532948  0  1.274076  0  0  1.347836  0  1.698482  0  0  1.390438  0  1.656304  0  1.673151  0  0.902889  1.317108  0  1.727714  0
Ba  Ba1  1  0.69759840  0.67960042  0.73041831  1  0  1.532863  0  1.274197  0  0  1.347843  0  1.69843  0  0  1.390444  0  1.656252  0  1.673095  0  0.902858  1.317052  0  1.727765  0
H  H2  1  0.14070335  0.30503839  0.02277994  1  0  0.38567  0  0.925733  0  0  0.355266  0  0.990866  0  0  0.364729  0  0.977203  0  0.602434  0  0.270088  0.348562  0  1.000527  0
H  H3  1  0.85929482  0.69496496  0.97722135  1  0  0.385661  0  0.925734  0  0  0.355261  0  0.990861  0  0  0.364725  0  0.977198  0  0.602344  0  0.270077  0.348556  0  1.000524  0
H  H4  1  0.09936251  0.41369619  0.09203330  1  0  0.403436  0  0.879752  0  0  0.378787  0  0.950497  0  0  0.387499  0  0.937682  0  0.593662  0  0.298768  0.372632  0  0.958968  0
H  H5  1  0.90062930  0.58631076  0.90796738  1  0  0.403493  0  0.879763  0  0  0.378845  0  0.950444  0  0  0.387557  0  0.937629  0  0.593686  0  0.298827  0.372691  0  0.958975  0
H  H6  1  0.14772212  0.11297938  0.60060241  1  0  0.056488  0  0.917921  0  0  0.070717  0  0.982787  0  0  0.071426  0  0.981648  0  0.060245  0  0.101369  0.070146  0  0.983703  0
H  H7  1  0.85227980  0.88702038  0.39940048  1  0  0.056465  0  0.917867  0  0  0.070674  0  0.982784  0  0  0.071382  0  0.981647  0  0.060294  0  0.101386  0.070103  0  0.983699  0
H  H8  1  0.00314688  0.21699484  0.51965625  1  0  0.057959  0  0.93762  0  0  0.071423  0  1.004832  0  0  0.071427  0  1.005292  0  0.049167  0  0.103434  0.071331  0  1.004631  0
H  H9  1  0.99685649  0.78300043  0.48034781  1  0  0.057906  0  0.93759  0  0  0.071392  0  1.004807  0  0  0.071396  0  1.005267  0  0.049125  0  0.103416  0.071299  0  1.004605  0
H  H10  1  0.13672789  0.31633202  0.63834202  1  0  0.056037  0  0.949518  0  0  0.069247  0  1.017792  0  0  0.068828  0  1.01856  0  0.073991  0  0.099363  0.069454  0  1.017369  0
H  H11  1  0.86327592  0.68366594  0.36165940  1  0  0.056068  0  0.949483  0  0  0.069243  0  1.017779  0  0  0.068831  0  1.018537  0  0.07398  0  0.099373  0.069452  0  1.017351  0
H  H12  1  0.35445621  0.25501581  0.57598040  1  0  0.047551  0  0.943057  0  0  0.057334  0  1.020393  0  0  0.058658  0  1.018523  0  0.043766  0  0.095281  0.056297  0  1.021851  0
H  H13  1  0.64554080  0.74498305  0.42401850  1  0  0.04751  0  0.943101  0  0  0.057308  0  1.0204  0  0  0.058633  0  1.018533  0  0.043769  0  0.095261  0.05627  0  1.021859  0
H  H14  1  0.37701948  0.45563444  0.54225193  1  0  0.063126  0  0.943565  0  0  0.075211  0  1.011919  0  0  0.076071  0  1.011228  0  0.086619  0  0.104512  0.074484  0  1.012586  0
H  H15  1  0.62298678  0.54435993  0.45774894  1  0  0.063241  0  0.943593  0  0  0.075219  0  1.012004  0  0  0.07608  0  1.011316  0  0.086776  0  0.10454  0.0745  0  1.012663  0
H  H16  1  0.14798487  0.52813017  0.57203775  1  0  0.072766  0  0.934929  0  0  0.08291  0  1.004093  0  0  0.083368  0  1.003841  0  0.09563  0  0.109909  0.082522  0  1.00437  0
H  H17  1  0.85202125  0.47186869  0.42796638  1  0  0.072804  0  0.934997  0  0  0.082872  0  1.004178  0  0  0.083328  0  1.003931  0  0.095721  0  0.109891  0.082483  0  1.004457  0
H  H18  1  0.13959124  0.60314698  0.38311872  1  0  0.057771  0  0.943824  0  0  0.071723  0  1.009849  0  0  0.072078  0  1.009758  0  0.041799  0  0.105712  0.071374  0  1.010087  0
H  H19  1  0.86041169  0.39684559  0.61688267  1  0  0.057799  0  0.9437  0  0  0.071745  0  1.00978  0  0  0.072101  0  1.009687  0  0.042012  0  0.105709  0.071397  0  1.010016  0
H  H20  1  0.29857205  0.65426029  0.44171970  1  0  0.050766  0  0.951476  0  0  0.060077  0  1.029312  0  0  0.060458  0  1.02882  0  0.056033  0  0.096102  0.059713  0  1.029811  0
H  H21  1  0.70142858  0.34573947  0.55828027  1  0  0.050831  0  0.951488  0  0  0.060147  0  1.029332  0  0  0.06053  0  1.028843  0  0.055961  0  0.096126  0.059782  0  1.029832  0
H  H22  1  0.50113440  0.67558341  0.29080487  1  0  0.04677  0  0.931817  0  0  0.060841  0  1.00221  0  0  0.061244  0  1.001332  0  0.051111  0  0.097475  0.060468  0  1.002933  0
H  H23  1  0.49887866  0.32441006  0.70920003  1  0  0.046781  0  0.931804  0  0  0.06084  0  1.002206  0  0  0.061244  0  1.001327  0  0.050976  0  0.097519  0.060472  0  1.002923  0
H  H24  1  0.34400284  0.64567642  0.21648898  1  0  0.060168  0  0.934318  0  0  0.073304  0  0.999889  0  0  0.073761  0  0.999592  0  0.056448  0  0.104006  0.072899  0  1.000211  0
H  H25  1  0.65600242  0.35432514  0.78351794  1  0  0.060064  0  0.934289  0  0  0.073202  0  0.999872  0  0  0.073659  0  0.999575  0  0.056788  0  0.103957  0.072795  0  1.000201  0
H  H26  1  0.66278513  0.60291338  0.13051730  1  0  0.051917  0  0.958679  0  0  0.061286  0  1.034507  0  0  0.061669  0  1.033965  0  0.068325  0  0.094434  0.060914  0  1.035016  0
H  H27  1  0.33721709  0.39708548  0.86948339  1  0  0.051878  0  0.958825  0  0  0.061252  0  1.034607  0  0  0.061636  0  1.034067  0  0.068174  0  0.094428  0.06088  0  1.035117  0
H  H28  1  0.72200972  0.49229784  0.23591221  1  0  0.071362  0  0.93613  0  0  0.082417  0  1.002523  0  0  0.08248  0  1.003517  0  0.098518  0  0.106879  0.082269  0  1.001971  0
H  H29  1  0.27798843  0.50769742  0.76408549  1  0  0.071359  0  0.936129  0  0  0.082392  0  1.002538  0  0  0.082456  0  1.00353  0  0.098553  0  0.106875  0.082244  0  1.001984  0
H  H30  1  0.74018015  0.44956355  0.01237507  1  0  0.062914  0  0.943485  0  0  0.075182  0  1.012297  0  0  0.07539  0  1.012099  0  0.089018  0  0.104462  0.074883  0  1.012643  0
H  H31  1  0.25981050  0.55043890  0.98762170  1  0  0.062762  0  0.943565  0  0  0.075109  0  1.012296  0  0  0.075313  0  1.012098  0  0.089046  0  0.104455  0.074809  0  1.012642  0
H  H32  1  0.80840957  0.34406744  0.12092614  1  0  0.062058  0  0.934825  0  0  0.074522  0  1.000683  0  0  0.075251  0  0.999972  0  0.079977  0  0.106276  0.073872  0  1.001327  0
H  H33  1  0.19158425  0.65593322  0.87906600  1  0  0.062057  0  0.934808  0  0  0.074548  0  1.00067  0  0  0.07528  0  0.999952  0  0.079835  0  0.106247  0.073898  0  1.001314  0
H  H34  1  0.51305116  0.33347012  0.99434860  1  0  0.063974  0  0.944836  0  0  0.077389  0  1.011136  0  0  0.078357  0  1.01011  0  0.062735  0  0.104813  0.076548  0  1.012099  0
H  H35  1  0.48693819  0.66653234  0.00564981  1  0  0.063955  0  0.944845  0  0  0.077436  0  1.011085  0  0  0.07839  0  1.010072  0  0.062909  0  0.104827  0.076599  0  1.012048  0
H  H36  1  0.73965931  0.24760532  0.97879173  1  0  0.050425  0  0.962252  0  0  0.059924  0  1.03685  0  0  0.06018  0  1.036606  0  0.078447  0  0.091929  0.059683  0  1.037063  0
H  H37  1  0.26032844  0.75239803  0.02120369  1  0  0.050422  0  0.962243  0  0  0.059944  0  1.036846  0  0  0.060202  0  1.036597  0  0.078175  0  0.091926  0.059702  0  1.037066  0
H  H38  1  0.66314409  0.06325149  0.02920342  1  0  0.059158  0  0.908627  0  0  0.077119  0  0.965378  0  0  0.077338  0  0.964903  0  0.047482  0  0.104368  0.076842  0  0.965834  0
H  H39  1  0.33685365  0.93674917  0.97079823  1  0  0.059145  0  0.908578  0  0  0.077121  0  0.965335  0  0  0.077341  0  0.964855  0  0.047478  0  0.104372  0.076844  0  0.965791  0
H  H40  1  0.42817745  0.12826935  0.04572540  1  0  0.056595  0  0.920033  0  0  0.070902  0  0.985725  0  0  0.071583  0  0.984913  0  0.047805  0  0.102872  0.070282  0  0.986437  0
H  H41  1  0.57182115  0.87172861  0.95426966  1  0  0.056604  0  0.920076  0  0  0.070936  0  0.985753  0  0  0.071596  0  0.984965  0  0.048238  0  0.102906  0.070316  0  0.986464  0
H  H42  1  0.51247647  0.92907633  0.15329053  1  0  0.048521  0  0.926579  0  0  0.061921  0  0.994327  0  0  0.061982  0  0.994229  0  0.047323  0  0.095646  0.061759  0  0.994544  0
H  H43  1  0.48751939  0.07092612  0.84671108  1  0  0.048516  0  0.926624  0  0  0.061895  0  0.994383  0  0  0.061954  0  0.994285  0  0.047279  0  0.095632  0.061729  0  0.994601  0
H  H44  1  0.64864455  0.99309061  0.21774508  1  0  0.057567  0  0.927898  0  0  0.066491  0  1.000033  0  0  0.067689  0  0.998624  0  0.058588  0  0.098846  0.065553  0  1.001134  0
H  H45  1  0.35134841  0.00691274  0.78225593  1  0  0.057568  0  0.927926  0  0  0.066498  0  1.000038  0  0  0.067697  0  0.998626  0  0.058563  0  0.098849  0.065557  0  1.001137  0
H  H46  1  0.47775305  0.95755927  0.37500638  1  0  0.060804  0  0.922532  0  0  0.073248  0  0.990862  0  0  0.074307  0  0.989549  0  0.074511  0  0.102075  0.072344  0  0.992008  0
H  H47  1  0.52224122  0.04244409  0.62498843  1  0  0.060802  0  0.922424  0  0  0.073209  0  0.990841  0  0  0.074271  0  0.989538  0  0.07441  0  0.102049  0.072306  0  0.991985  0
H  H48  1  0.32334071  0.89871202  0.31954111  1  0  0.048858  0  0.915391  0  0  0.065855  0  0.976612  0  0  0.066069  0  0.975945  0  0.017803  0  0.099222  0.065598  0  0.977216  0
H  H49  1  0.67665428  0.10129313  0.68045493  1  0  0.048835  0  0.915417  0  0  0.065828  0  0.976671  0  0  0.066063  0  0.97599  0  0.017782  0  0.099175  0.065565  0  0.977281  0
H  H50  1  0.07843141  0.07223877  0.37789353  1  0  0.062671  0  0.943296  0  0  0.075111  0  1.007389  0  0  0.07554  0  1.006989  0  0.079421  0  0.10419  0.074717  0  1.007776  0
H  H51  1  0.92156285  0.92776458  0.62210584  1  0  0.062642  0  0.943286  0  0  0.075071  0  1.007389  0  0  0.075501  0  1.006985  0  0.079468  0  0.10419  0.074679  0  1.007774  0
H  H52  1  0.18283698  0.97504058  0.48127469  1  0  0.051833  0  0.985396  0  0  0.061519  0  1.060965  0  0  0.061325  0  1.062209  0  0.082527  0  0.089906  0.061555  0  1.060215  0
H  H53  1  0.81715958  0.02495559  0.51872458  1  0  0.051781  0  0.985407  0  0  0.061453  0  1.060998  0  0  0.061258  0  1.062242  0  0.082538  0  0.089881  0.061491  0  1.060245  0
C  C54  1  0.14252528  0.18546613  0.53580741  1  0  0.060252  0  3.656791  0  0  0.00059  0  3.925295  0  0  0.007068  0  3.931379  0  0.423041  0  -0.067884  -0.003804  0  3.921102  0
C  C55  1  0.85747520  0.81453004  0.46419225  1  0  0.06038  0  3.656769  0  0  0.000668  0  3.92532  0  0  0.007147  0  3.931408  0  0.423046  0  -0.067899  -0.003732  0  3.921134  0
C  C56  1  0.21229606  0.28634596  0.56486461  1  0  0.05258  0  3.675042  0  0  -0.00907  0  3.948784  0  0  -0.002595  0  3.954531  0  0.410621  0  -0.069261  -0.013427  0  3.94485  0
C  C57  1  0.78770441  0.71365020  0.43513657  1  0  0.052511  0  3.675205  0  0  -0.00909  0  3.948922  0  0  -0.002625  0  3.954683  0  0.410684  0  -0.06929  -0.013441  0  3.944989  0
C  C58  1  0.24795449  0.48524943  0.51167741  1  0  0.057422  0  3.627618  0  0  -0.001181  0  3.896098  0  0  0.00543  0  3.900954  0  0.35948  0  -0.067699  -0.00564  0  3.892799  0
C  C59  1  0.75205149  0.51474583  0.48832489  1  0  0.057212  0  3.627839  0  0  -0.001136  0  3.896119  0  0  0.005469  0  3.90099  0  0.358731  0  -0.06769  -0.005577  0  3.892778  0
C  C60  1  0.26509945  0.57473682  0.41769475  1  0  0.051944  0  3.657897  0  0  -0.008029  0  3.92666  0  0  -0.001527  0  3.932089  0  0.429702  0  -0.070579  -0.012466  0  3.923023  0
C  C61  1  0.73490131  0.42525845  0.58230955  1  0  0.051831  0  3.657904  0  0  -0.008265  0  3.926837  0  0  -0.00177  0  3.932277  0  0.429909  0  -0.07064  -0.012702  0  3.923199  0
C  C62  1  0.45756783  0.60414067  0.25985115  1  0  0.058078  0  3.6665  0  0  -0.003619  0  3.938423  0  0  0.003155  0  3.94391  0  0.401804  0  -0.069977  -0.008194  0  3.934641  0
C  C63  1  0.54243888  0.39585639  0.74015162  1  0  0.058231  0  3.66639  0  0  -0.003486  0  3.938327  0  0  0.003288  0  3.943813  0  0.401482  0  -0.069977  -0.008063  0  3.934544  0
C  C64  1  0.61222922  0.53810666  0.19107296  1  0  0.044808  0  3.658037  0  0  -0.011816  0  3.924825  0  0  -0.006009  0  3.931733  0  0.380883  0  -0.073597  -0.015703  0  3.920029  0
C  C65  1  0.38777443  0.46188771  0.80892891  1  0  0.044759  0  3.658324  0  0  -0.011757  0  3.924932  0  0  -0.005957  0  3.931857  0  0.380967  0  -0.073573  -0.015643  0  3.920128  0
C  C66  1  0.69607361  0.38674512  0.07693894  1  0  0.057787  0  3.637985  0  0  -3.1e-05  0  3.905459  0  0  0.006218  0  3.911569  0  0.380009  0  -0.069293  -0.004226  0  3.901268  0
C  C67  1  0.30391964  0.61325733  0.92305759  1  0  0.058036  0  3.63798  0  0  0.000112  0  3.905594  0  0  0.006369  0  3.911689  0  0.380375  0  -0.069202  -0.004081  0  3.901398  0
C  C68  1  0.63094063  0.29273041  0.03399544  1  0  0.051787  0  3.648919  0  0  -0.007831  0  3.91734  0  0  -0.001662  0  3.923169  0  0.388588  0  -0.07335  -0.011988  0  3.913319  0
C  C69  1  0.36904973  0.70727294  0.96599897  1  0  0.051706  0  3.649081  0  0  -0.008001  0  3.917655  0  0  -0.001829  0  3.923488  0  0.388514  0  -0.073432  -0.012169  0  3.913649  0
C  C70  1  0.54987935  0.10346291  0.08461850  1  0  0.060052  0  3.670227  0  0  0.000512  0  3.941492  0  0  0.00673  0  3.94817  0  0.431378  0  -0.06565  -0.003646  0  3.936834  0
C  C71  1  0.45012128  0.89653685  0.91537919  1  0  0.060142  0  3.670108  0  0  0.000548  0  3.94143  0  0  0.006781  0  3.948104  0  0.431097  0  -0.065618  -0.00361  0  3.936765  0
C  C72  1  0.52843753  0.01352450  0.17794903  1  0  0.057291  0  3.681028  0  0  -0.004727  0  3.95877  0  0  0.001664  0  3.964793  0  0.438424  0  -0.070445  -0.009073  0  3.954661  0
C  C73  1  0.47155544  0.98647885  0.82204969  1  0  0.057194  0  3.681097  0  0  -0.004756  0  3.958804  0  0  0.001645  0  3.964807  0  0.43846  0  -0.07046  -0.009087  0  3.954676  0
C  C74  1  0.35322178  0.98175027  0.33899316  1  0  0.069425  0  3.670533  0  0  0.008133  0  3.943899  0  0  0.014882  0  3.949432  0  0.433156  0  -0.066664  0.003549  0  3.940145  0
C  C75  1  0.64677220  0.01825398  0.66100309  1  0  0.069402  0  3.670441  0  0  0.008058  0  3.943914  0  0  0.014771  0  3.94948  0  0.433222  0  -0.066628  0.003478  0  3.940159  0
C  C76  1  0.20246032  0.04113683  0.41377860  1  0  0.037542  0  3.666095  0  0  -0.020208  0  3.930393  0  0  -0.01419  0  3.936892  0  0.371151  0  -0.076744  -0.024195  0  3.925785  0
C  C77  1  0.79753741  0.95886383  0.58622001  1  0  0.037702  0  3.665999  0  0  -0.019977  0  3.930221  0  0  -0.013952  0  3.936727  0  0.371117  0  -0.076695  -0.023963  0  3.925608  0
C  C78  1  0.81877942  0.25584688  0.34440718  1  0  0.29977  0  4.051209  0  0  0.287121  0  4.35272  0  0  0.308177  0  4.36418  0  0.547961  0  0.14653  0.272756  0  4.344659  0
C  C79  1  0.18122554  0.74414748  0.65559456  1  0  0.300038  0  4.051726  0  0  0.287381  0  4.353228  0  0  0.308432  0  4.36468  0  0.548547  0  0.146683  0.27302  0  4.345165  0
C  C80  1  0.00495466  0.64108978  0.16215916  1  0  0.280808  0  4.08552  0  0  0.268154  0  4.384907  0  0  0.288268  0  4.399028  0  0.540886  0  0.135232  0.254478  0  4.374997  0
C  C81  1  0.99504380  0.35891267  0.83785132  1  0  0.280624  0  4.085385  0  0  0.267975  0  4.384796  0  0  0.28809  0  4.398918  0  0.540839  0  0.135091  0.254298  0  4.374879  0
S  S82  1  0.64663019  0.20040300  0.39759288  1  0  -0.433259  0  2.068479  0  0  -0.408026  0  2.390451  0  0  -0.422808  0  2.381185  0  -0.031717  0  -0.167864  -0.397582  0  2.396665  0
S  S83  1  0.35338347  0.79959676  0.60239600  1  0  -0.433498  0  2.068242  0  0  -0.408282  0  2.390214  0  0  -0.423064  0  2.380941  0  -0.032115  0  -0.167977  -0.397828  0  2.396433  0
S  S84  1  0.90605273  0.77632578  0.12044186  1  0  -0.419222  0  1.997419  0  0  -0.388912  0  2.263644  0  0  -0.404357  0  2.256133  0  -0.010774  0  -0.184915  -0.37795  0  2.268613  0
S  S85  1  0.09395139  0.22367937  0.87956169  1  0  -0.419155  0  1.997572  0  0  -0.388852  0  2.263805  0  0  -0.404296  0  2.256296  0  -0.010806  0  -0.184865  -0.377892  0  2.268774  0
N  N86  1  0.94674625  0.29446623  0.30843117  1  0  -0.602966  0  2.73933  0  0  -0.559043  0  2.99697  0  0  -0.576023  0  3.001882  0  -1.325838  0  -0.443481  -0.547376  0  2.993643  0
N  N87  1  0.05328116  0.70553532  0.69156458  1  0  -0.602996  0  2.740119  0  0  -0.559095  0  2.997763  0  0  -0.576068  0  3.002666  0  -1.326024  0  -0.443499  -0.547424  0  2.994442  0
N  N88  1  0.07807434  0.54245160  0.19240830  1  0  -0.59904  0  2.7458  0  0  -0.553521  0  3.002403  0  0  -0.571057  0  3.008878  0  -1.341762  0  -0.427279  -0.541414  0  2.997981  0
N  N89  1  0.92192182  0.45755804  0.80759773  1  0  -0.598927  0  2.745528  0  0  -0.553389  0  3.002083  0  0  -0.570926  0  3.008558  0  -1.341628  0  -0.42718  -0.541274  0  2.997661  0
O  O90  1  0.25344043  0.14137067  0.44569000  1  0  -0.334328  0  2.301128  0  0  -0.251192  0  2.546958  0  0  -0.269103  0  2.550339  0  -1.059646  0  -0.249892  -0.23851  0  2.544235  0
O  O91  1  0.74656569  0.85862819  0.55430881  1  0  -0.334424  0  2.301225  0  0  -0.251263  0  2.547039  0  0  -0.269174  0  2.550417  0  -1.059627  0  -0.249896  -0.238576  0  2.544314  0
O  O92  1  0.19530265  0.38343340  0.48361935  1  0  -0.344184  0  2.2774  0  0  -0.263276  0  2.527751  0  0  -0.281284  0  2.531433  0  -1.069266  0  -0.248428  -0.250554  0  2.52485  0
O  O93  1  0.80469696  0.61656546  0.51638310  1  0  -0.344098  0  2.277491  0  0  -0.26324  0  2.527741  0  0  -0.281243  0  2.531427  0  -1.068929  0  -0.248414  -0.250525  0  2.524848  0
O  O94  1  0.40494516  0.51991377  0.34313796  1  0  -0.349617  0  2.31567  0  0  -0.269054  0  2.567138  0  0  -0.287237  0  2.571262  0  -1.064624  0  -0.249962  -0.256176  0  2.563911  0
O  O95  1  0.59505966  0.48008509  0.65686477  1  0  -0.349562  0  2.315587  0  0  -0.268987  0  2.567093  0  0  -0.287163  0  2.571217  0  -1.064779  0  -0.249925  -0.256103  0  2.563861  0
O  O96  1  0.55266937  0.45126254  0.14447886  1  0  -0.341388  0  2.260323  0  0  -0.261496  0  2.509101  0  0  -0.278999  0  2.511938  0  -1.067506  0  -0.254321  -0.249146  0  2.506763  0
O  O97  1  0.44732445  0.54873812  0.85551936  1  0  -0.341363  0  2.260365  0  0  -0.261508  0  2.509168  0  0  -0.279015  0  2.512007  0  -1.067571  0  -0.254302  -0.249151  0  2.506836  0
O  O98  1  0.58521575  0.20717468  0.11839918  1  0  -0.338583  0  2.300904  0  0  -0.257314  0  2.54703  0  0  -0.274932  0  2.550152  0  -1.063727  0  -0.250299  -0.244829  0  2.544411  0
O  O99  1  0.41477938  0.79282597  0.88159511  1  0  -0.338604  0  2.300905  0  0  -0.257331  0  2.547084  0  0  -0.274947  0  2.550195  0  -1.063816  0  -0.250352  -0.244836  0  2.544466  0
O  O100  1  0.37529431  0.06241413  0.24701018  1  0  -0.337837  0  2.275662  0  0  -0.256295  0  2.520747  0  0  -0.273519  0  2.522659  0  -1.076651  0  -0.246314  -0.244074  0  2.518983  0
O  O101  1  0.62470546  0.93758833  0.75298802  1  0  -0.337721  0  2.275632  0  0  -0.256203  0  2.520736  0  0  -0.273425  0  2.522656  0  -1.076555  0  -0.246255  -0.243978  0  2.518962  0
O  O102  1  0.18920580  0.34283924  0.07155870  1  0  -0.839202  0  1.871194  0  0  -0.787378  0  2.050392  0  0  -0.805379  0  2.021834  0  -1.24213  0  -0.612695  -0.774582  0  2.069811  0
O  O103  1  0.81078787  0.65715782  0.92844528  1  0  -0.839265  0  1.871247  0  0  -0.787459  0  2.050372  0  0  -0.805459  0  2.021806  0  -1.242093  0  -0.612749  -0.774656  0  2.069853  0
