# generated using pymatgen
data_NiH14C6(NO5)2
_symmetry_space_group_name_H-M   'P 1'
_cell_length_a   4.96028643
_cell_length_b   5.33958435
_cell_length_c   11.67007715
_cell_angle_alpha   95.37760937
_cell_angle_beta   80.16779213
_cell_angle_gamma   95.23119441
_symmetry_Int_Tables_number   1
_chemical_formula_structural   NiH14C6(NO5)2
_chemical_formula_sum   'Ni1 H14 C6 N2 O10'
_cell_volume   302.32022291
_cell_formula_units_Z   1
loop_
 _symmetry_equiv_pos_site_id
 _symmetry_equiv_pos_as_xyz
  1  'x, y, z'
loop_
 _atom_site_type_symbol
 _atom_site_label
 _atom_site_symmetry_multiplicity
 _atom_site_fract_x
 _atom_site_fract_y
 _atom_site_fract_z
 _atom_site_occupancy
 _atom_site_hle17_ddec_charge
 _atom_site_hle17_ddec_spin_density
 _atom_site_hle17_ddec_sum_bond_order
 _atom_site_hle17_magmom
 _atom_site_hse06_10hf_ddec_charge
 _atom_site_hse06_10hf_ddec_spin_density
 _atom_site_hse06_10hf_ddec_sum_bond_order
 _atom_site_hse06_10hf_magmom
 _atom_site_hse06_ddec_charge
 _atom_site_hse06_ddec_spin_density
 _atom_site_hse06_ddec_sum_bond_order
 _atom_site_hse06_magmom
 _atom_site_pbe_cm5_charge
 _atom_site_pbe_ddec_charge
 _atom_site_pbe_ddec_spin_density
 _atom_site_pbe_ddec_sum_bond_order
 _atom_site_pbe_magmom
Ni  Ni0  1  0.99997211  0.50001236  0.00000626  1  1.060508  1.777812  1.742308  1.562  1.068973  1.841323  2.123763  1.682  1.146301  1.885259  2.062212  1.756  0.617597  1.001633  1.799904  2.179278  1.616
H  H1  1  0.79491813  0.45449950  0.63737278  1  0.101465  -0.000365  0.927055  0.0  0.11203  -0.00013  0.992438  0.0  0.113662  -9.6e-05  0.991001  0.0  0.112207  0.110756  -0.000148  0.993695  0.0
H  H2  1  0.20519072  0.54547515  0.36260349  1  0.101369  -0.00036  0.926851  0.0  0.11197  -0.00013  0.992343  0.0  0.113614  -9.6e-05  0.990893  0.0  0.112077  0.110686  -0.000148  0.993594  0.0
H  H3  1  0.48007817  0.58502945  0.69633289  1  0.107449  -0.000717  0.911644  0.0  0.124297  -0.000286  0.965878  0.0  0.126856  -0.000219  0.963478  0.0  0.122391  0.122356  -0.000335  0.967896  0.0
H  H4  1  0.51999115  0.41490756  0.30363742  1  0.107383  -0.00071  0.911845  0.0  0.124323  -0.000286  0.966041  0.0  0.126878  -0.000218  0.963658  0.0  0.122452  0.122369  -0.000335  0.968054  0.0
H  H5  1  0.52002272  0.63052611  0.13068203  1  0.439398  4.9e-05  0.852779  0.0  0.410223  0.000389  0.916789  0.0  0.42143  0.000212  0.900885  0.0  0.301555  0.401941  0.000564  0.928489  0.001
H  H6  1  0.47993168  0.36953180  0.86933386  1  0.439266  4.7e-05  0.853098  0.0  0.410083  0.000389  0.917003  0.0  0.421289  0.000212  0.901099  0.0  0.301491  0.401802  0.000564  0.928695  0.001
H  H7  1  0.57945318  0.88378790  0.56864408  1  0.302365  5.6e-05  0.937732  0.0  0.278296  4.8e-05  1.01241  0.0  0.287337  2.9e-05  1.004646  0.0  0.306026  0.271913  7.1e-05  1.017924  0.0
H  H8  1  0.42057200  0.11619199  0.43135562  1  0.302395  5.7e-05  0.93781  0.0  0.278366  4.8e-05  1.012433  0.0  0.287406  2.9e-05  1.004668  0.0  0.306082  0.271984  7.1e-05  1.017948  0.0
H  H9  1  0.78129227  0.07783680  0.94039663  1  0.420146  -0.000757  0.883454  -0.001  0.392612  -0.000103  0.94926  0.0  0.403836  -0.000223  0.933189  0.0  0.296942  0.384469  2.6e-05  0.96088  0.0
H  H10  1  0.21865594  0.92221699  0.05961968  1  0.420035  -0.000758  0.88337  -0.001  0.392463  -0.000103  0.949427  0.0  0.403688  -0.000223  0.933354  0.0  0.296891  0.38432  2.5e-05  0.961048  0.0
H  H11  1  0.77011404  0.06218672  0.07325671  1  0.421914  -0.000339  0.859718  0.0  0.39637  0.000277  0.931857  0.001  0.407171  0.000136  0.916073  0.0  0.301329  0.388305  0.000419  0.941587  0.001
H  H12  1  0.22987081  0.93784624  0.92675328  1  0.421676  -0.000339  0.86012  0.0  0.39618  0.000278  0.932124  0.001  0.40698  0.000138  0.916343  0.0  0.30128  0.388118  0.000421  0.94188  0.001
H  H13  1  0.78057806  0.75629413  0.18997810  1  0.434195  -0.000505  0.813188  -0.001  0.413379  0.000117  0.87381  0.0  0.422674  -1.5e-05  0.863389  0.0  0.322085  0.406355  0.000256  0.881511  0.0
H  H14  1  0.21938452  0.24373442  0.81004898  1  0.43411  -0.000509  0.813337  -0.001  0.413306  0.000117  0.873941  0.0  0.422604  -1.5e-05  0.863512  0.0  0.322028  0.406282  0.000257  0.881649  0.0
C  C15  1  0.81145912  0.70987238  0.79009191  1  0.689363  -0.00452  3.829246  -0.004  0.64169  -0.000628  4.140194  0.0  0.676056  -0.000581  4.132222  0.0  0.220508  0.617526  -0.000561  4.144811  0.0
C  C16  1  0.18851694  0.29010535  0.20991658  1  0.689276  -0.004527  3.828668  -0.004  0.641546  -0.000627  4.139835  0.0  0.675926  -0.000579  4.131856  0.0  0.220538  0.617365  -0.000561  4.14445  0.0
C  C17  1  0.99911448  0.89838611  0.54247644  1  0.438069  0.00039  3.874595  0.0  0.392123  0.000402  4.169209  0.0  0.417785  0.000226  4.167199  0.0  0.239003  0.374841  0.000654  4.17011  0.001
C  C18  1  0.00093949  0.10160637  0.45751865  1  0.437766  0.000382  3.874735  0.0  0.392027  0.000401  4.169139  0.0  0.417689  0.000225  4.167126  0.0  0.23886  0.374743  0.000654  4.170042  0.001
C  C19  1  0.70277561  0.62910704  0.67552765  1  -0.096497  0.005074  3.654228  0.007  -0.156364  0.002653  3.912246  0.003  -0.155395  0.001771  3.918014  0.002  -0.059318  -0.156966  0.003582  3.908717  0.004
C  C20  1  0.29728796  0.37084823  0.32445354  1  -0.095974  0.005068  3.653861  0.007  -0.156079  0.002652  3.91225  0.003  -0.155131  0.001767  3.918038  0.002  -0.059176  -0.156633  0.003581  3.908659  0.004
N  N21  1  0.74836372  0.81814499  0.59264423  1  -0.357766  0.000872  3.396335  0.001  -0.303468  0.000424  3.643851  0.001  -0.323745  0.000262  3.653668  0.0  -0.409248  -0.28958  0.000691  3.636913  0.001
N  N22  1  0.25168542  0.18181415  0.40733291  1  -0.357831  0.000868  3.396578  0.001  -0.303652  0.000425  3.644206  0.001  -0.323916  0.000262  3.654019  0.0  -0.409304  -0.289778  0.000692  3.637254  0.001
O  O23  1  0.21592484  0.81783209  0.56002760  1  -0.543006  0.000668  1.993728  0.001  -0.502592  0.000433  2.2231  0.001  -0.522065  0.000236  2.215848  0.0  -0.301731  -0.489146  0.000706  2.227869  0.001
O  O24  1  0.78411230  0.18214940  0.43995404  1  -0.543017  0.000673  1.993631  0.001  -0.502584  0.000433  2.222842  0.001  -0.52205  0.000235  2.215576  0.0  -0.30167  -0.489138  0.000705  2.227612  0.001
O  O25  1  0.90025260  0.93389776  0.81071942  1  -0.623345  -0.000431  2.014307  0.001  -0.571802  -0.000459  2.241927  0.0  -0.595837  -0.000761  2.231324  0.0  -0.313662  -0.554961  -1.6e-05  2.248988  0.001
O  O26  1  0.09969907  0.06608020  0.18930118  1  -0.623298  -0.000435  2.014341  0.001  -0.571611  -0.000461  2.241961  0.0  -0.59565  -0.000762  2.231353  0.0  -0.313623  -0.554775  -1.8e-05  2.249023  0.001
O  O27  1  0.71351851  0.70873084  0.11645554  1  -0.812836  0.031636  1.978535  0.055  -0.776978  0.024097  2.193453  0.041  -0.804011  0.018178  2.162738  0.033  -0.552599  -0.75536  0.029522  2.215631  0.048
O  O28  1  0.28643380  0.29130574  0.88356807  1  -0.812527  0.031648  1.978963  0.055  -0.776717  0.024103  2.193882  0.041  -0.803777  0.018183  2.163225  0.033  -0.552438  -0.755098  0.029527  2.216063  0.048
O  O29  1  0.79612948  0.52920468  0.85727755  1  -0.653202  0.040061  2.081891  0.072  -0.613097  0.025302  2.346578  0.046  -0.64942  0.018182  2.336135  0.035  -0.316097  -0.584519  0.031892  2.352701  0.055
O  O30  1  0.20381768  0.47079090  0.14271603  1  -0.653283  0.040079  2.0812  0.072  -0.613205  0.02531  2.345951  0.046  -0.64955  0.018189  2.335511  0.035  -0.316169  -0.58463  0.031904  2.352091  0.055
O  O31  1  0.74419103  0.18047271  0.01702435  1  -0.797917  0.039923  1.979398  0.07  -0.77124  0.026802  2.204633  0.047  -0.799507  0.020033  2.171016  0.037  -0.578193  -0.748778  0.032726  2.227012  0.054
O  O32  1  0.25574254  0.81957296  0.98298353  1  -0.797644  0.039912  1.979647  0.07  -0.770866  0.026792  2.20484  0.047  -0.799129  0.020025  2.171227  0.037  -0.578114  -0.748406  0.032712  2.227249  0.054
