# generated using pymatgen
data_ZnP2H14(CO)8
_symmetry_space_group_name_H-M   'P 1'
_cell_length_a   7.43586113
_cell_length_b   7.67439728
_cell_length_c   22.46100000
_cell_angle_alpha   90.00000000
_cell_angle_beta   90.00000000
_cell_angle_gamma   90.00000000
_symmetry_Int_Tables_number   1
_chemical_formula_structural   ZnP2H14(CO)8
_chemical_formula_sum   'Zn4 P8 H56 C32 O32'
_cell_volume   1281.75386517
_cell_formula_units_Z   4
loop_
 _symmetry_equiv_pos_site_id
 _symmetry_equiv_pos_as_xyz
  1  'x, y, z'
loop_
 _atom_site_type_symbol
 _atom_site_label
 _atom_site_symmetry_multiplicity
 _atom_site_fract_x
 _atom_site_fract_y
 _atom_site_fract_z
 _atom_site_occupancy
 _atom_site_hle17_bader_spin_density
 _atom_site_hle17_ddec_charge
 _atom_site_hle17_ddec_spin_density
 _atom_site_hle17_ddec_sum_bond_order
 _atom_site_hle17_magmom
 _atom_site_hse06_10hf_bader_spin_density
 _atom_site_hse06_10hf_ddec_charge
 _atom_site_hse06_10hf_ddec_spin_density
 _atom_site_hse06_10hf_ddec_sum_bond_order
 _atom_site_hse06_10hf_magmom
 _atom_site_hse06_bader_spin_density
 _atom_site_hse06_ddec_charge
 _atom_site_hse06_ddec_spin_density
 _atom_site_hse06_ddec_sum_bond_order
 _atom_site_hse06_magmom
 _atom_site_pbe_bader_charge
 _atom_site_pbe_bader_spin_density
 _atom_site_pbe_cm5_charge
 _atom_site_pbe_ddec_charge
 _atom_site_pbe_ddec_spin_density
 _atom_site_pbe_ddec_sum_bond_order
 _atom_site_pbe_magmom
Zn  Zn0  1  0.83175975  0.92291156  0.24999911  1  0  1.277487  0  1.730919  0  0  1.110855  0  2.215444  0  0  1.154549  0  2.148634  0  1.357718  0  0.721206  1.079792  0  2.261922  0
Zn  Zn1  1  0.66822388  0.42289705  0.75000223  1  0  1.277511  0  1.731064  0  0  1.110831  0  2.215596  0  0  1.154538  0  2.148761  0  1.357954  0  0.721237  1.079748  0  2.262109  0
Zn  Zn2  1  0.16821455  0.07709140  0.75000223  1  0  1.277527  0  1.731133  0  0  1.110792  0  2.215724  0  0  1.154491  0  2.148887  0  1.358076  0  0.72118  1.079727  0  2.262206  0
Zn  Zn3  1  0.33177865  0.57709679  0.25000089  1  0  1.277498  0  1.731171  0  0  1.110766  0  2.215747  0  0  1.154476  0  2.148902  0  1.35798  0  0.721201  1.079688  0  2.262252  0
P  P4  1  0.04926128  0.07819376  0.36156449  1  0  1.493594  0  4.792707  0  0  1.325027  0  5.288604  0  0  1.37568  0  5.249249  0  3.372354  0  0.380225  1.289805  0  5.315328  0
P  P5  1  0.45072117  0.57818612  0.63844397  1  0  1.493632  0  4.792849  0  0  1.325005  0  5.288814  0  0  1.37566  0  5.249466  0  3.372168  0  0.380306  1.289797  0  5.315531  0
P  P6  1  0.95072244  0.92178314  0.86156315  1  0  1.493609  0  4.792928  0  0  1.325002  0  5.288867  0  0  1.375654  0  5.249502  0  3.372287  0  0.380218  1.289781  0  5.315596  0
P  P7  1  0.54927734  0.42180772  0.13844174  1  0  1.493256  0  4.792814  0  0  1.324707  0  5.28873  0  0  1.37534  0  5.24939  0  3.371673  0  0.380182  1.289509  0  5.315457  0
P  P8  1  0.95073588  0.92180529  0.63842705  1  0  1.493747  0  4.791542  0  0  1.325222  0  5.287441  0  0  1.375792  0  5.248082  0  3.372429  0  0.38044  1.290015  0  5.314179  0
P  P9  1  0.54926792  0.42181293  0.36156850  1  0  1.493586  0  4.791731  0  0  1.325067  0  5.287645  0  0  1.375649  0  5.248301  0  3.372186  0  0.380375  1.289864  0  5.314371  0
P  P10  1  0.04927472  0.07821201  0.13843462  1  0  1.493592  0  4.792654  0  0  1.324986  0  5.288625  0  0  1.375602  0  5.249263  0  3.372075  0  0.380163  1.289784  0  5.315367  0
P  P11  1  0.45072386  0.57819394  0.86156716  1  0  1.493681  0  4.792124  0  0  1.325107  0  5.288047  0  0  1.375736  0  5.248696  0  3.371956  0  0.38032  1.289909  0  5.314776  0
H  H12  1  0.58413140  0.14063906  0.28676417  1  0  0.439991  0  0.860122  0  0  0.406226  0  0.926665  0  0  0.417053  0  0.910944  0  0.668788  0  0.29524  0.398586  0  0.937754  0
H  H13  1  0.91585492  0.64062620  0.71323360  1  0  0.440037  0  0.860047  0  0  0.406245  0  0.926649  0  0  0.417074  0  0.910919  0  0.668826  0  0.295255  0.398606  0  0.937736  0
H  H14  1  0.41584289  0.85936260  0.78676417  1  0  0.440075  0  0.859999  0  0  0.40628  0  0.926599  0  0  0.417109  0  0.910871  0  0.668826  0  0.295294  0.398641  0  0.937688  0
H  H15  1  0.08415434  0.35936763  0.21323494  1  0  0.440072  0  0.860023  0  0  0.406265  0  0.926649  0  0  0.417095  0  0.910918  0  0.668839  0  0.295261  0.398625  0  0.937739  0
H  H16  1  0.41585096  0.85935869  0.71323717  1  0  0.440064  0  0.86001  0  0  0.406252  0  0.926638  0  0  0.417086  0  0.910905  0  0.668855  0  0.29526  0.398612  0  0.937727  0
H  H17  1  0.08414493  0.35935851  0.28676372  1  0  0.440082  0  0.859983  0  0  0.406267  0  0.926621  0  0  0.417101  0  0.910885  0  0.668844  0  0.295231  0.398627  0  0.937711  0
H  H18  1  0.58412602  0.14064036  0.21323583  1  0  0.44003  0  0.860066  0  0  0.406256  0  0.926624  0  0  0.417088  0  0.910895  0  0.668839  0  0.295261  0.398615  0  0.937715  0
H  H19  1  0.91585895  0.64062360  0.78675972  1  0  0.440102  0  0.85994  0  0  0.406288  0  0.926584  0  0  0.417124  0  0.910845  0  0.668944  0  0.295278  0.398649  0  0.937673  0
H  H20  1  0.76550112  0.60558632  0.28567606  1  0  0.443734  0  0.853903  0  0  0.412039  0  0.916816  0  0  0.422383  0  0.901807  0  0.661672  0  0.30545  0.404768  0  0.927354  0
H  H21  1  0.73450269  0.10557572  0.71432216  1  0  0.443838  0  0.853758  0  0  0.412151  0  0.916662  0  0  0.422489  0  0.901657  0  0.661615  0  0.305495  0.40488  0  0.927199  0
H  H22  1  0.23448797  0.39441925  0.78567606  1  0  0.443751  0  0.85388  0  0  0.412075  0  0.91676  0  0  0.422424  0  0.901741  0  0.66166  0  0.305498  0.404806  0  0.927295  0
H  H23  1  0.26549178  0.89442073  0.21432305  1  0  0.443671  0  0.853987  0  0  0.411993  0  0.916859  0  0  0.422333  0  0.901857  0  0.661605  0  0.305453  0.404723  0  0.927394  0
H  H24  1  0.23447990  0.39441794  0.71432483  1  0  0.443826  0  0.853777  0  0  0.412146  0  0.916658  0  0  0.422501  0  0.90163  0  0.661655  0  0.305543  0.404877  0  0.927193  0
H  H25  1  0.26549312  0.89442985  0.28567473  1  0  0.443764  0  0.85387  0  0  0.412059  0  0.916794  0  0  0.422413  0  0.901772  0  0.661677  0  0.305465  0.404788  0  0.927331  0
H  H26  1  0.76549843  0.60557459  0.21432483  1  0  0.443718  0  0.853938  0  0  0.412033  0  0.916833  0  0  0.422381  0  0.901819  0  0.661672  0  0.305462  0.40476  0  0.927372  0
H  H27  1  0.73450269  0.10556399  0.78567294  1  0  0.443685  0  0.853964  0  0  0.411995  0  0.916868  0  0  0.422348  0  0.901846  0  0.661687  0  0.305453  0.404727  0  0.927401  0
H  H28  1  0.35285221  0.12460132  0.34907351  1  0  0.453661  0  0.847184  0  0  0.415024  0  0.920993  0  0  0.427348  0  0.903479  0  0.672494  0  0.310051  0.406469  0  0.933109  0
H  H29  1  0.14715175  0.62458455  0.65092293  1  0  0.453663  0  0.847203  0  0  0.415064  0  0.920935  0  0  0.427388  0  0.903418  0  0.672593  0  0.310087  0.406512  0  0.933046  0
H  H30  1  0.64714630  0.87540816  0.84907261  1  0  0.453604  0  0.847267  0  0  0.414976  0  0.921059  0  0  0.427297  0  0.903547  0  0.672638  0  0.310053  0.406417  0  0.933179  0
H  H31  1  0.85285751  0.37542492  0.15092783  1  0  0.453582  0  0.847329  0  0  0.414993  0  0.921054  0  0  0.427305  0  0.903555  0  0.672589  0  0.31002  0.406438  0  0.93317  0
H  H32  1  0.64716109  0.87541337  0.65092694  1  0  0.453594  0  0.847302  0  0  0.414966  0  0.921079  0  0  0.427277  0  0.903585  0  0.672317  0  0.310021  0.406406  0  0.933201  0
H  H33  1  0.85284003  0.37541580  0.34907217  1  0  0.45356  0  0.84738  0  0  0.414943  0  0.921141  0  0  0.427255  0  0.903644  0  0.672572  0  0.310015  0.406382  0  0.933265  0
H  H34  1  0.35283472  0.12458047  0.15092739  1  0  0.453683  0  0.847227  0  0  0.415051  0  0.921003  0  0  0.427371  0  0.903495  0  0.672324  0  0.310087  0.406493  0  0.933122  0
H  H35  1  0.14715041  0.62457022  0.84907751  1  0  0.453602  0  0.847289  0  0  0.414995  0  0.921033  0  0  0.427316  0  0.903523  0  0.672513  0  0.310062  0.406437  0  0.933152  0
H  H36  1  0.17481634  0.72838293  0.38620186  1  0  0.122434  0  0.962454  0  0  0.143104  0  1.021381  0  0  0.144681  0  1.021108  0  0.050033  0  0.09379  0.141865  0  1.021671  0
H  H37  1  0.32520107  0.22838015  0.61379013  1  0  0.122534  0  0.962502  0  0  0.143212  0  1.021357  0  0  0.144796  0  1.021089  0  0.049681  0  0.093867  0.14198  0  1.021658  0
H  H38  1  0.82520637  0.27157442  0.88619563  1  0  0.122595  0  0.962484  0  0  0.143279  0  1.021359  0  0  0.144862  0  1.021093  0  0.050023  0  0.093852  0.14204  0  1.021664  0
H  H39  1  0.67478667  0.77163063  0.11379947  1  0  0.122587  0  0.96242  0  0  0.143234  0  1.02133  0  0  0.144812  0  1.02106  0  0.050309  0  0.093829  0.141995  0  1.021634  0
H  H40  1  0.82519024  0.27161221  0.61379013  1  0  0.122439  0  0.962464  0  0  0.143116  0  1.02134  0  0  0.144692  0  1.021078  0  0.049667  0  0.09383  0.141885  0  1.021638  0
H  H41  1  0.67479878  0.77162802  0.38621299  1  0  0.122488  0  0.962546  0  0  0.143129  0  1.021439  0  0  0.144711  0  1.021175  0  0.049765  0  0.093824  0.141897  0  1.02174  0
H  H42  1  0.17478003  0.72841681  0.11379458  1  0  0.122611  0  0.962692  0  0  0.143298  0  1.021517  0  0  0.144875  0  1.021254  0  0.04989  0  0.093878  0.142063  0  1.021823  0
H  H43  1  0.32520914  0.22839970  0.88621522  1  0  0.12253  0  0.962515  0  0  0.14315  0  1.021433  0  0  0.144731  0  1.02117  0  0.049737  0  0.093875  0.141919  0  1.021735  0
H  H44  1  0.95830730  0.65053187  0.40371221  1  0  0.124437  0  0.955746  0  0  0.144699  0  1.017684  0  0  0.14604  0  1.017565  0  0.057657  0  0.09347  0.143661  0  1.017827  0
H  H45  1  0.54168709  0.15054472  0.59628155  1  0  0.124481  0  0.955757  0  0  0.144717  0  1.017716  0  0  0.146054  0  1.017599  0  0.057656  0  0.093456  0.143681  0  1.01786  0
H  H46  1  0.04168582  0.34942288  0.90370375  1  0  0.124425  0  0.95588  0  0  0.14473  0  1.017729  0  0  0.14607  0  1.017609  0  0.057486  0  0.093483  0.143699  0  1.017865  0
H  H47  1  0.45831141  0.84946475  0.09628289  1  0  0.124482  0  0.955745  0  0  0.144742  0  1.017682  0  0  0.146082  0  1.017562  0  0.057672  0  0.093463  0.143707  0  1.017823  0
H  H48  1  0.04169793  0.34944243  0.59628245  1  0  0.124494  0  0.955643  0  0  0.144711  0  1.01763  0  0  0.146052  0  1.017504  0  0.057474  0  0.093439  0.143677  0  1.01777  0
H  H49  1  0.45831948  0.84946606  0.40372512  1  0  0.124549  0  0.955771  0  0  0.144746  0  1.017776  0  0  0.146087  0  1.017649  0  0.057822  0  0.093451  0.143711  0  1.017917  0
H  H50  1  0.95830461  0.65058269  0.09629090  1  0  0.12452  0  0.955828  0  0  0.144749  0  1.017755  0  0  0.146088  0  1.017634  0  0.057518  0  0.093463  0.143719  0  1.01789  0
H  H51  1  0.54168306  0.15056296  0.90372468  1  0  0.124524  0  0.955726  0  0  0.144697  0  1.017736  0  0  0.146032  0  1.01761  0  0.057619  0  0.093464  0.143668  0  1.017869  0
H  H52  1  0.14343463  0.59658235  0.45006456  1  0  0.110198  0  0.951373  0  0  0.131113  0  1.013002  0  0  0.132142  0  1.013859  0  0.031014  0  0.089654  0.130337  0  1.012439  0
H  H53  1  0.35657874  0.09659912  0.54993099  1  0  0.110275  0  0.951538  0  0  0.131202  0  1.013107  0  0  0.132232  0  1.013961  0  0.031054  0  0.089697  0.130427  0  1.012546  0
H  H54  1  0.85657867  0.40338151  0.95004630  1  0  0.110324  0  0.951435  0  0  0.131169  0  1.013131  0  0  0.132199  0  1.013983  0  0.030626  0  0.089646  0.130396  0  1.012572  0
H  H55  1  0.64342783  0.90341036  0.04994168  1  0  0.110284  0  0.951482  0  0  0.13118  0  1.013097  0  0  0.132206  0  1.013949  0  0.03105  0  0.089628  0.130405  0  1.012535  0
H  H56  1  0.85658404  0.40340106  0.54992832  1  0  0.110246  0  0.951499  0  0  0.13119  0  1.01306  0  0  0.132222  0  1.013913  0  0.031154  0  0.089725  0.130414  0  1.012499  0
H  H57  1  0.64342111  0.90339993  0.45007168  1  0  0.110288  0  0.951699  0  0  0.131267  0  1.013184  0  0  0.132296  0  1.014036  0  0.031015  0  0.089745  0.130492  0  1.012624  0
H  H58  1  0.14340236  0.59661493  0.04994702  1  0  0.110388  0  0.951379  0  0  0.131224  0  1.013062  0  0  0.132254  0  1.013912  0  0.031517  0  0.089648  0.13045  0  1.012505  0
H  H59  1  0.35657740  0.09662127  0.95007257  1  0  0.110324  0  0.951511  0  0  0.131261  0  1.013039  0  0  0.132289  0  1.013891  0  0.031285  0  0.089751  0.130485  0  1.012481  0
H  H60  1  0.96882659  0.29743052  0.45935533  1  0  0.097007  0  0.960495  0  0  0.106927  0  1.02415  0  0  0.109838  0  1.023215  0  0.086981  0  0.103412  0.104862  0  1.024854  0
H  H61  1  0.53116780  0.79743852  0.54064645  1  0  0.096996  0  0.960447  0  0  0.106962  0  1.024063  0  0  0.109875  0  1.023121  0  0.086891  0  0.103389  0.104897  0  1.024768  0
H  H62  1  0.03114501  0.70254377  0.95936557  1  0  0.09699  0  0.960476  0  0  0.106922  0  1.024112  0  0  0.109828  0  1.023182  0  0.086848  0  0.10342  0.104857  0  1.024816  0
H  H63  1  0.46886567  0.20255402  0.04064512  1  0  0.09699  0  0.960526  0  0  0.106962  0  1.024135  0  0  0.109874  0  1.023199  0  0.086931  0  0.103394  0.104896  0  1.024836  0
H  H64  1  0.03117191  0.70255810  0.54063799  1  0  0.097112  0  0.960401  0  0  0.107032  0  1.024048  0  0  0.109941  0  1.023116  0  0.087099  0  0.103437  0.104967  0  1.024751  0
H  H65  1  0.46884146  0.20256444  0.45935889  1  0  0.096999  0  0.960559  0  0  0.106962  0  1.024141  0  0  0.109871  0  1.023208  0  0.087056  0  0.103423  0.104896  0  1.024846  0
H  H66  1  0.96884273  0.29745268  0.04063043  1  0  0.097168  0  0.960398  0  0  0.107067  0  1.02405  0  0  0.109974  0  1.023119  0  0.086948  0  0.103477  0.105003  0  1.024754  0
H  H67  1  0.53117856  0.79744764  0.95936379  1  0  0.097203  0  0.960363  0  0  0.107082  0  1.024057  0  0  0.10999  0  1.023124  0  0.087013  0  0.103444  0.105017  0  1.024761  0
C  C68  1  0.08342141  0.70095928  0.42323316  1  0  -0.3443  0  3.692553  0  0  -0.424537  0  3.928647  0  0  -0.427079  0  3.937878  0  -0.041582  0  -0.244962  -0.42241  0  3.922271  0
C  C69  1  0.41657583  0.20094607  0.57676417  1  0  -0.344638  0  3.692957  0  0  -0.424736  0  3.929201  0  0  -0.427286  0  3.938433  0  -0.041237  0  -0.245114  -0.422626  0  3.922838  0
C  C70  1  0.91658382  0.29903716  0.92321980  1  0  -0.344515  0  3.692686  0  0  -0.424714  0  3.92879  0  0  -0.427264  0  3.938021  0  -0.041365  0  -0.245012  -0.4226  0  3.922426  0
C  C71  1  0.58342402  0.79905819  0.07676862  1  0  -0.344598  0  3.692897  0  0  -0.42476  0  3.929025  0  0  -0.4273  0  3.93825  0  -0.042184  0  -0.24495  -0.42264  0  3.922653  0
C  C72  1  0.91657844  0.29903456  0.57676105  1  0  -0.344384  0  3.692601  0  0  -0.42451  0  3.928757  0  0  -0.427057  0  3.937997  0  -0.040991  0  -0.244983  -0.422397  0  3.922386  0
C  C73  1  0.58342402  0.79906471  0.42323850  1  0  -0.344712  0  3.693065  0  0  -0.424824  0  3.929221  0  0  -0.427373  0  3.938453  0  -0.0415  0  -0.245137  -0.422714  0  3.922858  0
C  C74  1  0.08341065  0.70096189  0.07677485  1  0  -0.34466  0  3.693085  0  0  -0.424745  0  3.929209  0  0  -0.427289  0  3.938438  0  -0.042097  0  -0.244989  -0.422638  0  3.922846  0
C  C75  1  0.41657448  0.20095650  0.92323850  1  0  -0.344573  0  3.692965  0  0  -0.424606  0  3.929163  0  0  -0.427145  0  3.938388  0  -0.04136  0  -0.245109  -0.422497  0  3.922799  0
C  C76  1  0.04490805  0.85755138  0.46128178  1  0  0.179031  0  3.72428  0  0  0.193732  0  3.96293  0  0  0.195757  0  3.987572  0  0.035182  0  0.003422  0.192252  0  3.946275  0
C  C77  1  0.45511339  0.35752514  0.53871867  1  0  0.179146  0  3.723981  0  0  0.193432  0  3.963242  0  0  0.195454  0  3.987889  0  0.035218  0  0.003488  0.191961  0  3.946585  0
C  C78  1  0.95509584  0.14245288  0.96127376  1  0  0.179024  0  3.723718  0  0  0.193626  0  3.96258  0  0  0.195653  0  3.987221  0  0.03631  0  0.003421  0.192146  0  3.945922  0
C  C79  1  0.54491738  0.64247391  0.03872401  1  0  0.179118  0  3.724447  0  0  0.193741  0  3.963249  0  0  0.195765  0  3.987885  0  0.035818  0  0.003461  0.192283  0  3.946604  0
C  C80  1  0.95510256  0.14245940  0.53871288  1  0  0.17896  0  3.723951  0  0  0.193405  0  3.963087  0  0  0.1954  0  3.987715  0  0.035102  0  0.003344  0.191947  0  3.946444  0
C  C81  1  0.54491335  0.64247000  0.46128400  1  0  0.179215  0  3.723993  0  0  0.193687  0  3.963161  0  0  0.195682  0  3.987787  0  0.035096  0  0.003515  0.192227  0  3.946519  0
C  C82  1  0.04489460  0.85753444  0.03872446  1  0  0.178961  0  3.723842  0  0  0.193428  0  3.962907  0  0  0.195448  0  3.987548  0  0.035278  0  0.003376  0.19197  0  3.946264  0
C  C83  1  0.45510398  0.35754208  0.96127822  1  0  0.179034  0  3.723799  0  0  0.193444  0  3.962925  0  0  0.19547  0  3.987565  0  0.035267  0  0.003375  0.191981  0  3.946279  0
C  C84  1  0.02637220  0.02926354  0.43933307  1  0  -0.301439  0  3.761665  0  0  -0.265083  0  4.004743  0  0  -0.274832  0  4.026305  0  -0.607643  0  -0.024938  -0.258528  0  3.990389  0
C  C85  1  0.47364521  0.52925850  0.56066604  1  0  -0.301138  0  3.760572  0  0  -0.264676  0  4.003809  0  0  -0.274424  0  4.025373  0  -0.607121  0  -0.024867  -0.258138  0  3.989469  0
C  C86  1  0.97362093  0.97071597  0.93933307  1  0  -0.301202  0  3.760771  0  0  -0.264808  0  4.0039  0  0  -0.274562  0  4.025466  0  -0.607125  0  -0.024833  -0.258247  0  3.989537  0
C  C87  1  0.52638960  0.47075488  0.06066515  1  0  -0.300831  0  3.761173  0  0  -0.264482  0  4.004324  0  0  -0.274223  0  4.02588  0  -0.607164  0  -0.024838  -0.258  0  3.990062  0
C  C88  1  0.97363034  0.97072509  0.56065981  1  0  -0.301102  0  3.760774  0  0  -0.264813  0  4.004139  0  0  -0.274467  0  4.025584  0  -0.607565  0  -0.024776  -0.258325  0  3.989869  0
C  C89  1  0.52638154  0.47074055  0.43933974  1  0  -0.301187  0  3.760731  0  0  -0.26504  0  4.004313  0  0  -0.27469  0  4.02575  0  -0.607453  0  -0.025025  -0.258548  0  3.990038  0
C  C90  1  0.02636413  0.02928438  0.06066159  1  0  -0.301035  0  3.760655  0  0  -0.264648  0  4.003874  0  0  -0.27439  0  4.025435  0  -0.607131  0  -0.024786  -0.258161  0  3.989602  0
C  C91  1  0.47364924  0.52928326  0.93933841  1  0  -0.301111  0  3.760616  0  0  -0.264709  0  4.003858  0  0  -0.274458  0  4.025422  0  -0.607475  0  -0.024811  -0.258212  0  3.989577  0
C  C92  1  0.98204631  0.16648864  0.47769868  1  0  -0.101135  0  3.739982  0  0  -0.130661  0  3.986183  0  0  -0.132766  0  4.008456  0  -0.046979  0  -0.083966  -0.129201  0  3.971208  0
C  C93  1  0.51795884  0.66649925  0.52229910  1  0  -0.101331  0  3.739685  0  0  -0.130872  0  3.985893  0  0  -0.132973  0  4.008164  0  -0.047219  0  -0.083971  -0.129407  0  3.970924  0
C  C94  1  0.01794009  0.83348956  0.97770669  1  0  -0.101434  0  3.739613  0  0  -0.130979  0  3.985879  0  0  -0.133076  0  4.008141  0  -0.047356  0  -0.084133  -0.12952  0  3.970903  0
C  C95  1  0.48207328  0.33351023  0.02229999  1  0  -0.101638  0  3.739771  0  0  -0.131193  0  3.98605  0  0  -0.133297  0  4.008311  0  -0.047332  0  -0.084111  -0.129708  0  3.971091  0
C  C96  1  0.01794816  0.83349998  0.52229420  1  0  -0.101572  0  3.739873  0  0  -0.13115  0  3.986065  0  0  -0.13328  0  4.008298  0  -0.047448  0  -0.084114  -0.129672  0  3.971119  0
C  C97  1  0.48206522  0.33349850  0.47770402  1  0  -0.101477  0  3.739825  0  0  -0.130891  0  3.986149  0  0  -0.133018  0  4.008381  0  -0.047311  0  -0.084088  -0.129413  0  3.971197  0
C  C98  1  0.98205304  0.16650819  0.02229197  1  0  -0.101756  0  3.739741  0  0  -0.131306  0  3.985968  0  0  -0.133407  0  4.008222  0  -0.048066  0  -0.08423  -0.129828  0  3.971021  0
C  C99  1  0.51796825  0.66651358  0.97770758  1  0  -0.101783  0  3.739729  0  0  -0.131326  0  3.985957  0  0  -0.133427  0  4.008216  0  -0.047733  0  -0.084143  -0.129849  0  3.971002  0
O  O100  1  0.92821933  0.95163825  0.32847335  1  0  -0.869396  0  2.071043  0  0  -0.774409  0  2.378638  0  0  -0.802938  0  2.351696  0  -1.439168  0  -0.371419  -0.754208  0  2.396676  0
O  O101  1  0.57176834  0.45162113  0.67152620  1  0  -0.869533  0  2.070985  0  0  -0.774445  0  2.378485  0  0  -0.802962  0  2.351534  0  -1.43923  0  -0.37155  -0.754245  0  2.396516  0
O  O102  1  0.07178725  0.04833344  0.82847647  1  0  -0.869604  0  2.070902  0  0  -0.774537  0  2.378491  0  0  -0.80305  0  2.351535  0  -1.439034  0  -0.371498  -0.75434  0  2.396534  0
O  O103  1  0.42821806  0.54836098  0.17152397  1  0  -0.869425  0  2.071107  0  0  -0.774403  0  2.378702  0  0  -0.802922  0  2.351758  0  -1.439214  0  -0.371462  -0.754202  0  2.396731  0
O  O104  1  0.07178725  0.04835819  0.67152308  1  0  -0.86965  0  2.070787  0  0  -0.774499  0  2.378271  0  0  -0.803021  0  2.351346  0  -1.439243  0  -0.371473  -0.754298  0  2.396305  0
O  O105  1  0.42821402  0.54836358  0.32847736  1  0  -0.869591  0  2.070999  0  0  -0.774414  0  2.378473  0  0  -0.802937  0  2.35154  0  -1.439214  0  -0.37144  -0.75421  0  2.396501  0
O  O106  1  0.92819377  0.95167995  0.17152041  1  0  -0.869594  0  2.071008  0  0  -0.774459  0  2.378483  0  0  -0.802978  0  2.351543  0  -1.438918  0  -0.3714  -0.75426  0  2.396514  0
O  O107  1  0.57178448  0.45164198  0.82847692  1  0  -0.869602  0  2.070902  0  0  -0.774454  0  2.378371  0  0  -0.802977  0  2.35143  0  -1.43918  0  -0.371444  -0.75425  0  2.396398  0
O  O108  1  0.61334524  0.07236660  0.25000045  1  0  -0.867806  0  1.886608  0  0  -0.791096  0  2.107493  0  0  -0.813326  0  2.068103  0  -1.308647  0  -0.58061  -0.775437  0  2.134836  0
O  O109  1  0.88664243  0.57236026  0.74999733  1  0  -0.867843  0  1.886509  0  0  -0.791105  0  2.107369  0  0  -0.813342  0  2.067982  0  -1.308994  0  -0.580635  -0.775449  0  2.134717  0
O  O110  1  0.38662637  0.92762594  0.75000000  1  0  -0.867893  0  1.886681  0  0  -0.791066  0  2.107514  0  0  -0.813301  0  2.068125  0  -1.3089  0  -0.580648  -0.775406  0  2.134856  0
O  O111  1  0.11337490  0.42762837  0.25000178  1  0  -0.867914  0  1.886645  0  0  -0.791103  0  2.10749  0  0  -0.813342  0  2.068099  0  -1.308889  0  -0.580598  -0.775446  0  2.134844  0
O  O112  1  0.74603733  0.68009640  0.25000000  1  0  -0.865141  0  1.932272  0  0  -0.796087  0  2.168513  0  0  -0.818008  0  2.12863  0  -1.279628  0  -0.576888  -0.780589  0  2.196156  0
O  O113  1  0.75395975  0.18008711  0.74999822  1  0  -0.865237  0  1.932289  0  0  -0.79621  0  2.168595  0  0  -0.818115  0  2.128683  0  -1.279565  0  -0.576931  -0.780711  0  2.196233  0
O  O114  1  0.25393965  0.31990525  0.75000045  1  0  -0.86524  0  1.932269  0  0  -0.796196  0  2.168514  0  0  -0.818112  0  2.12862  0  -1.279654  0  -0.576982  -0.780696  0  2.196151  0
O  O115  1  0.24603606  0.81990282  0.24999777  1  0  -0.865141  0  1.932352  0  0  -0.796074  0  2.168652  0  0  -0.817969  0  2.128714  0  -1.279628  0  -0.576892  -0.78058  0  2.196296  0
O  O116  1  0.25084922  0.03243251  0.34275277  1  0  -0.781566  0  2.086577  0  0  -0.693926  0  2.309096  0  0  -0.718169  0  2.284254  0  -1.435755  0  -0.373563  -0.677041  0  2.32607  0
O  O117  1  0.24915339  0.53242618  0.65723832  1  0  -0.781557  0  2.086985  0  0  -0.693909  0  2.309513  0  0  -0.718178  0  2.284691  0  -1.435402  0  -0.373579  -0.677037  0  2.326496  0
O  O118  1  0.74914793  0.96754960  0.84275678  1  0  -0.781376  0  2.086664  0  0  -0.693742  0  2.309196  0  0  -0.718  0  2.284373  0  -1.435768  0  -0.37351  -0.676864  0  2.326188  0
O  O119  1  0.75085856  0.46756506  0.15724767  1  0  -0.781382  0  2.086752  0  0  -0.693796  0  2.309277  0  0  -0.718013  0  2.284435  0  -1.435342  0  -0.373451  -0.676905  0  2.326241  0
O  O120  1  0.74913045  0.96756002  0.65724144  1  0  -0.781441  0  2.086178  0  0  -0.693869  0  2.308771  0  0  -0.718016  0  2.283879  0  -1.435381  0  -0.373554  -0.676979  0  2.325758  0
O  O121  1  0.75086932  0.46757287  0.34275633  1  0  -0.781452  0  2.086382  0  0  -0.693832  0  2.308908  0  0  -0.718015  0  2.284046  0  -1.435398  0  -0.373529  -0.676938  0  2.325887  0
O  O122  1  0.25085864  0.03245858  0.15723877  1  0  -0.781467  0  2.086707  0  0  -0.693835  0  2.309309  0  0  -0.718032  0  2.284436  0  -1.435287  0  -0.373482  -0.676951  0  2.326297  0
O  O123  1  0.24913725  0.53243530  0.84276079  1  0  -0.78138  0  2.086567  0  0  -0.6938  0  2.309136  0  0  -0.718022  0  2.284282  0  -1.435342  0  -0.37352  -0.676922  0  2.326129  0
O  O124  1  0.01794412  0.27201094  0.35031967  1  0  -0.838459  0  1.990647  0  0  -0.750956  0  2.223426  0  0  -0.776621  0  2.202534  0  -1.449775  0  -0.357724  -0.732938  0  2.237429  0
O  O125  1  0.48205715  0.77199287  0.64968167  1  0  -0.838541  0  1.990732  0  0  -0.751025  0  2.223559  0  0  -0.776716  0  2.202696  0  -1.45016  0  -0.357741  -0.732997  0  2.237536  0
O  O126  1  0.98203152  0.72796987  0.85032545  1  0  -0.838508  0  1.990959  0  0  -0.751005  0  2.223771  0  0  -0.776667  0  2.202865  0  -1.449925  0  -0.357759  -0.732987  0  2.23777  0
O  O127  1  0.51795212  0.22798794  0.14967499  1  0  -0.838428  0  1.990834  0  0  -0.750942  0  2.22363  0  0  -0.77663  0  2.202772  0  -1.449791  0  -0.357776  -0.732916  0  2.237605  0
O  O128  1  0.98204766  0.72797639  0.64967366  1  0  -0.838473  0  1.990424  0  0  -0.751045  0  2.22326  0  0  -0.776682  0  2.202359  0  -1.449808  0  -0.357819  -0.733024  0  2.237243  0
O  O129  1  0.51795884  0.22798663  0.35032456  1  0  -0.838458  0  1.990531  0  0  -0.751  0  2.223362  0  0  -0.776663  0  2.202495  0  -1.450037  0  -0.357819  -0.732977  0  2.237339  0
O  O130  1  0.01796429  0.27203570  0.14967188  1  0  -0.838358  0  1.990741  0  0  -0.750919  0  2.223579  0  0  -0.776549  0  2.202677  0  -1.450032  0  -0.357701  -0.732897  0  2.237556  0
O  O131  1  0.48204101  0.77201242  0.85032545  1  0  -0.838513  0  1.990656  0  0  -0.751051  0  2.223499  0  0  -0.776694  0  2.202592  0  -1.449923  0  -0.357799  -0.733022  0  2.237474  0
