# generated using pymatgen
data_ZnH11C15SN3O5
_symmetry_space_group_name_H-M   'P 1'
_cell_length_a   8.55467121
_cell_length_b   13.42640456
_cell_length_c   13.66377177
_cell_angle_alpha   90.00027438
_cell_angle_beta   89.99982481
_cell_angle_gamma   102.17677900
_symmetry_Int_Tables_number   1
_chemical_formula_structural   ZnH11C15SN3O5
_chemical_formula_sum   'Zn4 H44 C60 S4 N12 O20'
_cell_volume   1534.09080114
_cell_formula_units_Z   4
loop_
 _symmetry_equiv_pos_site_id
 _symmetry_equiv_pos_as_xyz
  1  'x, y, z'
loop_
 _atom_site_type_symbol
 _atom_site_label
 _atom_site_symmetry_multiplicity
 _atom_site_fract_x
 _atom_site_fract_y
 _atom_site_fract_z
 _atom_site_occupancy
 _atom_site_hle17_bader_spin_density
 _atom_site_hle17_ddec_charge
 _atom_site_hle17_ddec_spin_density
 _atom_site_hle17_ddec_sum_bond_order
 _atom_site_hle17_magmom
 _atom_site_hse06_10hf_bader_spin_density
 _atom_site_hse06_10hf_ddec_charge
 _atom_site_hse06_10hf_ddec_spin_density
 _atom_site_hse06_10hf_ddec_sum_bond_order
 _atom_site_hse06_10hf_magmom
 _atom_site_hse06_bader_spin_density
 _atom_site_hse06_ddec_charge
 _atom_site_hse06_ddec_spin_density
 _atom_site_hse06_ddec_sum_bond_order
 _atom_site_hse06_magmom
 _atom_site_pbe_bader_spin_density
 _atom_site_pbe_cm5_charge
 _atom_site_pbe_ddec_charge
 _atom_site_pbe_ddec_spin_density
 _atom_site_pbe_ddec_sum_bond_order
 _atom_site_pbe_magmom
Zn  Zn0  1  0.58286201  0.01430281  0.89004801  1  0  1.169823  0  1.720236  0  0  0.999726  0  2.169481  0  0  1.046274  0  2.112292  0  0  0.704425  0.966881  0  2.208917  0
Zn  Zn1  1  0.91713787  0.98569633  0.39004748  1  0  1.169808  0  1.720169  0  0  0.999714  0  2.169407  0  0  1.046264  0  2.11222  0  0  0.704432  0.966867  0  2.208843  0
Zn  Zn2  1  0.41714047  0.98569780  0.10995253  1  0  1.169806  0  1.720238  0  0  0.999704  0  2.169482  0  0  1.046255  0  2.112294  0  0  0.704416  0.966856  0  2.208917  0
Zn  Zn3  1  0.08286086  0.01430348  0.60995379  1  0  1.169788  0  1.720255  0  0  0.999688  0  2.169506  0  0  1.046241  0  2.112319  0  0  0.704408  0.966839  0  2.208943  0
H  H4  1  0.85982691  0.04995393  0.99251148  1  0  0.426627  0  0.869785  0  0  0.397047  0  0.931156  0  0  0.407102  0  0.916452  0  0  0.297379  0.389922  0  0.941573  0
H  H5  1  0.64017262  0.95004566  0.49251059  1  0  0.42661  0  0.869813  0  0  0.397029  0  0.93118  0  0  0.407083  0  0.916478  0  0  0.297373  0.389905  0  0.941594  0
H  H6  1  0.14017534  0.95004592  0.00748906  1  0  0.426631  0  0.869793  0  0  0.397052  0  0.931151  0  0  0.407106  0  0.916447  0  0  0.297379  0.389928  0  0.941566  0
H  H7  1  0.35982657  0.04995568  0.50749068  1  0  0.426647  0  0.86978  0  0  0.397063  0  0.931134  0  0  0.407119  0  0.916429  0  0  0.297387  0.389939  0  0.941549  0
H  H8  1  0.88999343  0.99353714  0.89625475  1  0  0.441768  0  0.849789  0  0  0.412334  0  0.909605  0  0  0.422129  0  0.895351  0  0  0.300583  0.405405  0  0.919686  0
H  H9  1  0.61000807  0.00646356  0.39625532  1  0  0.441768  0  0.849789  0  0  0.412328  0  0.909613  0  0  0.422124  0  0.895359  0  0  0.300584  0.405398  0  0.919696  0
H  H10  1  0.11000859  0.00646195  0.10374652  1  0  0.44182  0  0.849716  0  0  0.412368  0  0.909568  0  0  0.422163  0  0.895313  0  0  0.300583  0.405439  0  0.91965  0
H  H11  1  0.38999135  0.99353853  0.60374669  1  0  0.441839  0  0.849684  0  0  0.41239  0  0.909528  0  0  0.422184  0  0.895275  0  0  0.30061  0.405459  0  0.919613  0
H  H12  1  0.54255345  0.76815416  0.52770844  1  0  0.100002  0  0.968186  0  0  0.109018  0  1.030723  0  0  0.112343  0  1.02862  0  0  0.104317  0.10662  0  1.032254  0
H  H13  1  0.95744063  0.23184330  0.02770794  1  0  0.099983  0  0.968252  0  0  0.108978  0  1.030801  0  0  0.112303  0  1.0287  0  0  0.104298  0.106582  0  1.03233  0
H  H14  1  0.45744059  0.23184559  0.47229356  1  0  0.099939  0  0.968186  0  0  0.108938  0  1.030756  0  0  0.112262  0  1.028654  0  0  0.104276  0.106541  0  1.032285  0
H  H15  1  0.04255764  0.76815499  0.97229041  1  0  0.099969  0  0.968247  0  0  0.108996  0  1.030759  0  0  0.112321  0  1.028657  0  0  0.104305  0.106599  0  1.03229  0
H  H16  1  0.59026293  0.59468896  0.48730259  1  0  0.105289  0  0.947815  0  0  0.112564  0  1.014091  0  0  0.116511  0  1.011083  0  0  0.105901  0.109676  0  1.016432  0
H  H17  1  0.90972866  0.40530748  0.98729848  1  0  0.10527  0  0.947828  0  0  0.112589  0  1.014067  0  0  0.116537  0  1.011058  0  0  0.105869  0.109703  0  1.016406  0
H  H18  1  0.40973345  0.40531083  0.51270087  1  0  0.105226  0  0.947784  0  0  0.112529  0  1.014052  0  0  0.116476  0  1.011042  0  0  0.105863  0.109641  0  1.016392  0
H  H19  1  0.09026328  0.59468921  0.01269547  1  0  0.105272  0  0.947859  0  0  0.112579  0  1.014098  0  0  0.116527  0  1.011088  0  0  0.105908  0.109692  0  1.016439  0
H  H20  1  0.88786330  0.60571390  0.74273839  1  0  0.106214  0  0.952816  0  0  0.111726  0  1.018456  0  0  0.115127  0  1.017029  0  0  0.105774  0.109256  0  1.019627  0
H  H21  1  0.61214105  0.39428995  0.24274078  1  0  0.106213  0  0.95277  0  0  0.11171  0  1.018428  0  0  0.115113  0  1.016999  0  0  0.105765  0.109239  0  1.0196  0
H  H22  1  0.11214033  0.39429052  0.25726141  1  0  0.106218  0  0.952798  0  0  0.111725  0  1.018438  0  0  0.115129  0  1.017008  0  0  0.105789  0.109254  0  1.019611  0
H  H23  1  0.38785793  0.60570683  0.75725756  1  0  0.106196  0  0.952848  0  0  0.111695  0  1.018497  0  0  0.115099  0  1.017066  0  0  0.105764  0.109223  0  1.01967  0
H  H24  1  0.83847203  0.77739414  0.78413883  1  0  0.102153  0  0.953964  0  0  0.110602  0  1.018392  0  0  0.113881  0  1.016089  0  0  0.105649  0.108201  0  1.020115  0
H  H25  1  0.66153453  0.22260992  0.28414105  1  0  0.102154  0  0.953946  0  0  0.110584  0  1.018395  0  0  0.113855  0  1.016086  0  0  0.105641  0.10818  0  1.020122  0
H  H26  1  0.16153161  0.22261028  0.21585951  1  0  0.102173  0  0.953939  0  0  0.110599  0  1.018393  0  0  0.113873  0  1.016087  0  0  0.105646  0.108198  0  1.020117  0
H  H27  1  0.33847241  0.77738998  0.71585875  1  0  0.102188  0  0.953898  0  0  0.110653  0  1.018298  0  0  0.113931  0  1.015994  0  0  0.105662  0.10825  0  1.020025  0
H  H28  1  0.81424478  0.38386491  0.44601899  1  0  0.105689  0  0.943733  0  0  0.110847  0  1.011539  0  0  0.114194  0  1.008327  0  0  0.10629  0.108346  0  1.013965  0
H  H29  1  0.68575912  0.61613680  0.94601777  1  0  0.105729  0  0.943761  0  0  0.110876  0  1.011585  0  0  0.114225  0  1.00837  0  0  0.106316  0.108376  0  1.014009  0
H  H30  1  0.18575370  0.61613793  0.55398082  1  0  0.10567  0  0.943742  0  0  0.110818  0  1.011556  0  0  0.114165  0  1.008344  0  0  0.106283  0.108317  0  1.013982  0
H  H31  1  0.31424149  0.38386152  0.05398204  1  0  0.105738  0  0.943793  0  0  0.110903  0  1.011589  0  0  0.11425  0  1.008377  0  0  0.106317  0.108402  0  1.014014  0
H  H32  1  0.87684929  0.22164840  0.38464750  1  0  0.11898  0  0.987937  0  0  0.126931  0  1.052122  0  0  0.130031  0  1.052191  0  0  0.100758  0.12469  0  1.052252  0
H  H33  1  0.62315436  0.77835151  0.88464424  1  0  0.118935  0  0.988006  0  0  0.126896  0  1.052193  0  0  0.129996  0  1.05226  0  0  0.100748  0.124657  0  1.052325  0
H  H34  1  0.12315131  0.77835370  0.61535450  1  0  0.118948  0  0.987946  0  0  0.126899  0  1.052143  0  0  0.129999  0  1.052212  0  0  0.100742  0.124657  0  1.052266  0
H  H35  1  0.37685046  0.22164913  0.11535777  1  0  0.118926  0  0.98797  0  0  0.12689  0  1.052148  0  0  0.12999  0  1.052217  0  0  0.100758  0.124653  0  1.052272  0
H  H36  1  0.97435990  0.40020448  0.78567692  1  0  0.1026  0  0.939211  0  0  0.110019  0  1.004465  0  0  0.113264  0  1.001562  0  0  0.109792  0.107631  0  1.006619  0
H  H37  1  0.52563072  0.59979333  0.28567459  1  0  0.102692  0  0.939117  0  0  0.110106  0  1.004367  0  0  0.113351  0  1.001464  0  0  0.109841  0.107718  0  1.006522  0
H  H38  1  0.02564071  0.59979383  0.21432289  1  0  0.102679  0  0.939142  0  0  0.110077  0  1.004405  0  0  0.113321  0  1.001505  0  0  0.109844  0.107689  0  1.00656  0
H  H39  1  0.47436262  0.40020414  0.71432594  1  0  0.102651  0  0.939148  0  0  0.110078  0  1.004397  0  0  0.113322  0  1.001496  0  0  0.109829  0.10769  0  1.00655  0
H  H40  1  0.08781364  0.28005885  0.89169068  1  0  0.101103  0  0.966315  0  0  0.113814  0  1.023033  0  0  0.115835  0  1.023572  0  0  0.106898  0.112356  0  1.022802  0
H  H41  1  0.41217547  0.71994127  0.39168598  1  0  0.101143  0  0.966371  0  0  0.113889  0  1.023035  0  0  0.115904  0  1.023587  0  0  0.106927  0.112444  0  1.022772  0
H  H42  1  0.91218861  0.71994100  0.10830840  1  0  0.101096  0  0.966306  0  0  0.113808  0  1.023024  0  0  0.115829  0  1.023564  0  0  0.106897  0.11235  0  1.022794  0
H  H43  1  0.58781927  0.28005698  0.60831310  1  0  0.101143  0  0.966353  0  0  0.113883  0  1.023028  0  0  0.115903  0  1.023567  0  0  0.106908  0.112432  0  1.022783  0
H  H44  1  0.14724292  0.12177385  0.81797634  1  0  0.078865  0  0.945606  0  0  0.08524  0  1.013379  0  0  0.088193  0  1.01033  0  0  0.115212  0.08307  0  1.015562  0
H  H45  1  0.35275558  0.87822909  0.31797397  1  0  0.07887  0  0.945554  0  0  0.085219  0  1.01336  0  0  0.088175  0  1.010301  0  0  0.115195  0.08305  0  1.015545  0
H  H46  1  0.85275698  0.87822597  0.18202200  1  0  0.078838  0  0.945622  0  0  0.085241  0  1.013356  0  0  0.088191  0  1.010304  0  0  0.115198  0.08307  0  1.01554  0
H  H47  1  0.64724784  0.12177078  0.68202584  1  0  0.078896  0  0.945588  0  0  0.085238  0  1.013385  0  0  0.088197  0  1.010319  0  0  0.11519  0.08307  0  1.015565  0
C  C48  1  0.68894271  0.78271966  0.65733067  1  0  -0.123809  0  3.723352  0  0  -0.099011  0  3.973058  0  0  -0.106321  0  3.994643  0  0  -0.019456  -0.094312  0  3.958609  0
C  C49  1  0.81105608  0.21727995  0.15733111  1  0  -0.12387  0  3.723428  0  0  -0.099084  0  3.973133  0  0  -0.106392  0  3.994716  0  0  -0.019437  -0.094383  0  3.958687  0
C  C50  1  0.31105672  0.21728243  0.34267060  1  0  -0.123967  0  3.723571  0  0  -0.099171  0  3.973284  0  0  -0.106479  0  3.994867  0  0  -0.019507  -0.094469  0  3.958835  0
C  C51  1  0.18894312  0.78271759  0.84266797  1  0  -0.123966  0  3.723342  0  0  -0.099192  0  3.973089  0  0  -0.106502  0  3.994671  0  0  -0.019503  -0.094493  0  3.958642  0
C  C52  1  0.61729287  0.73187610  0.57430376  1  0  -0.057435  0  3.759978  0  0  -0.081613  0  4.007044  0  0  -0.080304  0  4.027193  0  0  -0.087101  -0.082248  0  3.993293  0
C  C53  1  0.88270409  0.26812388  0.07430211  1  0  -0.057379  0  3.76  0  0  -0.081531  0  4.007075  0  0  -0.080221  0  4.027222  0  0  -0.087114  -0.082167  0  3.993326  0
C  C54  1  0.38270375  0.26812445  0.42569751  1  0  -0.057288  0  3.759839  0  0  -0.081447  0  4.006909  0  0  -0.080137  0  4.027058  0  0  -0.087055  -0.082081  0  3.993156  0
C  C55  1  0.11729277  0.73187363  0.92569623  1  0  -0.057369  0  3.760007  0  0  -0.081541  0  4.007079  0  0  -0.080231  0  4.027225  0  0  -0.087083  -0.082178  0  3.993328  0
C  C56  1  0.64387816  0.63579991  0.55197439  1  0  -0.12458  0  3.704338  0  0  -0.14416  0  3.954481  0  0  -0.148907  0  3.974849  0  0  -0.081736  -0.141047  0  3.940778  0
C  C57  1  0.85611912  0.36419694  0.05197031  1  0  -0.12461  0  3.70442  0  0  -0.144228  0  3.954586  0  0  -0.148975  0  3.974951  0  0  -0.081686  -0.141115  0  3.940882  0
C  C58  1  0.35611962  0.36420065  0.44802688  1  0  -0.124512  0  3.704231  0  0  -0.144115  0  3.954399  0  0  -0.148861  0  3.974765  0  0  -0.081685  -0.141002  0  3.940692  0
C  C59  1  0.14387493  0.63579902  0.94802437  1  0  -0.124555  0  3.704472  0  0  -0.14416  0  3.954616  0  0  -0.148906  0  3.974982  0  0  -0.081757  -0.141046  0  3.94091  0
C  C60  1  0.74311929  0.59042685  0.61163414  1  0  0.176116  0  3.822013  0  0  0.179412  0  4.070389  0  0  0.182544  0  4.094206  0  0  0.090599  0.177313  0  4.054244  0
C  C61  1  0.75688248  0.40957031  0.11163193  1  0  0.176115  0  3.822053  0  0  0.179373  0  4.070475  0  0  0.182506  0  4.094301  0  0  0.090575  0.177274  0  4.054331  0
C  C62  1  0.25688225  0.40957451  0.38836786  1  0  0.175875  0  3.822046  0  0  0.179123  0  4.070506  0  0  0.182253  0  4.094331  0  0  0.090463  0.177026  0  4.05436  0
C  C63  1  0.24311555  0.59042721  0.88836421  1  0  0.17594  0  3.822104  0  0  0.179208  0  4.070519  0  0  0.182339  0  4.094347  0  0  0.090514  0.17711  0  4.054373  0
C  C64  1  0.81123118  0.64138136  0.69676296  1  0  -0.122769  0  3.686797  0  0  -0.137613  0  3.929004  0  0  -0.142294  0  3.949968  0  0  -0.079925  -0.134587  0  3.914991  0
C  C65  1  0.68877075  0.35862150  0.19676211  1  0  -0.122752  0  3.686762  0  0  -0.137569  0  3.928965  0  0  -0.142252  0  3.94993  0  0  -0.079898  -0.134541  0  3.914948  0
C  C66  1  0.18877340  0.35862232  0.30323831  1  0  -0.122723  0  3.68675  0  0  -0.137546  0  3.928954  0  0  -0.142228  0  3.94992  0  0  -0.079906  -0.13452  0  3.91494  0
C  C67  1  0.31122752  0.64137678  0.80323624  1  0  -0.122683  0  3.686735  0  0  -0.137506  0  3.928941  0  0  -0.14219  0  3.949907  0  0  -0.079895  -0.134479  0  3.914924  0
C  C68  1  0.78405516  0.73699153  0.71945021  1  0  -0.039809  0  3.731007  0  0  -0.063653  0  3.979751  0  0  -0.06188  0  3.998766  0  0  -0.080691  -0.064635  0  3.966887  0
C  C69  1  0.71594741  0.26300992  0.21945032  1  0  -0.039769  0  3.731024  0  0  -0.063583  0  3.979747  0  0  -0.061801  0  3.99876  0  0  -0.080696  -0.064565  0  3.966881  0
C  C70  1  0.21594684  0.26301135  0.28054960  1  0  -0.039773  0  3.730996  0  0  -0.063596  0  3.979721  0  0  -0.061817  0  3.99873  0  0  -0.080679  -0.064578  0  3.966856  0
C  C71  1  0.28405555  0.73698842  0.78054802  1  0  -0.039756  0  3.730866  0  0  -0.063604  0  3.979608  0  0  -0.061834  0  3.998637  0  0  -0.08066  -0.064586  0  3.966743  0
C  C72  1  0.90013709  0.36875554  0.59128842  1  0  0.083327  0  3.840303  0  0  0.078157  0  4.103443  0  0  0.070765  0  4.131229  0  0  0.074788  0.082774  0  4.084807  0
C  C73  1  0.59986685  0.63124460  0.09128610  1  0  0.08324  0  3.840251  0  0  0.078148  0  4.103294  0  0  0.070753  0  4.131087  0  0  0.074757  0.082768  0  4.084655  0
C  C74  1  0.09986070  0.63124502  0.40871211  1  0  0.083307  0  3.840347  0  0  0.078185  0  4.103411  0  0  0.070794  0  4.131193  0  0  0.074771  0.082801  0  4.084776  0
C  C75  1  0.40013634  0.36875450  0.90871517  1  0  0.083272  0  3.840323  0  0  0.078137  0  4.103408  0  0  0.070742  0  4.131196  0  0  0.074781  0.082754  0  4.084771  0
C  C76  1  0.86643666  0.33541008  0.49476086  1  0  -0.079312  0  3.737836  0  0  -0.103865  0  3.997238  0  0  -0.100489  0  4.018647  0  0  -0.077972  -0.105843  0  3.982704  0
C  C77  1  0.63356756  0.66458957  0.99475557  1  0  -0.079396  0  3.737834  0  0  -0.103982  0  3.997263  0  0  -0.100603  0  4.018666  0  0  -0.078026  -0.10596  0  3.982731  0
C  C78  1  0.13356136  0.66459124  0.50524041  1  0  -0.079303  0  3.737748  0  0  -0.103862  0  3.997145  0  0  -0.100484  0  4.018552  0  0  -0.07796  -0.105841  0  3.982613  0
C  C79  1  0.36643375  0.33541103  0.00524204  1  0  -0.079387  0  3.737877  0  0  -0.103968  0  3.997296  0  0  -0.10059  0  4.018703  0  0  -0.077995  -0.105944  0  3.982764  0
C  C80  1  0.90047400  0.24497119  0.46028404  1  0  -0.191572  0  3.727023  0  0  -0.212109  0  3.983304  0  0  -0.22501  0  4.008156  0  0  -0.10819  -0.203486  0  3.966563  0
C  C81  1  0.59952822  0.75502904  0.96028144  1  0  -0.19142  0  3.72685  0  0  -0.211983  0  3.983157  0  0  -0.22488  0  4.008007  0  0  -0.108137  -0.203363  0  3.966409  0
C  C82  1  0.09952402  0.75503013  0.53971650  1  0  -0.191536  0  3.726877  0  0  -0.212105  0  3.983147  0  0  -0.225002  0  4.007997  0  0  -0.108179  -0.203483  0  3.966409  0
C  C83  1  0.40047543  0.24497158  0.03971836  1  0  -0.191482  0  3.726852  0  0  -0.212048  0  3.983152  0  0  -0.224946  0  4.007996  0  0  -0.108175  -0.203426  0  3.966408  0
C  C84  1  0.97100787  0.18237721  0.52116892  1  0  0.328806  0  3.83527  0  0  0.310829  0  4.091572  0  0  0.327781  0  4.10763  0  0  0.098006  0.299138  0  4.080608  0
C  C85  1  0.52899560  0.81762412  0.02116761  1  0  0.328754  0  3.835198  0  0  0.310797  0  4.091487  0  0  0.327735  0  4.10754  0  0  0.098  0.299106  0  4.080527  0
C  C86  1  0.02899109  0.81762336  0.47882943  1  0  0.328843  0  3.835165  0  0  0.310911  0  4.091348  0  0  0.327863  0  4.107417  0  0  0.098063  0.299231  0  4.080372  0
C  C87  1  0.47100711  0.18237725  0.97883293  1  0  0.328776  0  3.835248  0  0  0.31083  0  4.091514  0  0  0.327794  0  4.107566  0  0  0.09799  0.299137  0  4.080555  0
C  C88  1  0.00672254  0.21472475  0.62103839  1  0  0.084305  0  3.741406  0  0  0.081498  0  3.973074  0  0  0.08076  0  3.997362  0  0  0.098223  0.081861  0  3.95685  0
C  C89  1  0.49328297  0.78527891  0.12103751  1  0  0.084237  0  3.741668  0  0  0.08142  0  3.973365  0  0  0.080679  0  3.997662  0  0  0.098198  0.081781  0  3.957144  0
C  C90  1  0.99327783  0.78527660  0.37896068  1  0  0.084285  0  3.741548  0  0  0.081524  0  3.973102  0  0  0.080793  0  3.997383  0  0  0.098218  0.081883  0  3.956876  0
C  C91  1  0.50672045  0.21472095  0.87896450  1  0  0.08424  0  3.741644  0  0  0.081397  0  3.973344  0  0  0.080654  0  3.997636  0  0  0.098198  0.08176  0  3.957122  0
C  C92  1  0.97216428  0.30746155  0.65625563  1  0  -0.017855  0  3.772751  0  0  -0.004647  0  4.000846  0  0  -0.006363  0  4.028464  0  0  0.003212  -0.003489  0  3.982281  0
C  C93  1  0.52783966  0.69254343  0.15625447  1  0  -0.017839  0  3.772701  0  0  -0.004635  0  4.000772  0  0  -0.00635  0  4.02839  0  0  0.003219  -0.003477  0  3.982207  0
C  C94  1  0.02783491  0.69253978  0.34374491  1  0  -0.017902  0  3.772908  0  0  -0.004726  0  4.000974  0  0  -0.006443  0  4.028591  0  0  0.003174  -0.003568  0  3.982409  0
C  C95  1  0.47216282  0.30745719  0.84374680  1  0  -0.017835  0  3.772631  0  0  -0.004604  0  4.000701  0  0  -0.006317  0  4.028318  0  0  0.00323  -0.003447  0  3.982136  0
C  C96  1  0.00194621  0.33044236  0.75639441  1  0  -0.027718  0  3.679668  0  0  -0.055763  0  3.931469  0  0  -0.054608  0  3.950345  0  0  -0.059777  -0.05639  0  3.918673  0
C  C97  1  0.49805250  0.66956031  0.25639370  1  0  -0.027767  0  3.67965  0  0  -0.055823  0  3.931477  0  0  -0.054666  0  3.950349  0  0  -0.05982  -0.056455  0  3.918685  0
C  C98  1  0.99805604  0.66955749  0.24360686  1  0  -0.027776  0  3.679584  0  0  -0.05581  0  3.931412  0  0  -0.054656  0  3.950288  0  0  -0.059802  -0.056439  0  3.918616  0
C  C99  1  0.50194341  0.33043795  0.74360610  1  0  -0.027664  0  3.679501  0  0  -0.055741  0  3.931328  0  0  -0.054585  0  3.950202  0  0  -0.059805  -0.056369  0  3.918532  0
C  C100  1  0.06332299  0.26405400  0.81458750  1  0  -0.11195  0  3.731349  0  0  -0.127028  0  3.987406  0  0  -0.133126  0  4.009225  0  0  -0.08493  -0.123061  0  3.972696  0
C  C101  1  0.43667318  0.73594889  0.31458429  1  0  -0.112149  0  3.731597  0  0  -0.127261  0  3.987628  0  0  -0.13336  0  4.009442  0  0  -0.085028  -0.123291  0  3.972926  0
C  C102  1  0.93667785  0.73594507  0.18541231  1  0  -0.111914  0  3.73124  0  0  -0.127006  0  3.98731  0  0  -0.133104  0  4.009129  0  0  -0.08494  -0.123039  0  3.972599  0
C  C103  1  0.56332790  0.26405095  0.68541405  1  0  -0.112169  0  3.731499  0  0  -0.127281  0  3.987531  0  0  -0.13338  0  4.009348  0  0  -0.08502  -0.123313  0  3.972824  0
C  C104  1  0.09717071  0.17480944  0.77355027  1  0  0.162084  0  3.675676  0  0  0.127108  0  3.935591  0  0  0.136182  0  3.949891  0  0  0.05747  0.12117  0  3.925838  0
C  C105  1  0.40282935  0.82519407  0.27354755  1  0  0.162172  0  3.675636  0  0  0.127255  0  3.935485  0  0  0.136332  0  3.949784  0  0  0.057572  0.121313  0  3.925734  0
C  C106  1  0.90283013  0.82518963  0.22644953  1  0  0.16203  0  3.675697  0  0  0.127054  0  3.935571  0  0  0.136131  0  3.949877  0  0  0.057452  0.121117  0  3.925817  0
C  C107  1  0.59717454  0.17480732  0.72645079  1  0  0.16207  0  3.675704  0  0  0.127179  0  3.935509  0  0  0.136255  0  3.949811  0  0  0.057546  0.121239  0  3.925756  0
S  S108  1  0.66353453  0.90818104  0.68107772  1  0  1.330199  0  5.576115  0  0  1.225562  0  6.094496  0  0  1.273536  0  6.070552  0  0  0.53072  1.192504  0  6.110134  0
S  S109  1  0.83646722  0.09182099  0.18107899  1  0  1.330211  0  5.57612  0  0  1.225604  0  6.094468  0  0  1.273574  0  6.070525  0  0  0.530749  1.192547  0  6.110114  0
S  S110  1  0.33646490  0.09182106  0.31892355  1  0  1.330175  0  5.576128  0  0  1.225522  0  6.094509  0  0  1.273495  0  6.070567  0  0  0.530696  1.192463  0  6.110148  0
S  S111  1  0.16353596  0.90817811  0.81892009  1  0  1.330322  0  5.57613  0  0  1.225723  0  6.09447  0  0  1.273697  0  6.07052  0  0  0.530801  1.192668  0  6.110117  0
N  N112  1  0.76876987  0.49638151  0.57776111  1  0  -0.206302  0  3.01874  0  0  -0.184784  0  3.310178  0  0  -0.187597  0  3.317916  0  0  -0.174684  -0.182634  0  3.304618  0
N  N113  1  0.73122731  0.50361925  0.07775793  1  0  -0.20628  0  3.01863  0  0  -0.184748  0  3.310068  0  0  -0.187563  0  3.317811  0  0  -0.174627  -0.182597  0  3.304507  0
N  N114  1  0.23122838  0.50362057  0.42224163  1  0  -0.206105  0  3.018547  0  0  -0.184564  0  3.309965  0  0  -0.187377  0  3.317706  0  0  -0.174593  -0.182415  0  3.304404  0
N  N115  1  0.26876580  0.49637746  0.92223968  1  0  -0.206211  0  3.018589  0  0  -0.184677  0  3.31001  0  0  -0.187491  0  3.317754  0  0  -0.17464  -0.182528  0  3.30445  0
N  N116  1  0.86640993  0.45782760  0.62893932  1  0  -0.151452  0  3.067247  0  0  -0.127573  0  3.354984  0  0  -0.122095  0  3.36266  0  0  -0.157999  -0.130599  0  3.349358  0
N  N117  1  0.63358496  0.54217412  0.12893725  1  0  -0.151407  0  3.067216  0  0  -0.127547  0  3.354926  0  0  -0.122066  0  3.362604  0  0  -0.157998  -0.130571  0  3.349296  0
N  N118  1  0.13358786  0.54217296  0.37106268  1  0  -0.151434  0  3.067206  0  0  -0.127566  0  3.354914  0  0  -0.122088  0  3.362589  0  0  -0.157956  -0.130591  0  3.349287  0
N  N119  1  0.36641095  0.45782414  0.87106256  1  0  -0.15139  0  3.067232  0  0  -0.12752  0  3.354949  0  0  -0.122039  0  3.362625  0  0  -0.157947  -0.130544  0  3.349321  0
N  N120  1  0.06968083  0.15101760  0.67987772  1  0  -0.351284  0  3.290171  0  0  -0.27749  0  3.558946  0  0  -0.294726  0  3.573996  0  0  -0.321222  -0.265711  0  3.548611  0
N  N121  1  0.43032378  0.84898403  0.17987506  1  0  -0.351173  0  3.290229  0  0  -0.277425  0  3.559004  0  0  -0.29466  0  3.574058  0  0  -0.321183  -0.265646  0  3.548669  0
N  N122  1  0.93031954  0.84898374  0.32012209  1  0  -0.351191  0  3.29016  0  0  -0.277421  0  3.558908  0  0  -0.294658  0  3.573954  0  0  -0.321156  -0.265642  0  3.548573  0
N  N123  1  0.56967987  0.15101660  0.82012475  1  0  -0.351172  0  3.290165  0  0  -0.277405  0  3.558924  0  0  -0.294638  0  3.573975  0  0  -0.321171  -0.265627  0  3.548589  0
O  O124  1  0.81548140  0.98040123  0.66809671  1  0  -0.664824  0  2.045367  0  0  -0.613635  0  2.323068  0  0  -0.635207  0  2.308245  0  0  -0.327688  -0.598393  0  2.332678  0
O  O125  1  0.68452088  0.01959847  0.16809939  1  0  -0.66483  0  2.045395  0  0  -0.613676  0  2.323145  0  0  -0.635247  0  2.308325  0  0  -0.32768  -0.59841  0  2.3327  0
O  O126  1  0.18451874  0.01959935  0.33190310  1  0  -0.664803  0  2.045333  0  0  -0.613596  0  2.323017  0  0  -0.635168  0  2.308196  0  0  -0.327667  -0.598354  0  2.332627  0
O  O127  1  0.31548208  0.98039987  0.83190042  1  0  -0.664883  0  2.045362  0  0  -0.613742  0  2.32311  0  0  -0.635308  0  2.308287  0  0  -0.327734  -0.598482  0  2.332678  0
O  O128  1  0.54170089  0.92509352  0.60943222  1  0  -0.694219  0  2.004904  0  0  -0.628555  0  2.241702  0  0  -0.649751  0  2.225559  0  0  -0.331138  -0.613723  0  2.252538  0
O  O129  1  0.95830299  0.07490669  0.10943390  1  0  -0.694212  0  2.004901  0  0  -0.628558  0  2.241687  0  0  -0.649757  0  2.225547  0  0  -0.33116  -0.613721  0  2.252504  0
O  O130  1  0.45829807  0.07490705  0.39056905  1  0  -0.694172  0  2.004868  0  0  -0.628499  0  2.241651  0  0  -0.649705  0  2.225518  0  0  -0.331123  -0.613666  0  2.252486  0
O  O131  1  0.04169997  0.92509165  0.89056444  1  0  -0.694201  0  2.00493  0  0  -0.628559  0  2.241711  0  0  -0.649756  0  2.225571  0  0  -0.331143  -0.613721  0  2.252524  0
O  O132  1  0.60566520  0.90662647  0.78322966  1  0  -0.690848  0  2.113223  0  0  -0.619553  0  2.404213  0  0  -0.643119  0  2.385933  0  0  -0.328772  -0.602988  0  2.416277  0
O  O133  1  0.89433643  0.09337677  0.28323155  1  0  -0.690901  0  2.113271  0  0  -0.619593  0  2.404185  0  0  -0.643153  0  2.3859  0  0  -0.328804  -0.603013  0  2.416211  0
O  O134  1  0.39433728  0.09337414  0.21677161  1  0  -0.69083  0  2.11321  0  0  -0.619544  0  2.404226  0  0  -0.643102  0  2.385936  0  0  -0.328764  -0.602979  0  2.41629  0
O  O135  1  0.10566464  0.90662307  0.71676752  1  0  -0.690885  0  2.113321  0  0  -0.619574  0  2.404244  0  0  -0.64314  0  2.385962  0  0  -0.328785  -0.602992  0  2.41626  0
O  O136  1  0.82411654  0.03914983  0.92368862  1  0  -0.828908  0  1.900972  0  0  -0.770164  0  2.10936  0  0  -0.790639  0  2.075225  0  0  -0.575255  -0.755664  0  2.133003  0
O  O137  1  0.67588229  0.96085020  0.42368917  1  0  -0.828893  0  1.900975  0  0  -0.770148  0  2.109382  0  0  -0.790625  0  2.075246  0  0  -0.575265  -0.755647  0  2.133028  0
O  O138  1  0.17588453  0.96085000  0.07631119  1  0  -0.828956  0  1.900937  0  0  -0.770197  0  2.109305  0  0  -0.790673  0  2.075171  0  0  -0.575256  -0.755697  0  2.132946  0
O  O139  1  0.32411550  0.03915036  0.57631210  1  0  -0.828987  0  1.900926  0  0  -0.770233  0  2.109305  0  0  -0.79071  0  2.07517  0  0  -0.575293  -0.755732  0  2.132952  0
O  O140  1  0.00696660  0.09684136  0.49272508  1  0  -0.639275  0  2.2163  0  0  -0.551203  0  2.493663  0  0  -0.583996  0  2.485921  0  0  -0.31947  -0.528015  0  2.498061  0
O  O141  1  0.49303367  0.90315858  0.99272243  1  0  -0.639322  0  2.216383  0  0  -0.551192  0  2.493631  0  0  -0.583984  0  2.485951  0  0  -0.319504  -0.528007  0  2.498035  0
O  O142  1  0.99303001  0.90315919  0.50727619  1  0  -0.639309  0  2.216164  0  0  -0.551243  0  2.493486  0  0  -0.584056  0  2.485758  0  0  -0.319517  -0.528059  0  2.497882  0
O  O143  1  0.50696858  0.09684127  0.00727665  1  0  -0.639311  0  2.216289  0  0  -0.5512  0  2.493579  0  0  -0.584037  0  2.485893  0  0  -0.319499  -0.528015  0  2.497981  0
