# generated using pymatgen
data_CdH2C2N3Cl
_symmetry_space_group_name_H-M   'P 1'
_cell_length_a   11.13376936
_cell_length_b   11.60214865
_cell_length_c   11.60212381
_cell_angle_alpha   120.00011877
_cell_angle_beta   89.99998979
_cell_angle_gamma   89.99999134
_symmetry_Int_Tables_number   1
_chemical_formula_structural   CdH2C2N3Cl
_chemical_formula_sum   'Cd6 H12 C12 N18 Cl6'
_cell_volume   1297.92098318
_cell_formula_units_Z   6
loop_
 _symmetry_equiv_pos_site_id
 _symmetry_equiv_pos_as_xyz
  1  'x, y, z'
loop_
 _atom_site_type_symbol
 _atom_site_label
 _atom_site_symmetry_multiplicity
 _atom_site_fract_x
 _atom_site_fract_y
 _atom_site_fract_z
 _atom_site_occupancy
 _atom_site_hle17_bader_spin_density
 _atom_site_hle17_ddec_charge
 _atom_site_hle17_ddec_spin_density
 _atom_site_hle17_ddec_sum_bond_order
 _atom_site_hle17_magmom
 _atom_site_hse06_10hf_bader_spin_density
 _atom_site_hse06_10hf_ddec_charge
 _atom_site_hse06_10hf_ddec_spin_density
 _atom_site_hse06_10hf_ddec_sum_bond_order
 _atom_site_hse06_10hf_magmom
 _atom_site_hse06_bader_spin_density
 _atom_site_hse06_ddec_charge
 _atom_site_hse06_ddec_spin_density
 _atom_site_hse06_ddec_sum_bond_order
 _atom_site_hse06_magmom
 _atom_site_pbe_bader_spin_density
 _atom_site_pbe_cm5_charge
 _atom_site_pbe_ddec_charge
 _atom_site_pbe_ddec_spin_density
 _atom_site_pbe_ddec_sum_bond_order
 _atom_site_pbe_magmom
Cd  Cd0  1  0.75000918  0.61402417  0.22804977  1  0  0.967318  0  1.88583  0  0  0.763308  0  2.348468  0  0  0.810971  0  2.308553  0  0  0.703297  0.72987  0  2.375485  0
Cd  Cd1  1  0.41667371  0.77195237  0.38597381  1  0  0.967381  0  1.885769  0  0  0.763361  0  2.348413  0  0  0.811024  0  2.308496  0  0  0.70332  0.729922  0  2.375435  0
Cd  Cd2  1  0.08334186  0.61402159  0.38597480  1  0  0.967376  0  1.885741  0  0  0.763364  0  2.348374  0  0  0.811027  0  2.308458  0  0  0.703291  0.729924  0  2.375392  0
Cd  Cd3  1  0.25000867  0.38597629  0.77195078  1  0  0.96732  0  1.885822  0  0  0.763305  0  2.348467  0  0  0.810968  0  2.308551  0  0  0.703288  0.729867  0  2.375487  0
Cd  Cd4  1  0.91667331  0.22804704  0.61402619  1  0  0.967336  0  1.885778  0  0  0.763311  0  2.348421  0  0  0.810974  0  2.308505  0  0  0.703297  0.72987  0  2.375441  0
Cd  Cd5  1  0.58334234  0.38597793  0.61402531  1  0  0.967339  0  1.885786  0  0  0.763312  0  2.348421  0  0  0.810976  0  2.308507  0  0  0.703278  0.729875  0  2.37544  0
H  H6  1  0.76496364  0.95223836  0.36839279  1  0  0.089386  0  0.971944  0  0  0.096423  0  1.042656  0  0  0.098434  0  1.039403  0  0  0.117721  0.094834  0  1.045102  0
H  H7  1  0.43162371  0.63161092  0.58384949  1  0  0.08944  0  0.971809  0  0  0.096453  0  1.042553  0  0  0.098465  0  1.0393  0  0  0.11774  0.094863  0  1.044998  0
H  H8  1  0.09829102  0.41615481  0.04775907  1  0  0.089389  0  0.971847  0  0  0.096418  0  1.042575  0  0  0.098433  0  1.039314  0  0  0.117701  0.094825  0  1.045019  0
H  H9  1  0.26496321  0.04776110  0.63160726  1  0  0.089405  0  0.97192  0  0  0.096443  0  1.04263  0  0  0.098455  0  1.039377  0  0  0.117727  0.094853  0  1.045076  0
H  H10  1  0.93162333  0.36838948  0.41615186  1  0  0.08942  0  0.971866  0  0  0.096466  0  1.042568  0  0  0.098478  0  1.039315  0  0  0.117739  0.094875  0  1.045014  0
H  H11  1  0.59829141  0.58384470  0.95224103  1  0  0.089475  0  0.971827  0  0  0.096511  0  1.042539  0  0  0.098527  0  1.039278  0  0  0.11773  0.094917  0  1.044982  0
H  H12  1  0.90172056  0.36839151  0.95224179  1  0  0.089437  0  0.972028  0  0  0.096462  0  1.042736  0  0  0.098474  0  1.039486  0  0  0.117729  0.094871  0  1.045181  0
H  H13  1  0.23504967  0.58384812  0.63160838  1  0  0.089403  0  0.972041  0  0  0.096444  0  1.042735  0  0  0.098457  0  1.039482  0  0  0.117713  0.094853  0  1.045181  0
H  H14  1  0.56838788  0.04776064  0.41614731  1  0  0.089397  0  0.972051  0  0  0.096441  0  1.04275  0  0  0.098457  0  1.039492  0  0  0.117706  0.094852  0  1.045196  0
H  H15  1  0.40172104  0.63160791  0.04775821  1  0  0.089479  0  0.971966  0  0  0.096498  0  1.042687  0  0  0.098512  0  1.039434  0  0  0.117744  0.094908  0  1.045133  0
H  H16  1  0.73504929  0.41615134  0.36839082  1  0  0.08941  0  0.971998  0  0  0.096452  0  1.042694  0  0  0.098464  0  1.039443  0  0  0.117732  0.094862  0  1.04514  0
H  H17  1  0.06838821  0.95223888  0.58385194  1  0  0.0894  0  0.972041  0  0  0.096445  0  1.04274  0  0  0.098461  0  1.039481  0  0  0.117714  0.094854  0  1.045185  0
C  C18  1  0.83953138  0.92040543  0.40590356  1  0  0.212785  0  3.729778  0  0  0.156536  0  3.988887  0  0  0.170546  0  4.004491  0  0  0.134916  0.147404  0  3.978035  0
C  C19  1  0.50619326  0.59410090  0.51450110  1  0  0.212769  0  3.72971  0  0  0.156535  0  3.988829  0  0  0.170545  0  4.004433  0  0  0.134884  0.147406  0  3.977977  0
C  C20  1  0.17285965  0.48550171  0.07959778  1  0  0.212824  0  3.729883  0  0  0.156598  0  3.989  0  0  0.170609  0  4.004605  0  0  0.134965  0.14747  0  3.978142  0
C  C21  1  0.33953185  0.07959599  0.59409660  1  0  0.212769  0  3.729823  0  0  0.156523  0  3.988933  0  0  0.170533  0  4.004537  0  0  0.134926  0.147394  0  3.97808  0
C  C22  1  0.00619280  0.40589765  0.48549767  1  0  0.212706  0  3.729792  0  0  0.156455  0  3.988902  0  0  0.170465  0  4.004508  0  0  0.134823  0.147325  0  3.978047  0
C  C23  1  0.67285915  0.51449778  0.92040229  1  0  0.212657  0  3.72992  0  0  0.156424  0  3.989029  0  0  0.170433  0  4.004635  0  0  0.1349  0.1473  0  3.978171  0
C  C24  1  0.82715731  0.40589437  0.92039996  1  0  0.212628  0  3.729808  0  0  0.156402  0  3.98895  0  0  0.170405  0  4.00456  0  0  0.134913  0.147272  0  3.978096  0
C  C25  1  0.16048823  0.51450619  0.59410422  1  0  0.212699  0  3.729637  0  0  0.15645  0  3.988755  0  0  0.170454  0  4.004363  0  0  0.134922  0.14732  0  3.977902  0
C  C26  1  0.49382642  0.07960173  0.48549261  1  0  0.212801  0  3.729574  0  0  0.156544  0  3.988704  0  0  0.170546  0  4.004316  0  0  0.134998  0.147416  0  3.977853  0
C  C27  1  0.32715779  0.59410507  0.07959920  1  0  0.212609  0  3.729798  0  0  0.156384  0  3.988934  0  0  0.170387  0  4.004546  0  0  0.134892  0.147253  0  3.978082  0
C  C28  1  0.66048783  0.48549429  0.40589636  1  0  0.21272  0  3.72966  0  0  0.156461  0  3.988782  0  0  0.170465  0  4.00439  0  0  0.134916  0.147332  0  3.977931  0
C  C29  1  0.99382593  0.92039865  0.51450699  1  0  0.212823  0  3.729591  0  0  0.15656  0  3.988723  0  0  0.170561  0  4.004335  0  0  0.13499  0.147432  0  3.977867  0
N  N30  1  0.91667513  0.00349613  0.50175041  1  0  -0.423014  0  3.240704  0  0  -0.330464  0  3.515284  0  0  -0.355553  0  3.530012  0  0  -0.365946  -0.313436  0  3.504616  0
N  N31  1  0.58333515  0.49825456  0.50174979  1  0  -0.423053  0  3.240872  0  0  -0.330489  0  3.515411  0  0  -0.355579  0  3.530135  0  0  -0.365904  -0.313461  0  3.504747  0
N  N32  1  0.25000505  0.49825058  0.99649777  1  0  -0.422923  0  3.240552  0  0  -0.330403  0  3.515116  0  0  -0.355495  0  3.529843  0  0  -0.365862  -0.313374  0  3.50445  0
N  N33  1  0.41667547  0.99650428  0.49824922  1  0  -0.423006  0  3.240639  0  0  -0.330465  0  3.51522  0  0  -0.355555  0  3.529948  0  0  -0.365942  -0.313436  0  3.504554  0
N  N34  1  0.08333557  0.50174496  0.49824945  1  0  -0.42301  0  3.240796  0  0  -0.330474  0  3.515368  0  0  -0.355564  0  3.530093  0  0  -0.365889  -0.313445  0  3.504701  0
N  N35  1  0.75000472  0.50174889  0.00350142  1  0  -0.422912  0  3.240495  0  0  -0.330397  0  3.515071  0  0  -0.355488  0  3.529797  0  0  -0.36588  -0.313369  0  3.504405  0
N  N36  1  0.86689140  0.79337495  0.36177510  1  0  -0.287477  0  3.218945  0  0  -0.214835  0  3.494347  0  0  -0.233141  0  3.514187  0  0  -0.26415  -0.202424  0  3.480552  0
N  N37  1  0.53355327  0.63822602  0.43160104  1  0  -0.28743  0  3.219035  0  0  -0.214797  0  3.494454  0  0  -0.233101  0  3.514294  0  0  -0.264124  -0.202386  0  3.480661  0
N  N38  1  0.20022144  0.56839710  0.20661872  1  0  -0.28756  0  3.21922  0  0  -0.214927  0  3.494634  0  0  -0.233231  0  3.514474  0  0  -0.264218  -0.202517  0  3.480838  0
N  N39  1  0.36689095  0.20662447  0.63822491  1  0  -0.287491  0  3.219022  0  0  -0.214848  0  3.494423  0  0  -0.233153  0  3.514263  0  0  -0.264151  -0.202437  0  3.480629  0
N  N40  1  0.03355370  0.36177450  0.56839872  1  0  -0.287387  0  3.219063  0  0  -0.214749  0  3.494478  0  0  -0.233054  0  3.51432  0  0  -0.26407  -0.202339  0  3.480683  0
N  N41  1  0.70022187  0.43160238  0.79338135  1  0  -0.287433  0  3.219207  0  0  -0.21479  0  3.494607  0  0  -0.233094  0  3.51445  0  0  -0.264127  -0.20238  0  3.480812  0
N  N42  1  0.79979013  0.36177282  0.79338420  1  0  -0.287293  0  3.219101  0  0  -0.214653  0  3.494504  0  0  -0.232953  0  3.514345  0  0  -0.264163  -0.202247  0  3.480709  0
N  N43  1  0.13312194  0.43160715  0.63822857  1  0  -0.287319  0  3.218928  0  0  -0.214678  0  3.494341  0  0  -0.232979  0  3.514183  0  0  -0.264158  -0.202271  0  3.480546  0
N  N44  1  0.46645921  0.20662134  0.56839129  1  0  -0.287352  0  3.219082  0  0  -0.214714  0  3.494499  0  0  -0.233014  0  3.514342  0  0  -0.264159  -0.202307  0  3.480706  0
N  N45  1  0.29979059  0.63822762  0.20661633  1  0  -0.287268  0  3.219034  0  0  -0.214624  0  3.494429  0  0  -0.232924  0  3.514271  0  0  -0.264117  -0.202216  0  3.480635  0
N  N46  1  0.63312243  0.56839334  0.36177202  1  0  -0.287331  0  3.218944  0  0  -0.214688  0  3.494361  0  0  -0.232989  0  3.514203  0  0  -0.264153  -0.202279  0  3.480566  0
N  N47  1  0.96645965  0.79337905  0.43160832  1  0  -0.287373  0  3.219054  0  0  -0.214735  0  3.494467  0  0  -0.233034  0  3.51431  0  0  -0.264148  -0.202328  0  3.48067  0
Cl  Cl48  1  0.91667512  0.44829454  0.22414783  1  0  -0.573879  0  0.900124  0  0  -0.509269  0  1.169864  0  0  -0.527277  0  1.145077  0  0  -0.314395  -0.496238  0  1.186724  0
Cl  Cl49  1  0.58334414  0.77585340  0.22414827  1  0  -0.57389  0  0.900129  0  0  -0.509272  0  1.169872  0  0  -0.527279  0  1.14508  0  0  -0.3144  -0.496239  0  1.186732  0
Cl  Cl50  1  0.25000956  0.77585110  0.55170182  1  0  -0.57388  0  0.900138  0  0  -0.509257  0  1.169866  0  0  -0.527265  0  1.145078  0  0  -0.314381  -0.496225  0  1.186728  0
Cl  Cl51  1  0.41667548  0.55170487  0.77585130  1  0  -0.573876  0  0.900126  0  0  -0.509255  0  1.169859  0  0  -0.527264  0  1.145072  0  0  -0.314388  -0.496222  0  1.186719  0
Cl  Cl52  1  0.08334455  0.22414711  0.77585148  1  0  -0.57388  0  0.900132  0  0  -0.509265  0  1.169875  0  0  -0.527273  0  1.145087  0  0  -0.314405  -0.496234  0  1.186737  0
Cl  Cl53  1  0.75000919  0.22414936  0.44829786  1  0  -0.573863  0  0.900139  0  0  -0.509242  0  1.169874  0  0  -0.52725  0  1.145087  0  0  -0.314385  -0.496209  0  1.186735  0
