# generated using pymatgen
data_MnH20C20(NO3)2
_symmetry_space_group_name_H-M   'P 1'
_cell_length_a   5.50830924
_cell_length_b   7.90853216
_cell_length_c   10.84251279
_cell_angle_alpha   108.91930454
_cell_angle_beta   98.15026123
_cell_angle_gamma   96.79070639
_symmetry_Int_Tables_number   1
_chemical_formula_structural   MnH20C20(NO3)2
_chemical_formula_sum   'Mn1 H20 C20 N2 O6'
_cell_volume   435.44495718
_cell_formula_units_Z   1
loop_
 _symmetry_equiv_pos_site_id
 _symmetry_equiv_pos_as_xyz
  1  'x, y, z'
loop_
 _atom_site_type_symbol
 _atom_site_label
 _atom_site_symmetry_multiplicity
 _atom_site_fract_x
 _atom_site_fract_y
 _atom_site_fract_z
 _atom_site_occupancy
 _atom_site_hle17_bader_charge
 _atom_site_hle17_bader_spin_density
 _atom_site_hle17_ddec_charge
 _atom_site_hle17_ddec_spin_density
 _atom_site_hle17_ddec_sum_bond_order
 _atom_site_hle17_magmom
 _atom_site_hse06_10hf_ddec_charge
 _atom_site_hse06_10hf_ddec_spin_density
 _atom_site_hse06_10hf_ddec_sum_bond_order
 _atom_site_hse06_10hf_magmom
 _atom_site_hse06_ddec_charge
 _atom_site_hse06_ddec_spin_density
 _atom_site_hse06_ddec_sum_bond_order
 _atom_site_hse06_magmom
 _atom_site_pbe_cm5_charge
 _atom_site_pbe_ddec_charge
 _atom_site_pbe_ddec_spin_density
 _atom_site_pbe_ddec_sum_bond_order
 _atom_site_pbe_magmom
Mn  Mn0  1  0.00014358  0.99957176  0.99968441  1  1.417106  1.284705  0.869214  1.334185  2.612087  1.292  0.771701  1.20105  3.147747  1.163  0.81082  1.135076  3.091331  1.094  0.642015  0.751068  1.253645  3.176336  1.214
H  H1  1  0.26850488  0.58297507  0.25166657  1  -0.008553  -0.000121  0.110915  -0.000125  0.95102  0.0  0.123471  -0.000107  1.014405  0.0  0.122753  2e-05  1.017225  0.0  0.100765  0.124547  -0.000303  1.011881  0.0
H  H2  1  0.73195273  0.41701671  0.74836517  1  -0.007854  -0.000113  0.111411  -0.000132  0.950582  0.0  0.124037  -0.000113  1.013791  0.0  0.123186  1.8e-05  1.016737  0.0  0.100924  0.125089  -0.000298  1.011287  0.0
H  H3  1  0.50909227  0.68584741  0.19157669  1  -0.016836  -0.000288  0.125174  -0.00027  0.940916  0.0  0.140234  -0.000299  0.996697  0.0  0.143897  -0.000299  0.993909  0.0  0.10693  0.137448  -0.000289  0.998989  0.0
H  H4  1  0.49151845  0.31422234  0.80839308  1  -0.01636  -0.000287  0.125595  -0.000267  0.941371  0.0  0.140316  -0.000298  0.997477  0.0  0.143982  -0.000297  0.994683  0.0  0.106757  0.137544  -0.000292  0.999748  0.0
H  H5  1  0.09026704  0.79864106  0.44217640  1  0.022837  -0.000179  0.089444  -0.000217  0.981462  0.0  0.100727  -0.000216  1.044759  0.0  0.102132  -0.000126  1.045967  0.0  0.096334  0.09981  -0.000342  1.043956  0.0
H  H6  1  0.90988784  0.20148781  0.55778095  1  0.022769  -0.000192  0.089297  -0.000231  0.981524  0.0  0.100589  -0.000226  1.044824  0.0  0.102015  -0.000129  1.045984  0.0  0.096339  0.099654  -0.000357  1.04405  0.0
H  H7  1  0.78410389  0.95940598  0.33797816  1  -0.018632  5e-06  0.094174  -4e-06  0.96151  0.0  0.10286  -6.1e-05  1.02711  0.0  0.106094  -4.9e-05  1.026289  0.0  0.097897  0.100452  -7.4e-05  1.02784  0.0
H  H8  1  0.21584959  0.04063169  0.66198101  1  -0.017569  -6e-06  0.094337  -2.1e-05  0.960879  0.0  0.102918  -7.3e-05  1.026588  0.0  0.106034  -5.4e-05  1.025935  0.0  0.098005  0.100501  -8.9e-05  1.027335  0.0
H  H9  1  0.68289699  0.27771220  0.11407349  1  0.110504  0.000145  0.092655  -0.000366  0.98011  0.0  0.098969  -0.000594  1.04431  0.0  0.104663  -0.000499  1.037964  0.0  0.118165  0.094453  -0.000632  1.04944  0.0
H  H10  1  0.31804826  0.72356988  0.88564080  1  0.106132  0.000588  0.09255  -0.000181  0.981641  0.001  0.098594  -0.000667  1.046106  0.0  0.104425  -0.000525  1.039462  0.0  0.117999  0.094112  -0.000707  1.051157  0.0
H  H11  1  0.66698186  0.49175613  0.33045500  1  0.001305  -0.000216  0.101279  -9.2e-05  0.97062  0.0  0.112754  -0.000211  1.031646  0.0  0.115982  -7.1e-05  1.030186  0.0  0.105786  0.110163  -0.000487  1.033432  0.0
H  H12  1  0.33334975  0.50948601  0.66943556  1  0.005689  -0.000639  0.100129  -0.000387  0.97209  0.0  0.111922  -0.000207  1.032797  0.0  0.115296  -7.6e-05  1.031194  0.0  0.105575  0.10932  -0.000487  1.034593  0.0
H  H13  1  0.35418174  0.34951895  0.48505859  1  0.00552  5.8e-05  0.099759  0.000177  0.977542  0.0  0.109184  2.6e-05  1.041098  0.0  0.111527  0.0001  1.041781  0.0  0.10241  0.107377  -0.000141  1.041046  0.0
H  H14  1  0.64427889  0.64961601  0.51542029  1  0.005441  -0.000334  0.099206  -9e-05  0.978064  0.0  0.109075  6e-05  1.040988  0.0  0.111567  0.000104  1.041554  0.0  0.102226  0.107257  -0.000116  1.041035  0.0
H  H15  1  0.34534009  0.14546909  0.26113315  1  0.064012  0.000133  0.079982  -0.000101  0.978747  0.0  0.082903  -0.000474  1.051446  0.0  0.086707  -0.000336  1.047745  0.0  0.113439  0.079882  -0.000628  1.054767  0.0
H  H16  1  0.65330648  0.85357075  0.73926968  1  0.097772  0.00059  0.079555  5.8e-05  0.980869  0.001  0.082976  -0.000599  1.053008  0.0  0.086825  -0.000381  1.049116  0.0  0.113508  0.080008  -0.000742  1.056209  0.0
H  H17  1  0.55984831  0.90743072  0.06786778  1  0.638233  0.001757  0.414212  0.000804  0.850398  0.002  0.390186  -0.000379  0.917657  0.0  0.39859  -0.000302  0.909989  0.0  0.31105  0.384153  -0.000527  0.922986  0.0
H  H18  1  0.44059284  0.09227319  0.93216787  1  0.637046  0.0018  0.413778  0.000828  0.851116  0.002  0.389528  -0.000354  0.918567  0.0  0.397804  -0.000296  0.911109  0.0  0.31094  0.383483  -0.0005  0.923881  0.0
H  H19  1  0.76159053  0.77054649  0.06298444  1  0.656781  0.00044  0.40801  9.9e-05  0.908903  0.001  0.376497  0.00012  0.976773  0.001  0.388739  -8.5e-05  0.959877  0.001  0.291919  0.367977  0.000396  0.988442  0.001
H  H20  1  0.23872676  0.22895492  0.93682401  1  0.658875  0.000446  0.407776  0.000119  0.908233  0.001  0.375873  0.000137  0.977444  0.001  0.388137  -7.3e-05  0.960516  0.001  0.291896  0.367335  0.000414  0.98914  0.002
C  C21  1  0.14594509  0.75531319  0.15014826  1  1.500134  -0.003553  0.709632  -0.004836  3.761791  -0.001  0.6618  -0.003122  4.064603  -0.001  0.697569  -0.001975  4.057897  0.0  0.228091  0.636738  -0.004461  4.068252  -0.002
C  C22  1  0.85421582  0.24432877  0.84969351  1  1.498896  -0.003567  0.709227  -0.004851  3.762885  -0.001  0.661814  -0.003137  4.065053  -0.001  0.697527  -0.001995  4.058421  0.0  0.228062  0.636768  -0.004478  4.06876  -0.002
C  C23  1  0.34753821  0.70930922  0.23949561  1  0.177398  -0.000687  -0.316203  -0.001187  3.676718  0.0  -0.359508  -0.001057  3.917744  0.0  -0.365076  -0.000633  3.924312  0.0  -0.161858  -0.355396  -0.001549  3.912807  -0.001
C  C24  1  0.65288718  0.29063534  0.76045834  1  0.177351  -0.000672  -0.317213  -0.001168  3.677928  0.0  -0.360569  -0.001052  3.919318  0.0  -0.366177  -0.00062  3.926105  0.0  -0.161935  -0.356421  -0.001553  3.914418  -0.001
C  C25  1  0.42756146  0.85987134  0.37376546  1  -0.047402  -0.000652  0.10343  -0.000659  3.753251  0.0  0.12153  -0.000438  3.993379  0.0  0.122402  -0.00038  4.017148  0.0  -0.014667  0.120881  -0.000526  3.976923  0.0
C  C26  1  0.57253086  0.14020996  0.62618737  1  -0.04596  -0.000678  0.10332  -0.000688  3.752392  0.0  0.121293  -0.000487  3.992636  0.0  0.122091  -0.000399  4.016551  0.0  -0.014934  0.120606  -0.000592  3.976248  0.0
C  C27  1  0.27121385  0.88623234  0.46725852  1  0.023859  -0.000397  -0.124532  -0.000552  3.750373  0.0  -0.143489  -0.000473  3.997413  0.0  -0.147909  -0.000382  4.02283  0.0  -0.096694  -0.140065  -0.000571  3.979546  0.0
C  C28  1  0.72898541  0.11379859  0.53273694  1  0.05016  -0.000451  -0.123693  -0.000613  3.749595  0.0  -0.142573  -0.000546  3.996576  0.0  -0.14696  -0.000411  4.021885  0.0  -0.096422  -0.139157  -0.000662  3.978744  0.0
C  C29  1  0.65767164  0.97684112  0.40831914  1  -0.030046  -0.000571  -0.122417  -0.000546  3.742715  0.0  -0.14013  -0.000663  3.993422  0.0  -0.143019  -0.000447  4.015092  0.0  -0.095471  -0.137772  -0.000784  3.978201  0.0
C  C30  1  0.34243829  0.02317754  0.59168987  1  -0.002143  -0.000591  -0.12162  -0.000566  3.741212  0.0  -0.139278  -0.000652  3.992031  0.0  -0.142301  -0.000454  4.014001  0.0  -0.09512  -0.136942  -0.000751  3.976866  0.0
C  C31  1  0.82822808  0.29601109  0.19848953  1  0.443254  -0.01707  0.120246  -0.018107  3.672851  -0.01  0.087609  -0.011646  3.933172  -0.005  0.100496  -0.011556  3.936318  -0.005  0.037019  0.077604  -0.012207  3.934285  -0.005
C  C32  1  0.17232662  0.70490723  0.80138889  1  0.50347  -0.030289  0.11695  -0.03261  3.675301  -0.019  0.085475  -0.016006  3.934696  -0.008  0.099126  -0.013718  3.937063  -0.007  0.035912  0.075297  -0.015794  3.936224  -0.007
C  C33  1  0.82065123  0.41672918  0.32230083  1  0.086523  -0.006725  -0.151486  -0.007621  3.71669  -0.003  -0.171261  -0.007431  3.971417  -0.003  -0.175412  -0.001711  3.983578  0.0  -0.086719  -0.169427  -0.012448  3.965433  -0.006
C  C34  1  0.17930960  0.58403279  0.67764754  1  -0.003936  0.005812  -0.148302  0.003926  3.720504  0.006  -0.168701  -0.004784  3.97431  -0.001  -0.173328  -0.000362  3.985759  0.001  -0.086182  -0.16681  -0.010117  3.96809  -0.004
C  C35  1  0.00506694  0.44053651  0.43347840  1  -0.062554  -0.030171  0.072637  -0.032143  3.795742  -0.018  0.081785  -0.023432  4.029514  -0.013  0.089105  -0.01828  4.044416  -0.01  -0.003415  0.075536  -0.030212  4.020566  -0.016
C  C36  1  0.99432273  0.55974866  0.56661680  1  0.007566  -0.047493  0.065701  -0.050845  3.799812  -0.031  0.076409  -0.030311  4.03299  -0.017  0.08568  -0.021342  4.047048  -0.012  -0.005393  0.070634  -0.035778  4.02381  -0.02
C  C37  1  0.19945627  0.34056888  0.40733448  1  0.092716  -0.005871  -0.17069  -0.006587  3.72724  -0.002  -0.186937  -0.006578  3.977895  -0.002  -0.192558  -0.000696  3.993748  0.001  -0.091552  -0.183652  -0.011255  3.968838  -0.005
C  C38  1  0.79952687  0.65915639  0.59300698  1  0.094442  0.006523  -0.167792  0.004521  3.732205  0.006  -0.184369  -0.003766  3.982061  0.0  -0.190455  0.000658  3.997154  0.002  -0.091053  -0.18134  -0.009257  3.972915  -0.003
C  C39  1  0.19664776  0.22333283  0.28071366  1  0.443192  -0.014414  0.113019  -0.014902  3.693764  -0.008  0.082197  -0.010103  3.950151  -0.005  0.092961  -0.010182  3.95882  -0.005  0.033162  0.07333  -0.010924  3.947866  -0.004
C  C40  1  0.80244564  0.77627489  0.71960549  1  0.40456  -0.027895  0.109916  -0.029315  3.696899  -0.017  0.07863  -0.014465  3.953753  -0.007  0.090799  -0.01236  3.960462  -0.006  0.031886  0.070071  -0.01438  3.951193  -0.007
N  N41  1  0.01029840  0.19431862  0.17525283  1  -1.200703  -0.042857  -0.284521  -0.0473  3.298861  -0.037  -0.22721  -0.029858  3.583834  -0.025  -0.238049  -0.017651  3.589283  -0.014  -0.354708  -0.221753  -0.039502  3.580452  -0.033
N  N42  1  0.98954927  0.80597662  0.82496117  1  -1.204264  -0.038009  -0.283893  -0.041347  3.305346  -0.031  -0.226329  -0.029649  3.590134  -0.024  -0.237122  -0.016982  3.594837  -0.014  -0.357653  -0.220764  -0.039667  3.586401  -0.033
O  O43  1  0.21830193  0.87153140  0.09601221  1  -1.179717  -0.003498  -0.621497  -0.007194  2.138043  -0.012  -0.555083  0.000547  2.402995  -0.004  -0.592901  0.000541  2.396811  -0.004  -0.296929  -0.527482  0.001586  2.403948  -0.004
O  O44  1  0.78190607  0.12821518  0.90394651  1  -1.18058  -0.003269  -0.620605  -0.006971  2.137483  -0.012  -0.554762  0.000615  2.402837  -0.004  -0.592549  0.00064  2.396718  -0.003  -0.296839  -0.527267  0.001518  2.403888  -0.004
O  O45  1  0.92152065  0.68430148  0.13686118  1  -1.1921  -0.001738  -0.597187  -0.001816  1.956647  -0.001  -0.545052  -0.001191  2.171059  -0.001  -0.570865  -0.001387  2.161694  -0.001  -0.30612  -0.526725  -0.000618  2.177163  0.0
O  O46  1  0.07858033  0.31516608  0.86272035  1  -1.190484  -0.001796  -0.59705  -0.001883  1.956439  -0.001  -0.544732  -0.001194  2.170846  -0.001  -0.57061  -0.001389  2.16148  -0.001  -0.306154  -0.526372  -0.000653  2.176914  0.0
O  O47  1  0.68324144  0.85381931  0.01656011  1  -1.263733  -0.00884  -0.77732  -0.013957  2.005011  -0.017  -0.727731  0.002141  2.234899  -0.002  -0.762705  0.000844  2.212915  -0.003  -0.552797  -0.701665  0.004074  2.247752  -0.001
O  O48  1  0.31715735  0.14595118  0.98341841  1  -1.264118  -0.008873  -0.776509  -0.013968  2.004184  -0.017  -0.726138  0.002225  2.234801  -0.002  -0.760938  0.000906  2.212806  -0.003  -0.552396  -0.700089  0.004118  2.247772  -0.001
