# generated using pymatgen
data_MnV2H9C5N2O7
_symmetry_space_group_name_H-M   'P 1'
_cell_length_a   5.86016409
_cell_length_b   7.83949304
_cell_length_c   11.91205952
_cell_angle_alpha   100.35166588
_cell_angle_beta   101.51629482
_cell_angle_gamma   98.44055380
_symmetry_Int_Tables_number   1
_chemical_formula_structural   MnV2H9C5N2O7
_chemical_formula_sum   'Mn2 V4 H18 C10 N4 O14'
_cell_volume   517.94585006
_cell_formula_units_Z   2
loop_
 _symmetry_equiv_pos_site_id
 _symmetry_equiv_pos_as_xyz
  1  'x, y, z'
loop_
 _atom_site_type_symbol
 _atom_site_label
 _atom_site_symmetry_multiplicity
 _atom_site_fract_x
 _atom_site_fract_y
 _atom_site_fract_z
 _atom_site_occupancy
 _atom_site_hle17_ddec_charge
 _atom_site_hle17_ddec_spin_density
 _atom_site_hle17_ddec_sum_bond_order
 _atom_site_hle17_magmom
 _atom_site_hse06_10hf_ddec_charge
 _atom_site_hse06_10hf_ddec_spin_density
 _atom_site_hse06_10hf_ddec_sum_bond_order
 _atom_site_hse06_10hf_magmom
 _atom_site_hse06_ddec_charge
 _atom_site_hse06_ddec_spin_density
 _atom_site_hse06_ddec_sum_bond_order
 _atom_site_hse06_magmom
 _atom_site_pbe_cm5_charge
 _atom_site_pbe_ddec_charge
 _atom_site_pbe_ddec_spin_density
 _atom_site_pbe_ddec_sum_bond_order
 _atom_site_pbe_magmom
Mn  Mn0  1  0.49768503  0.14701259  0.92002967  1  1.263536  4.679107  1.980093  4.564  1.18595  4.538605  2.464621  4.374  1.224367  4.648396  2.389006  4.499  0.634381  1.155475  4.417065  2.518354  4.242
Mn  Mn1  1  0.50240314  0.85288762  0.07989648  1  1.263649  -4.677825  1.983459  -4.563  1.186327  -4.53698  2.468139  -4.373  1.224597  -4.647215  2.392512  -4.498  0.634621  1.155895  -4.415113  2.521897  -4.24
V  V2  1  0.26651752  0.42634999  0.10053589  1  2.019607  -0.020517  2.920556  -0.023  2.08114  -0.021782  3.297362  -0.025  2.177353  -0.021886  3.279278  -0.025  1.461823  2.005073  -0.02023  3.329502  -0.023
V  V3  1  0.73357867  0.57375947  0.89948139  1  2.019569  0.019365  2.920091  0.022  2.081533  0.020579  3.296112  0.023  2.17727  0.020906  3.278758  0.024  1.461976  2.005281  0.019  3.328598  0.022
V  V4  1  0.22528181  0.69639746  0.79551585  1  1.997583  -0.015137  2.927144  -0.017  2.06014  -0.016058  3.308351  -0.018  2.15406  -0.009786  3.287143  -0.011  1.459649  1.984997  -0.020857  3.344563  -0.023
V  V5  1  0.77465588  0.30351412  0.20444888  1  1.997055  0.014317  2.927774  0.016  2.059723  0.015334  3.308826  0.017  2.153519  0.00919  3.287826  0.01  1.459289  1.984318  0.020061  3.345449  0.022
H  H6  1  0.61749003  0.13826514  0.65610504  1  0.09181  -0.000239  0.949412  0.0  0.102779  7.3e-05  1.015365  0.0  0.104101  3e-05  1.014265  0.0  0.139525  0.102022  0.000109  1.015842  0.0
H  H7  1  0.38249875  0.86170385  0.34393055  1  0.091856  0.000242  0.949306  0.0  0.102832  -7.2e-05  1.015256  0.0  0.104154  -2.8e-05  1.01416  0.0  0.13946  0.10207  -0.000108  1.015742  0.0
H  H8  1  0.00052771  0.22813293  0.76963725  1  0.104341  -0.000311  0.971567  0.0  0.116681  -0.000134  1.02862  0.0  0.118569  -0.000204  1.027696  0.0  0.12308  0.115429  -6.6e-05  1.029311  0.0
H  H9  1  0.99946730  0.77186015  0.23037422  1  0.104497  0.000315  0.971348  0.0  0.116815  0.000133  1.028413  0.0  0.118701  0.000204  1.02749  0.0  0.12313  0.115558  6.6e-05  1.029118  0.0
H  H10  1  0.95690537  0.28062225  0.54055619  1  0.120489  0.000198  0.974586  0.0  0.132177  0.000247  1.034978  0.0  0.134983  0.000211  1.03326  0.0  0.12228  0.130286  0.000274  1.036223  0.0
H  H11  1  0.04312010  0.71940133  0.45944943  1  0.120479  -0.000201  0.974469  0.0  0.132225  -0.000246  1.034793  0.0  0.135038  -0.00021  1.03308  0.0  0.122279  0.130328  -0.000273  1.036044  0.0
H  H12  1  0.22101615  0.16895111  0.38486899  1  0.083585  9.3e-05  0.931485  0.0  0.097134  0.000122  0.998396  0.0  0.09805  0.000125  0.997863  0.0  0.111368  0.096434  0.000118  0.998778  0.0
H  H13  1  0.77902204  0.83108150  0.61515663  1  0.0836  -9e-05  0.931599  0.0  0.097192  -0.000122  0.998434  0.0  0.098115  -0.000126  0.99789  0.0  0.111362  0.096491  -0.000118  0.998817  0.0
H  H14  1  0.52793436  0.19756218  0.45197215  1  0.076751  -3.3e-05  0.942442  0.0  0.092237  -1.5e-05  1.008559  0.0  0.093322  -1.9e-05  1.00771  0.0  0.108509  0.091289  -1.2e-05  1.009451  0.0
H  H15  1  0.47208643  0.80242956  0.54804170  1  0.076814  3.1e-05  0.942331  0.0  0.092267  1.5e-05  1.008524  0.0  0.093357  2e-05  1.007666  0.0  0.108487  0.091324  1.2e-05  1.0094  0.0
H  H16  1  0.22984011  0.48815826  0.46477945  1  0.067459  -4e-06  0.948238  0.0  0.085591  2.1e-05  1.013854  0.0  0.086094  1.7e-05  1.014159  0.0  0.091755  0.085189  2.4e-05  1.013778  0.0
H  H17  1  0.77021340  0.51187303  0.53524753  1  0.067384  -1.1e-05  0.948465  0.0  0.085581  -2.1e-05  1.01396  0.0  0.086074  -1.7e-05  1.014242  0.0  0.091747  0.085183  -2.5e-05  1.013884  0.0
H  H18  1  0.41354301  0.45102528  0.36554651  1  0.086067  2.4e-05  0.977044  0.0  0.10393  5.3e-05  1.038848  0.0  0.105298  5.2e-05  1.038638  0.0  0.094608  0.103171  5.8e-05  1.038567  0.0
H  H19  1  0.58653305  0.54896486  0.63449359  1  0.086128  -2.9e-05  0.976986  0.0  0.103958  -5.2e-05  1.03885  0.0  0.105309  -5.1e-05  1.038631  0.0  0.094515  0.103202  -5.7e-05  1.038573  0.0
H  H20  1  0.79729075  0.93044215  0.91209717  1  0.399609  0.000523  0.898702  0.0  0.368845  0.001214  0.980399  0.001  0.378475  0.001023  0.966128  0.001  0.298618  0.362502  0.001344  0.988954  0.001
H  H21  1  0.20257791  0.06960147  0.08788367  1  0.399401  -0.000521  0.898792  0.0  0.368656  -0.001212  0.980598  -0.001  0.37827  -0.001021  0.966351  -0.001  0.298513  0.362318  -0.001343  0.989025  -0.001
H  H22  1  0.95159372  0.11336511  0.91566062  1  0.430904  -0.00067  0.864272  0.001  0.407914  -6.4e-05  0.921385  0.001  0.418042  -0.000275  0.906592  0.001  0.299198  0.400631  0.000138  0.932008  0.001
H  H23  1  0.04830609  0.88668481  0.08434926  1  0.430913  0.000672  0.864325  -0.001  0.407793  6.7e-05  0.921574  -0.001  0.417914  0.000279  0.906796  -0.001  0.29924  0.400523  -0.000136  0.93217  -0.001
C  C24  1  0.44382576  0.16925658  0.65791161  1  0.166045  0.006446  3.641996  0.006  0.107332  0.00808  3.907824  0.007  0.120137  0.007462  3.921879  0.007  0.151479  0.098984  0.008722  3.897177  0.008
C  C25  1  0.55614607  0.83072072  0.34209059  1  0.166007  -0.006457  3.641698  -0.006  0.107328  -0.008063  3.907514  -0.007  0.120115  -0.007446  3.921594  -0.007  0.151594  0.098984  -0.008701  3.896862  -0.008
C  C26  1  0.11982248  0.21340219  0.71162977  1  0.014735  0.002106  3.741123  0.003  -0.018016  0.003957  4.010725  0.004  -0.01553  0.003497  4.029988  0.004  0.006003  -0.019756  0.004384  3.996781  0.004
C  C27  1  0.88016415  0.78659892  0.28837346  1  0.014537  -0.002142  3.74101  -0.003  -0.018203  -0.003945  4.010658  -0.004  -0.015724  -0.003486  4.029929  -0.004  0.005932  -0.019942  -0.004374  3.996707  -0.004
C  C28  1  0.09631612  0.24261540  0.59997224  1  -0.064077  -5e-06  3.654121  0.0  -0.106158  0.000547  3.912052  0.0  -0.106327  -2.1e-05  3.932495  0.0  0.005966  -0.105579  0.001125  3.897615  0.001
C  C29  1  0.90368701  0.75740944  0.40003805  1  -0.063979  3.7e-05  3.654135  0.0  -0.106074  -0.000545  3.911991  0.0  -0.106263  2.1e-05  3.932464  0.0  0.005952  -0.105486  -0.001121  3.897534  -0.001
C  C30  1  0.36397502  0.24662977  0.45842595  1  0.001338  0.000491  3.609144  0.0  -0.061313  0.000549  3.864797  0.0  -0.057401  0.000483  3.876432  0.0  -0.050929  -0.063736  0.000629  3.856856  0.0
C  C31  1  0.63605323  0.75338437  0.54159558  1  0.001235  -0.0005  3.609054  0.0  -0.061458  -0.000551  3.864682  0.0  -0.057566  -0.000481  3.876309  0.0  -0.050972  -0.063866  -0.00063  3.856727  0.0
C  C32  1  0.39449016  0.44213069  0.45419179  1  -0.130988  0.00016  3.673972  0.0  -0.171216  0.000228  3.926922  0.0  -0.172782  0.000188  3.940891  0.0  -0.168564  -0.169922  0.000283  3.916934  0.0
C  C33  1  0.60554345  0.55786359  0.54583120  1  -0.131135  -0.000122  3.673744  0.0  -0.171254  -0.000228  3.926475  0.0  -0.17284  -0.000187  3.940595  0.0  -0.168423  -0.169963  -0.000282  3.916487  0.0
N  N34  1  0.33709353  0.16717715  0.74701384  1  -0.400319  0.029556  3.267217  0.011  -0.338536  0.031267  3.563738  0.007  -0.35978  0.029056  3.576166  0.005  -0.353775  -0.321496  0.033604  3.553036  0.01
N  N35  1  0.66287277  0.83279889  0.25298262  1  -0.400221  -0.029508  3.266951  -0.011  -0.338515  -0.031262  3.563446  -0.007  -0.359746  -0.029071  3.57589  -0.005  -0.353728  -0.321487  -0.033595  3.552747  -0.01
N  N36  1  0.30336422  0.21440344  0.56736035  1  -0.055438  0.001798  3.563449  0.002  0.041885  0.003149  3.777086  0.003  0.026665  0.00254  3.80573  0.003  -0.239091  0.052094  0.003786  3.757431  0.004
N  N37  1  0.69664081  0.78560155  0.43265021  1  -0.055526  -0.001786  3.563749  -0.002  0.041782  -0.003144  3.777402  -0.003  0.026553  -0.002536  3.806075  -0.003  -0.239095  0.051992  -0.003782  3.757731  -0.004
O  O38  1  0.33759012  0.88332828  0.90506472  1  -0.957286  0.015092  1.67815  0.013  -0.944845  0.016771  2.012069  0.013  -0.985698  0.01339  1.993517  0.009  -0.599422  -0.912775  0.019106  2.024828  0.015
O  O39  1  0.66230467  0.11649794  0.09495918  1  -0.957024  -0.014946  1.678561  -0.013  -0.944465  -0.016655  2.012211  -0.013  -0.985275  -0.01327  1.993689  -0.009  -0.599112  -0.912308  -0.019036  2.02499  -0.015
O  O40  1  0.79836183  0.03250996  0.87382651  1  -0.79793  0.029649  1.867467  0.019  -0.74387  0.037678  2.069699  0.024  -0.767325  0.034533  2.037687  0.021  -0.554626  -0.725289  0.040919  2.090426  0.028
O  O41  1  0.20164111  0.96747232  0.12608955  1  -0.797851  -0.029571  1.867453  -0.019  -0.743634  -0.037596  2.06991  -0.024  -0.767078  -0.034467  2.037917  -0.021  -0.554704  -0.725073  -0.040828  2.090506  -0.028
O  O42  1  0.71482085  0.39026747  0.95436726  1  -0.917809  0.003268  1.57175  -0.024  -0.943468  0.011195  1.918259  -0.023  -0.978161  0.008063  1.906689  -0.027  -0.599054  -0.915082  0.017095  1.925603  -0.015
O  O43  1  0.28527542  0.60981468  0.04560974  1  -0.918346  -0.003197  1.572848  0.024  -0.943947  -0.011175  1.919713  0.023  -0.978675  -0.00801  1.907789  0.027  -0.599363  -0.915605  -0.017149  1.927019  0.015
O  O44  1  0.22207995  0.23764540  0.99375788  1  -0.93954  0.010231  1.59246  -0.015  -0.919275  0.016774  1.880732  -0.014  -0.952074  0.015048  1.863674  -0.016  -0.589828  -0.894413  0.020813  1.893139  -0.009
O  O45  1  0.77780012  0.76245703  0.00628504  1  -0.939965  -0.010145  1.59384  0.015  -0.919673  -0.016752  1.882222  0.014  -0.952359  -0.014978  1.865207  0.016  -0.589999  -0.894725  -0.020866  1.894678  0.009
O  O46  1  0.05284591  0.41728712  0.18657697  1  -0.973967  -0.001094  1.584074  -0.001  -1.005131  -0.001682  1.896207  -0.002  -1.046594  -0.001036  1.8908  -0.001  -0.689938  -0.972709  -0.002328  1.902544  -0.003
O  O47  1  0.94711560  0.58269045  0.81340074  1  -0.973851  0.001136  1.584639  0.001  -1.005117  0.001674  1.896822  0.002  -1.046472  0.001044  1.891486  0.001  -0.690071  -0.972723  0.002303  1.903169  0.003
O  O48  1  0.45798034  0.56925060  0.80420756  1  -0.959379  0.003171  1.662981  0.004  -0.987075  0.003009  1.97289  0.003  -1.028877  0.002675  1.970768  0.003  -0.677558  -0.954936  0.002619  1.976893  0.003
O  O49  1  0.54209934  0.43074595  0.19573630  1  -0.959073  -0.003108  1.663433  -0.004  -0.986646  -0.003  1.973379  -0.003  -1.028544  -0.002659  1.971196  -0.003  -0.677438  -0.954481  -0.002627  1.977375  -0.003
O  O50  1  0.18252443  0.74869629  0.66827814  1  -0.726733  0.007606  1.263999  0.009  -0.744953  0.005756  1.511068  0.007  -0.768758  0.004765  1.504814  0.006  -0.585313  -0.727909  0.007038  1.518189  0.008
O  O51  1  0.81747203  0.25130229  0.33171484  1  -0.72655  -0.007462  1.263918  -0.009  -0.744909  -0.005742  1.51104  -0.007  -0.768655  -0.004729  1.504812  -0.006  -0.585333  -0.727784  -0.00704  1.518217  -0.008
