# generated using pymatgen
data_AgH3C4(NO)3
_symmetry_space_group_name_H-M   'P 1'
_cell_length_a   7.16458011
_cell_length_b   7.16455643
_cell_length_c   12.94430547
_cell_angle_alpha   91.34703644
_cell_angle_beta   91.34775729
_cell_angle_gamma   109.89187457
_symmetry_Int_Tables_number   1
_chemical_formula_structural   AgH3C4(NO)3
_chemical_formula_sum   'Ag4 H12 C16 N12 O12'
_cell_volume   624.27762449
_cell_formula_units_Z   4
loop_
 _symmetry_equiv_pos_site_id
 _symmetry_equiv_pos_as_xyz
  1  'x, y, z'
loop_
 _atom_site_type_symbol
 _atom_site_label
 _atom_site_symmetry_multiplicity
 _atom_site_fract_x
 _atom_site_fract_y
 _atom_site_fract_z
 _atom_site_occupancy
 _atom_site_hle17_bader_spin_density
 _atom_site_hle17_ddec_charge
 _atom_site_hle17_ddec_spin_density
 _atom_site_hle17_ddec_sum_bond_order
 _atom_site_hle17_magmom
 _atom_site_hse06_10hf_bader_spin_density
 _atom_site_hse06_10hf_ddec_charge
 _atom_site_hse06_10hf_ddec_spin_density
 _atom_site_hse06_10hf_ddec_sum_bond_order
 _atom_site_hse06_10hf_magmom
 _atom_site_hse06_bader_spin_density
 _atom_site_hse06_ddec_charge
 _atom_site_hse06_ddec_spin_density
 _atom_site_hse06_ddec_sum_bond_order
 _atom_site_hse06_magmom
 _atom_site_pbe_bader_spin_density
 _atom_site_pbe_cm5_charge
 _atom_site_pbe_ddec_charge
 _atom_site_pbe_ddec_spin_density
 _atom_site_pbe_ddec_sum_bond_order
 _atom_site_pbe_magmom
Ag  Ag0  1  0.41148408  0.50945762  0.85524212  1  0  0.509812  0  1.53435  0  0  0.373177  0  2.005145  0  0  0.400158  0  1.952049  0  0  0.47116  0.355627  0  2.041229  0
Ag  Ag1  1  0.49054051  0.58851790  0.64475665  1  0  0.509772  0  1.534385  0  0  0.373126  0  2.005185  0  0  0.400106  0  1.952092  0  0  0.47114  0.355576  0  2.041269  0
Ag  Ag2  1  0.58851484  0.49053485  0.14475605  1  0  0.509749  0  1.534421  0  0  0.373117  0  2.005207  0  0  0.400093  0  1.952119  0  0  0.471143  0.355571  0  2.041292  0
Ag  Ag3  1  0.50945508  0.41148504  0.35524161  1  0  0.509779  0  1.534358  0  0  0.373123  0  2.005171  0  0  0.400102  0  1.952075  0  0  0.471125  0.355575  0  2.041257  0
H  H4  1  0.71097259  0.28798192  0.90934793  1  0  0.10322  0  0.967934  0  0  0.102713  0  1.04309  0  0  0.106504  0  1.039593  0  0  0.118379  0.099734  0  1.045994  0
H  H5  1  0.71201907  0.28902982  0.59065348  1  0  0.103263  0  0.967873  0  0  0.102738  0  1.043044  0  0  0.106526  0  1.039553  0  0  0.118391  0.09976  0  1.045947  0
H  H6  1  0.28903155  0.71201349  0.09065575  1  0  0.103262  0  0.967915  0  0  0.102739  0  1.043083  0  0  0.106527  0  1.039592  0  0  0.118407  0.099763  0  1.045985  0
H  H7  1  0.28797322  0.71097167  0.40934627  1  0  0.103308  0  0.968  0  0  0.102788  0  1.043109  0  0  0.106577  0  1.039616  0  0  0.118406  0.099811  0  1.046013  0
H  H8  1  0.70954578  0.93718363  0.91146947  1  0  0.10321  0  0.952152  0  0  0.103407  0  1.026186  0  0  0.107167  0  1.022955  0  0  0.121267  0.100404  0  1.028971  0
H  H9  1  0.06281524  0.29046018  0.58853431  1  0  0.103128  0  0.952241  0  0  0.103363  0  1.026267  0  0  0.107124  0  1.023034  0  0  0.121249  0.10036  0  1.029051  0
H  H10  1  0.29045784  0.06281029  0.08853264  1  0  0.103158  0  0.952232  0  0  0.10337  0  1.026293  0  0  0.10713  0  1.023062  0  0  0.121248  0.100367  0  1.029078  0
H  H11  1  0.93717706  0.70954131  0.41146853  1  0  0.103188  0  0.952147  0  0  0.103399  0  1.026185  0  0  0.10716  0  1.022952  0  0  0.121264  0.100396  0  1.02897  0
H  H12  1  0.17949485  0.10068945  0.73625920  1  0  0.104637  0  0.928688  0  0  0.110904  0  0.99608  0  0  0.113946  0  0.993042  0  0  0.127315  0.108528  0  0.998586  0
H  H13  1  0.89930929  0.82050734  0.76373942  1  0  0.104605  0  0.928674  0  0  0.110883  0  0.99607  0  0  0.113932  0  0.993014  0  0  0.127323  0.108506  0  0.998577  0
H  H14  1  0.82051831  0.89931183  0.26373848  1  0  0.104572  0  0.928774  0  0  0.110877  0  0.99614  0  0  0.11394  0  0.993057  0  0  0.127313  0.108502  0  0.998649  0
H  H15  1  0.10068925  0.17950004  0.23625893  1  0  0.104654  0  0.928675  0  0  0.11093  0  0.996053  0  0  0.113969  0  0.993023  0  0  0.127333  0.108556  0  0.99856  0
C  C16  1  0.59062731  0.16713015  0.87176031  1  0  0.098735  0  3.622818  0  0  0.067863  0  3.874668  0  0  0.071602  0  3.890291  0  0  0.058044  0.064835  0  3.865294  0
C  C17  1  0.83287311  0.40937592  0.62824191  1  0  0.098562  0  3.622817  0  0  0.067743  0  3.874702  0  0  0.071477  0  3.890336  0  0  0.057972  0.064718  0  3.865323  0
C  C18  1  0.40937874  0.83286673  0.12824264  1  0  0.098522  0  3.622842  0  0  0.067708  0  3.874694  0  0  0.071446  0  3.890316  0  0  0.05796  0.064682  0  3.865326  0
C  C19  1  0.16712631  0.59062997  0.37175721  1  0  0.098389  0  3.623054  0  0  0.067656  0  3.874795  0  0  0.071392  0  3.890426  0  0  0.057997  0.064633  0  3.865412  0
C  C20  1  0.59026959  0.97271598  0.87220628  1  0  0.100813  0  3.634522  0  0  0.071194  0  3.887093  0  0  0.074435  0  3.902647  0  0  0.057906  0.068566  0  3.87777  0
C  C21  1  0.02727784  0.40972786  0.62779756  1  0  0.100897  0  3.634523  0  0  0.071176  0  3.887184  0  0  0.074416  0  3.902738  0  0  0.057898  0.068551  0  3.877862  0
C  C22  1  0.40972830  0.02727353  0.12779725  1  0  0.100946  0  3.634417  0  0  0.071229  0  3.887065  0  0  0.074471  0  3.902616  0  0  0.057943  0.068602  0  3.877739  0
C  C23  1  0.97271517  0.59026766  0.37220598  1  0  0.100919  0  3.634562  0  0  0.071213  0  3.887152  0  0  0.074452  0  3.902709  0  0  0.057883  0.068592  0  3.877826  0
C  C24  1  0.29459342  0.86742583  0.77673071  1  0  0.153055  0  3.725488  0  0  0.149779  0  3.963058  0  0  0.153641  0  3.981719  0  0  0.130955  0.146613  0  3.951576  0
C  C25  1  0.13257719  0.70540828  0.72327031  1  0  0.152927  0  3.725477  0  0  0.149745  0  3.962996  0  0  0.153614  0  3.981656  0  0  0.130987  0.146582  0  3.951519  0
C  C26  1  0.70540897  0.13257258  0.22326990  1  0  0.153137  0  3.725281  0  0  0.149743  0  3.963022  0  0  0.153614  0  3.981679  0  0  0.130983  0.146578  0  3.951543  0
C  C27  1  0.86742119  0.29459464  0.27673107  1  0  0.152992  0  3.725452  0  0  0.149823  0  3.962991  0  0  0.153685  0  3.981649  0  0  0.131  0.146657  0  3.951519  0
C  C28  1  0.29627016  0.06311637  0.77648454  1  0  0.086255  0  3.606087  0  0  0.046485  0  3.858925  0  0  0.050638  0  3.873248  0  0  0.067998  0.043155  0  3.850331  0
C  C29  1  0.93688414  0.70373198  0.72351387  1  0  0.086455  0  3.605984  0  0  0.046633  0  3.858849  0  0  0.050785  0  3.873172  0  0  0.068059  0.043302  0  3.850255  0
C  C30  1  0.70373640  0.93688199  0.22351225  1  0  0.086319  0  3.606302  0  0  0.046565  0  3.85913  0  0  0.050713  0  3.873464  0  0  0.068047  0.043235  0  3.85054  0
C  C31  1  0.06311703  0.29627091  0.27648600  1  0  0.086342  0  3.60592  0  0  0.046551  0  3.858787  0  0  0.050705  0  3.873106  0  0  0.068066  0.04322  0  3.850197  0
N  N32  1  0.44177515  0.21118115  0.82542926  1  0  -0.237509  0  3.272709  0  0  -0.164108  0  3.552638  0  0  -0.177143  0  3.566539  0  0  -0.318125  -0.155662  0  3.543862  0
N  N33  1  0.78882089  0.55822997  0.67457384  1  0  -0.237471  0  3.272585  0  0  -0.164088  0  3.552542  0  0  -0.177123  0  3.566444  0  0  -0.318112  -0.155641  0  3.543766  0
N  N34  1  0.55823559  0.78881717  0.17457377  1  0  -0.237372  0  3.272767  0  0  -0.163986  0  3.552672  0  0  -0.177022  0  3.56658  0  0  -0.318072  -0.15554  0  3.543897  0
N  N35  1  0.21117801  0.44177443  0.32542525  1  0  -0.237349  0  3.272607  0  0  -0.164051  0  3.552568  0  0  -0.177086  0  3.566468  0  0  -0.318155  -0.155604  0  3.543792  0
N  N36  1  0.44113193  0.82289221  0.82660779  1  0  -0.28321  0  3.295634  0  0  -0.209314  0  3.567441  0  0  -0.222661  0  3.580002  0  0  -0.320629  -0.200783  0  3.559684  0
N  N37  1  0.17711015  0.55886681  0.67339463  1  0  -0.28318  0  3.295517  0  0  -0.209277  0  3.567314  0  0  -0.222628  0  3.579879  0  0  -0.320629  -0.200755  0  3.559564  0
N  N38  1  0.55886542  0.17710773  0.17339354  1  0  -0.28331  0  3.295276  0  0  -0.209349  0  3.567136  0  0  -0.222699  0  3.579695  0  0  -0.320685  -0.200815  0  3.559378  0
N  N39  1  0.82288756  0.44113016  0.32660822  1  0  -0.28322  0  3.295704  0  0  -0.209329  0  3.567497  0  0  -0.222677  0  3.58006  0  0  -0.320646  -0.200803  0  3.559743  0
N  N40  1  0.07654907  0.28475056  0.98494575  1  0  0.696893  0  4.130204  0  0  0.74791  0  4.390617  0  0  0.777609  0  4.396718  0  0  0.093069  0.727601  0  4.385728  0
N  N41  1  0.71525447  0.92345313  0.51505272  1  0  0.696966  0  4.129988  0  0  0.747898  0  4.390483  0  0  0.777596  0  4.39659  0  0  0.093102  0.727588  0  4.385592  0
N  N42  1  0.92344966  0.71524936  0.01505174  1  0  0.696865  0  4.130087  0  0  0.747897  0  4.390482  0  0  0.777595  0  4.396584  0  0  0.093053  0.727587  0  4.385593  0
N  N43  1  0.28474251  0.07654980  0.48494556  1  0  0.696904  0  4.130062  0  0  0.74785  0  4.390534  0  0  0.777548  0  4.39664  0  0  0.09308  0.727539  0  4.385643  0
O  O44  1  0.25154213  0.38162592  0.02296418  1  0  -0.513797  0  1.821327  0  0  -0.492046  0  2.076635  0  0  -0.51208  0  2.064289  0  0  -0.223096  -0.477472  0  2.08466  0
O  O45  1  0.61836621  0.74845315  0.47703342  1  0  -0.513856  0  1.82125  0  0  -0.49206  0  2.076571  0  0  -0.512096  0  2.064227  0  0  -0.223149  -0.477485  0  2.084594  0
O  O46  1  0.74845331  0.61837255  0.97703402  1  0  -0.513827  0  1.821305  0  0  -0.492099  0  2.076631  0  0  -0.512134  0  2.064284  0  0  -0.223155  -0.477521  0  2.084653  0
O  O47  1  0.38162834  0.25154682  0.52296478  1  0  -0.513846  0  1.821328  0  0  -0.49206  0  2.076632  0  0  -0.512095  0  2.064285  0  0  -0.223143  -0.477484  0  2.084654  0
O  O48  1  0.04217615  0.29675677  0.88901442  1  0  -0.47427  0  1.760182  0  0  -0.460104  0  1.975934  0  0  -0.479296  0  1.970949  0  0  -0.200797  -0.445833  0  1.978839  0
O  O49  1  0.70325295  0.95782292  0.61098622  1  0  -0.474329  0  1.76029  0  0  -0.460098  0  1.97603  0  0  -0.47929  0  1.971046  0  0  -0.200768  -0.445827  0  1.978935  0
O  O50  1  0.95782293  0.70324017  0.11098226  1  0  -0.474236  0  1.760179  0  0  -0.460048  0  1.97591  0  0  -0.47924  0  1.970925  0  0  -0.200733  -0.445778  0  1.97882  0
O  O51  1  0.29674404  0.04218001  0.38901205  1  0  -0.474328  0  1.760219  0  0  -0.460088  0  1.975918  0  0  -0.479278  0  1.970931  0  0  -0.200765  -0.445819  0  1.978827  0
O  O52  1  0.94433498  0.18149759  0.04192058  1  0  -0.447815  0  1.7608  0  0  -0.447841  0  1.97121  0  0  -0.464503  0  1.968839  0  0  -0.183466  -0.435302  0  1.972413  0
O  O53  1  0.81850919  0.05566736  0.45807579  1  0  -0.447778  0  1.760554  0  0  -0.447805  0  1.970998  0  0  -0.464466  0  1.968626  0  0  -0.183457  -0.435266  0  1.9722  0
O  O54  1  0.05566288  0.81850383  0.95807614  1  0  -0.447759  0  1.760689  0  0  -0.447813  0  1.9711  0  0  -0.464474  0  1.968727  0  0  -0.183441  -0.435271  0  1.972299  0
O  O55  1  0.18148728  0.94433408  0.54192168  1  0  -0.447749  0  1.760594  0  0  -0.447751  0  1.971034  0  0  -0.464407  0  1.968654  0  0  -0.18344  -0.435211  0  1.972234  0
