# generated using pymatgen
data_CoH10C16NO4
_symmetry_space_group_name_H-M   'P 1'
_cell_length_a   7.30688798
_cell_length_b   9.40381984
_cell_length_c   10.85952196
_cell_angle_alpha   82.96835658
_cell_angle_beta   73.21840766
_cell_angle_gamma   68.89638473
_symmetry_Int_Tables_number   1
_chemical_formula_structural   CoH10C16NO4
_chemical_formula_sum   'Co2 H20 C32 N2 O8'
_cell_volume   666.35110799
_cell_formula_units_Z   2
loop_
 _symmetry_equiv_pos_site_id
 _symmetry_equiv_pos_as_xyz
  1  'x, y, z'
loop_
 _atom_site_type_symbol
 _atom_site_label
 _atom_site_symmetry_multiplicity
 _atom_site_fract_x
 _atom_site_fract_y
 _atom_site_fract_z
 _atom_site_occupancy
 _atom_site_hle17_bader_spin_density
 _atom_site_hle17_ddec_charge
 _atom_site_hle17_ddec_spin_density
 _atom_site_hle17_ddec_sum_bond_order
 _atom_site_hle17_magmom
 _atom_site_hse06_10hf_bader_spin_density
 _atom_site_hse06_10hf_ddec_charge
 _atom_site_hse06_10hf_ddec_spin_density
 _atom_site_hse06_10hf_ddec_sum_bond_order
 _atom_site_hse06_10hf_magmom
 _atom_site_hse06_bader_spin_density
 _atom_site_hse06_ddec_charge
 _atom_site_hse06_ddec_spin_density
 _atom_site_hse06_ddec_sum_bond_order
 _atom_site_hse06_magmom
 _atom_site_pbe_bader_spin_density
 _atom_site_pbe_cm5_charge
 _atom_site_pbe_ddec_charge
 _atom_site_pbe_ddec_spin_density
 _atom_site_pbe_ddec_sum_bond_order
 _atom_site_pbe_magmom
Co  Co0  1  0.37140425  0.11667349  0.49760413  1  0  0.61834  0  2.543236  0  0  0.597293  0  3.022745  0  0  0.667697  0  2.949861  0  0  0.527277  0.558974  0  3.06943  0
Co  Co1  1  0.62860121  0.88332517  0.50239178  1  0  0.618693  0  2.543191  0  0  0.597446  0  3.022773  0  0  0.667747  0  2.949955  0  0  0.527274  0.558911  0  3.069577  0
H  H2  1  0.56899776  0.62306951  0.24943126  1  0  0.096476  0  0.986302  0  0  0.10618  0  1.051045  0  0  0.109309  0  1.049009  0  0  0.103431  0.104079  0  1.05211  0
H  H3  1  0.43100589  0.37692688  0.75056339  1  0  0.096423  0  0.986343  0  0  0.106163  0  1.051051  0  0  0.10929  0  1.049011  0  0  0.103414  0.104063  0  1.052114  0
H  H4  1  0.45512469  0.49022976  0.11701540  1  0  0.089755  0  0.964141  0  0  0.101067  0  1.025655  0  0  0.103483  0  1.025604  0  0  0.100887  0.098953  0  1.026482  0
H  H5  1  0.54485504  0.50976883  0.88299098  1  0  0.089746  0  0.964115  0  0  0.101039  0  1.025648  0  0  0.103456  0  1.025594  0  0  0.100851  0.098905  0  1.026497  0
H  H6  1  0.15844548  0.64121681  0.02624324  1  0  0.081698  0  0.980124  0  0  0.092807  0  1.043961  0  0  0.094485  0  1.044346  0  0  0.098344  0.092242  0  1.0427  0
H  H7  1  0.84153720  0.35879091  0.97376350  1  0  0.081643  0  0.980206  0  0  0.092765  0  1.044031  0  0  0.094455  0  1.044378  0  0  0.098315  0.092199  0  1.042771  0
H  H8  1  0.98675952  0.91418485  0.07023168  1  0  0.091731  0  0.966212  0  0  0.100638  0  1.030873  0  0  0.103139  0  1.030779  0  0  0.099685  0.098901  0  1.031262  0
H  H9  1  0.01324367  0.08582173  0.92977492  1  0  0.091789  0  0.966139  0  0  0.100662  0  1.030843  0  0  0.103165  0  1.030745  0  0  0.099663  0.098927  0  1.031225  0
H  H10  1  0.69172145  0.39949541  0.32306646  1  0  0.091292  0  0.968245  0  0  0.101048  0  1.032004  0  0  0.104186  0  1.02964  0  0  0.102779  0.0989  0  1.033594  0
H  H11  1  0.30827203  0.60050434  0.67693900  1  0  0.091403  0  0.968163  0  0  0.101054  0  1.032059  0  0  0.104193  0  1.029692  0  0  0.102789  0.098907  0  1.033646  0
H  H12  1  0.91234277  0.54056197  0.18718794  1  0  0.093891  0  0.955869  0  0  0.103597  0  1.019201  0  0  0.106261  0  1.018884  0  0  0.100911  0.101694  0  1.019434  0
H  H13  1  0.08764615  0.45944461  0.81281772  1  0  0.093823  0  0.955937  0  0  0.103554  0  1.019258  0  0  0.106222  0  1.018935  0  0  0.100923  0.101651  0  1.01949  0
H  H14  1  0.36645527  0.11262626  0.04663803  1  0  0.089992  0  0.956239  0  0  0.099562  0  1.019932  0  0  0.102098  0  1.019725  0  0  0.098837  0.097637  0  1.02052  0
H  H15  1  0.63354311  0.88738145  0.95336938  1  0  0.089983  0  0.956285  0  0  0.099575  0  1.01994  0  0  0.10211  0  1.019733  0  0  0.09884  0.09765  0  1.020527  0
H  H16  1  0.24979213  0.39235267  0.04245109  1  0  0.077826  0  0.986179  0  0  0.088159  0  1.052332  0  0  0.089935  0  1.052189  0  0  0.096489  0.087595  0  1.051502  0
H  H17  1  0.75019680  0.60765392  0.95755272  1  0  0.077798  0  0.986123  0  0  0.0881  0  1.052314  0  0  0.089877  0  1.052169  0  0  0.096479  0.087534  0  1.051493  0
H  H18  1  0.35438858  0.44148862  0.38174303  1  0  0.093562  0  0.963048  0  0  0.100204  0  1.028894  0  0  0.103933  0  1.025803  0  0  0.119562  0.097123  0  1.032033  0
H  H19  1  0.64563171  0.55849638  0.61825142  1  0  0.093548  0  0.963215  0  0  0.100292  0  1.028951  0  0  0.104018  0  1.025856  0  0  0.119609  0.09721  0  1.032092  0
H  H20  1  0.10299252  0.71255078  0.39378063  1  0  0.098928  0  0.959368  0  0  0.104496  0  1.023836  0  0  0.107306  0  1.022939  0  0  0.121366  0.102181  0  1.025089  0
H  H21  1  0.89702597  0.28743194  0.60621255  1  0  0.099009  0  0.958995  0  0  0.104508  0  1.023562  0  0  0.10732  0  1.022661  0  0  0.121375  0.102188  0  1.024807  0
C  C22  1  0.41528980  0.90667982  0.32207973  1  0  0.618119  0  3.819715  0  0  0.579952  0  4.112521  0  0  0.622116  0  4.104102  0  0  0.217009  0.54998  0  4.117907  0
C  C23  1  0.58472632  0.09331429  0.67791645  1  0  0.617932  0  3.819668  0  0  0.579725  0  4.1125  0  0  0.621888  0  4.104088  0  0  0.216882  0.549754  0  4.117882  0
C  C24  1  0.34898255  0.84174982  0.23095945  1  0  -0.107755  0  3.721276  0  0  -0.09121  0  3.952463  0  0  -0.100675  0  3.970928  0  0  -0.014693  -0.084257  0  3.939788  0
C  C25  1  0.65102538  0.15824656  0.76903807  1  0  -0.107751  0  3.721337  0  0  -0.091199  0  3.952423  0  0  -0.100663  0  3.970889  0  0  -0.014764  -0.084247  0  3.939744  0
C  C26  1  0.44463254  0.68538999  0.20655744  1  0  -0.077533  0  3.765098  0  0  -0.102757  0  4.016245  0  0  -0.101167  0  4.035883  0  0  -0.08732  -0.103567  0  4.002144  0
C  C27  1  0.55537057  0.31460751  0.79344364  1  0  -0.077579  0  3.765166  0  0  -0.102842  0  4.01628  0  0  -0.101246  0  4.035917  0  0  -0.087327  -0.103649  0  4.002169  0
C  C28  1  0.37934782  0.61210270  0.13323945  1  0  -0.097487  0  3.798851  0  0  -0.113299  0  4.055728  0  0  -0.118274  0  4.078097  0  0  -0.097593  -0.109366  0  4.041183  0
C  C29  1  0.62063801  0.38789820  0.86676276  1  0  -0.097405  0  3.798826  0  0  -0.113188  0  4.055643  0  0  -0.118167  0  4.078019  0  0  -0.097536  -0.109242  0  4.041108  0
C  C30  1  0.21360321  0.69534757  0.08404702  1  0  -0.045862  0  3.758493  0  0  -0.06139  0  4.008988  0  0  -0.059674  0  4.028779  0  0  -0.084339  -0.063497  0  3.996718  0
C  C31  1  0.78638780  0.30465446  0.91595777  1  0  -0.045831  0  3.75828  0  0  -0.06135  0  4.008748  0  0  -0.059633  0  4.028557  0  0  -0.08431  -0.063457  0  3.996477  0
C  C32  1  0.11713480  0.85048826  0.10771205  1  0  -0.103393  0  3.718142  0  0  -0.125377  0  3.969561  0  0  -0.129411  0  3.988795  0  0  -0.086757  -0.123737  0  3.958107  0
C  C33  1  0.88286283  0.14951493  0.89228951  1  0  -0.10343  0  3.7181  0  0  -0.125463  0  3.969528  0  0  -0.129499  0  3.988767  0  0  -0.086767  -0.12382  0  3.958063  0
C  C34  1  0.18448528  0.92671828  0.17889283  1  0  0.069234  0  3.733346  0  0  0.075186  0  3.967228  0  0  0.079898  0  3.986388  0  0  0.00928  0.07125  0  3.955081  0
C  C35  1  0.81551559  0.07328719  0.82110788  1  0  0.069212  0  3.733567  0  0  0.07529  0  3.967205  0  0  0.08  0  3.986369  0  0  0.009373  0.07136  0  3.955053  0
C  C36  1  0.09684530  0.09559922  0.18569255  1  0  0.070901  0  3.733348  0  0  0.078803  0  3.964335  0  0  0.083023  0  3.983958  0  0  0.010157  0.075506  0  3.95156  0
C  C37  1  0.90315051  0.90440166  0.81431328  1  0  0.070899  0  3.733301  0  0  0.078812  0  3.964182  0  0  0.08304  0  3.983801  0  0  0.010127  0.075506  0  3.951413  0
C  C38  1  0.90204814  0.17819193  0.26082931  1  0  -0.088575  0  3.69662  0  0  -0.073739  0  3.92733  0  0  -0.0828  0  3.946332  0  0  -0.009978  -0.067608  0  3.914629  0
C  C39  1  0.09795130  0.82181353  0.73917443  1  0  -0.088584  0  3.696213  0  0  -0.073717  0  3.926865  0  0  -0.082795  0  3.945891  0  0  -0.010053  -0.067582  0  3.914164  0
C  C40  1  0.83948173  0.33816942  0.26042049  1  0  -0.065259  0  3.740448  0  0  -0.091551  0  3.994934  0  0  -0.090446  0  4.01561  0  0  -0.085442  -0.092136  0  3.98054  0
C  C41  1  0.16051708  0.66182805  0.73958419  1  0  -0.065312  0  3.740101  0  0  -0.091556  0  3.994631  0  0  -0.090447  0  4.015309  0  0  -0.085383  -0.092142  0  3.98024  0
C  C42  1  0.96279721  0.41655401  0.18470775  1  0  -0.08955  0  3.78021  0  0  -0.106998  0  4.041093  0  0  -0.111965  0  4.064416  0  0  -0.09591  -0.10308  0  4.024799  0
C  C43  1  0.03719261  0.58345371  0.81529854  1  0  -0.089423  0  3.780348  0  0  -0.106882  0  4.041182  0  0  -0.111849  0  4.064506  0  0  -0.095906  -0.102964  0  4.024887  0
C  C44  1  0.21722439  0.17628043  0.10677934  1  0  -0.10318  0  3.720636  0  0  -0.123155  0  3.967868  0  0  -0.127047  0  3.987222  0  0  -0.087475  -0.12096  0  3.955331  0
C  C45  1  0.78277310  0.82372616  0.89322559  1  0  -0.103293  0  3.720693  0  0  -0.123305  0  3.96794  0  0  -0.127199  0  3.987293  0  0  -0.087493  -0.121104  0  3.9554  0
C  C46  1  0.15166303  0.33451729  0.10540600  1  0  -0.044639  0  3.762359  0  0  -0.059406  0  4.012315  0  0  -0.058305  0  4.032572  0  0  -0.085694  -0.060365  0  3.998463  0
C  C47  1  0.84833760  0.66548249  0.89459441  1  0  -0.044528  0  3.762305  0  0  -0.059275  0  4.012299  0  0  -0.058173  0  4.032556  0  0  -0.085669  -0.060237  0  3.998447  0
C  C48  1  0.19538138  0.46858750  0.43499909  1  0  0.066604  0  3.65661  0  0  0.043053  0  3.905497  0  0  0.046686  0  3.919092  0  0  0.055608  0.038389  0  3.902149  0
C  C49  1  0.80462514  0.53140892  0.56499224  1  0  0.066639  0  3.656861  0  0  0.042998  0  3.905773  0  0  0.046619  0  3.919344  0  0  0.055573  0.038328  0  3.902406  0
C  C50  1  0.05747583  0.61720488  0.44165267  1  0  0.069152  0  3.655862  0  0  0.046135  0  3.905638  0  0  0.049368  0  3.92054  0  0  0.057554  0.042029  0  3.900677  0
C  C51  1  0.94252185  0.38279839  0.55833506  1  0  0.068955  0  3.65552  0  0  0.046008  0  3.905269  0  0  0.049255  0  3.920195  0  0  0.057477  0.041922  0  3.900311  0
C  C52  1  0.75843916  0.10482304  0.34517515  1  0  0.625049  0  3.80292  0  0  0.586386  0  4.095707  0  0  0.62864  0  4.086581  0  0  0.222422  0.556631  0  4.101482  0
C  C53  1  0.24156253  0.89517447  0.65482252  1  0  0.625038  0  3.802797  0  0  0.586362  0  4.095589  0  0  0.628617  0  4.086474  0  0  0.222463  0.556607  0  4.101362  0
N  N54  1  0.13872748  0.35083904  0.49327984  1  0  -0.184847  0  3.160582  0  0  -0.137784  0  3.421177  0  0  -0.147243  0  3.429232  0  0  -0.280755  -0.13571  0  3.421047  0
N  N55  1  0.86129270  0.64914941  0.50670876  1  0  -0.184929  0  3.160624  0  0  -0.137966  0  3.42145  0  0  -0.147375  0  3.429448  0  0  -0.280914  -0.135852  0  3.421287  0
O  O56  1  0.31318653  0.04306441  0.36005082  1  0  -0.492943  0  2.168715  0  0  -0.464591  0  2.438671  0  0  -0.503852  0  2.432966  0  0  -0.273486  -0.437147  0  2.441561  0
O  O57  1  0.68681921  0.95692742  0.63994389  1  0  -0.492951  0  2.168571  0  0  -0.464556  0  2.438538  0  0  -0.503805  0  2.432819  0  0  -0.273473  -0.437092  0  2.441433  0
O  O58  1  0.57073374  0.19094726  0.37809822  1  0  -0.524245  0  2.167626  0  0  -0.493114  0  2.440081  0  0  -0.533177  0  2.432797  0  0  -0.286619  -0.46486  0  2.443756  0
O  O59  1  0.42926771  0.80905716  0.62188959  1  0  -0.524208  0  2.16769  0  0  -0.493073  0  2.440156  0  0  -0.533127  0  2.432877  0  0  -0.286596  -0.4648  0  2.443838  0
O  O60  1  0.82545006  0.96535961  0.38112760  1  0  -0.498087  0  2.121481  0  0  -0.46902  0  2.389644  0  0  -0.507099  0  2.382297  0  0  -0.273442  -0.442436  0  2.393704  0
O  O61  1  0.17453186  0.03464355  0.61887790  1  0  -0.498121  0  2.121156  0  0  -0.469071  0  2.389317  0  0  -0.507154  0  2.381963  0  0  -0.273492  -0.442505  0  2.393371  0
O  O62  1  0.56777650  0.81712710  0.36170585  1  0  -0.519283  0  2.136254  0  0  -0.491112  0  2.40474  0  0  -0.530354  0  2.397438  0  0  -0.291979  -0.463192  0  2.408312  0
O  O63  1  0.43224023  0.18287498  0.63829217  1  0  -0.519103  0  2.136176  0  0  -0.490973  0  2.40471  0  0  -0.530218  0  2.397402  0  0  -0.29186  -0.463074  0  2.408275  0
