# generated using pymatgen
data_TbH6C6SNO8
_symmetry_space_group_name_H-M   'P 1'
_cell_length_a   6.44012665
_cell_length_b   7.67019689
_cell_length_c   20.15327870
_cell_angle_alpha   89.99950929
_cell_angle_beta   90.00008783
_cell_angle_gamma   104.85006336
_symmetry_Int_Tables_number   1
_chemical_formula_structural   TbH6C6SNO8
_chemical_formula_sum   'Tb4 H24 C24 S4 N4 O32'
_cell_volume   962.26201043
_cell_formula_units_Z   4
loop_
 _symmetry_equiv_pos_site_id
 _symmetry_equiv_pos_as_xyz
  1  'x, y, z'
loop_
 _atom_site_type_symbol
 _atom_site_label
 _atom_site_symmetry_multiplicity
 _atom_site_fract_x
 _atom_site_fract_y
 _atom_site_fract_z
 _atom_site_occupancy
 _atom_site_hle17_bader_spin_density
 _atom_site_hle17_ddec_charge
 _atom_site_hle17_ddec_spin_density
 _atom_site_hle17_ddec_sum_bond_order
 _atom_site_hle17_magmom
 _atom_site_hse06_10hf_bader_spin_density
 _atom_site_hse06_10hf_ddec_charge
 _atom_site_hse06_10hf_ddec_spin_density
 _atom_site_hse06_10hf_ddec_sum_bond_order
 _atom_site_hse06_10hf_magmom
 _atom_site_hse06_bader_spin_density
 _atom_site_hse06_ddec_charge
 _atom_site_hse06_ddec_spin_density
 _atom_site_hse06_ddec_sum_bond_order
 _atom_site_hse06_magmom
 _atom_site_pbe_bader_spin_density
 _atom_site_pbe_cm5_charge
 _atom_site_pbe_ddec_charge
 _atom_site_pbe_ddec_spin_density
 _atom_site_pbe_ddec_sum_bond_order
 _atom_site_pbe_magmom
Tb  Tb0  1  0.68115612  0.14459881  0.42779980  1  0  2.275576  0  1.657567  0  0  2.144523  0  2.113644  0  0  2.255664  0  1.950165  0  0  1.54951  2.109765  0  2.145685  0
Tb  Tb1  1  0.81884535  0.85540177  0.92780168  1  0  2.276051  0  1.657572  0  0  2.144463  0  2.113838  0  0  2.255662  0  1.950258  0  0  1.549538  2.109713  0  2.145864  0
Tb  Tb2  1  0.31884777  0.85540428  0.57219987  1  0  2.275537  0  1.657564  0  0  2.144489  0  2.113656  0  0  2.255636  0  1.950165  0  0  1.549483  2.109731  0  2.145691  0
Tb  Tb3  1  0.18115172  0.14459464  0.07219898  1  0  2.276055  0  1.657515  0  0  2.144488  0  2.113721  0  0  2.255652  0  1.950197  0  0  1.549515  2.109735  0  2.145753  0
H  H4  1  0.43901074  0.51976587  0.33212288  1  0  0.144015  0  0.933441  0  0  0.151549  0  0.991128  0  0  0.156251  0  0.987811  0  0  0.122045  0.148303  0  0.993338  0
H  H5  1  0.06100938  0.48022544  0.83212041  1  0  0.143899  0  0.93367  0  0  0.151515  0  0.991249  0  0  0.156212  0  0.987938  0  0  0.121987  0.14827  0  0.993459  0
H  H6  1  0.56099161  0.48023724  0.66787827  1  0  0.143989  0  0.933511  0  0  0.151503  0  0.991218  0  0  0.156204  0  0.987901  0  0  0.122041  0.148259  0  0.993427  0
H  H7  1  0.93898195  0.51977241  0.16787728  1  0  0.143979  0  0.933615  0  0  0.151586  0  0.99123  0  0  0.156283  0  0.98792  0  0  0.122044  0.14834  0  0.993439  0
H  H8  1  0.35425708  0.30893538  0.23430538  1  0  0.14579  0  0.925473  0  0  0.154361  0  0.982811  0  0  0.158821  0  0.978422  0  0  0.145362  0.151145  0  0.986033  0
H  H9  1  0.14576440  0.69104731  0.73430225  1  0  0.145385  0  0.92558  0  0  0.154425  0  0.982876  0  0  0.158882  0  0.978491  0  0  0.145384  0.151211  0  0.986098  0
H  H10  1  0.64575145  0.69106764  0.76569677  1  0  0.145807  0  0.925468  0  0  0.154349  0  0.982838  0  0  0.158806  0  0.978456  0  0  0.145357  0.151134  0  0.98606  0
H  H11  1  0.85423751  0.30895445  0.26569642  1  0  0.145418  0  0.925553  0  0  0.154425  0  0.982876  0  0  0.158885  0  0.978491  0  0  0.145377  0.151212  0  0.986098  0
H  H12  1  0.58521756  0.96345528  0.19241242  1  0  0.143551  0  0.926354  0  0  0.151235  0  0.982851  0  0  0.155752  0  0.979756  0  0  0.125625  0.148177  0  0.984734  0
H  H13  1  0.91476287  0.03653203  0.69241157  1  0  0.143434  0  0.926362  0  0  0.151144  0  0.982861  0  0  0.155687  0  0.979736  0  0  0.125609  0.148086  0  0.984743  0
H  H14  1  0.41478348  0.03654379  0.80759022  1  0  0.143552  0  0.926331  0  0  0.151208  0  0.982859  0  0  0.155747  0  0.979735  0  0  0.125625  0.14815  0  0.98474  0
H  H15  1  0.08522779  0.96346853  0.30758810  1  0  0.14344  0  0.926375  0  0  0.151181  0  0.982818  0  0  0.155725  0  0.979692  0  0  0.125644  0.148124  0  0.984701  0
H  H16  1  0.48869698  0.73321196  0.09993799  1  0  0.152725  0  0.923077  0  0  0.156072  0  0.987245  0  0  0.160818  0  0.982185  0  0  0.144757  0.152782  0  0.990498  0
H  H17  1  0.01129587  0.26677558  0.59993818  1  0  0.15235  0  0.923052  0  0  0.156119  0  0.987151  0  0  0.160859  0  0.982089  0  0  0.144786  0.152834  0  0.990401  0
H  H18  1  0.51131156  0.26679106  0.90006217  1  0  0.152859  0  0.922949  0  0  0.15617  0  0.987152  0  0  0.160926  0  0.982073  0  0  0.144763  0.152817  0  0.990484  0
H  H19  1  0.98870474  0.73322214  0.40006199  1  0  0.152323  0  0.923125  0  0  0.15609  0  0.987236  0  0  0.160835  0  0.982174  0  0  0.144777  0.152804  0  0.990486  0
H  H20  1  0.74038233  0.47802197  0.51310847  1  0  0.464149  0  0.8244  0  0  0.432992  0  0.886346  0  0  0.444378  0  0.869744  0  0  0.308824  0.42523  0  0.897697  0
H  H21  1  0.75961812  0.52197730  0.01310787  1  0  0.464161  0  0.824387  0  0  0.432986  0  0.886367  0  0  0.444373  0  0.869765  0  0  0.308816  0.425223  0  0.897722  0
H  H22  1  0.25961848  0.52198116  0.48689071  1  0  0.464185  0  0.824347  0  0  0.43303  0  0.88629  0  0  0.444417  0  0.869688  0  0  0.308856  0.425269  0  0.89764  0
H  H23  1  0.24038249  0.47802042  0.98689229  1  0  0.464209  0  0.824301  0  0  0.43304  0  0.886273  0  0  0.444426  0  0.869672  0  0  0.308844  0.42528  0  0.897621  0
H  H24  1  0.60839514  0.30600617  0.55631955  1  0  0.457881  0  0.829588  0  0  0.429091  0  0.888485  0  0  0.44003  0  0.872485  0  0  0.311393  0.421559  0  0.899617  0
H  H25  1  0.89160520  0.69399212  0.05631995  1  0  0.457971  0  0.829464  0  0  0.429141  0  0.88844  0  0  0.440082  0  0.872433  0  0  0.311404  0.421608  0  0.899574  0
H  H26  1  0.39160610  0.69399832  0.44368061  1  0  0.457857  0  0.829625  0  0  0.42907  0  0.888516  0  0  0.440008  0  0.872517  0  0  0.311395  0.421537  0  0.899648  0
H  H27  1  0.10839651  0.30600423  0.94368022  1  0  0.458042  0  0.829385  0  0  0.429209  0  0.888365  0  0  0.440151  0  0.872353  0  0  0.311437  0.421674  0  0.899499  0
C  C28  1  0.57058663  0.89413327  0.32463171  1  0  0.639173  0  3.939332  0  0  0.593418  0  4.234532  0  0  0.625392  0  4.233901  0  0  0.196772  0.570995  0  4.239287  0
C  C29  1  0.92940741  0.10585081  0.82463461  1  0  0.638955  0  3.939129  0  0  0.593186  0  4.234355  0  0  0.625157  0  4.233744  0  0  0.196651  0.570761  0  4.23911  0
C  C30  1  0.42941417  0.10586986  0.67537044  1  0  0.6392  0  3.939453  0  0  0.593421  0  4.234623  0  0  0.625394  0  4.233995  0  0  0.196804  0.570998  0  4.239377  0
C  C31  1  0.07059165  0.89414693  0.17536407  1  0  0.639069  0  3.938916  0  0  0.593315  0  4.234129  0  0  0.625287  0  4.233514  0  0  0.196746  0.57089  0  4.238883  0
C  C32  1  0.51916895  0.76027190  0.26968552  1  0  -0.044456  0  3.769992  0  0  -0.028376  0  4.006647  0  0  -0.03112  0  4.027151  0  0  -0.00796  -0.02598  0  3.9924  0
C  C33  1  0.98084306  0.23972539  0.76968404  1  0  -0.044616  0  3.769921  0  0  -0.028436  0  4.006541  0  0  -0.031174  0  4.027034  0  0  -0.007993  -0.026036  0  3.992286  0
C  C34  1  0.48083297  0.23972987  0.73031414  1  0  -0.044573  0  3.770282  0  0  -0.02836  0  4.006728  0  0  -0.031108  0  4.027248  0  0  -0.007962  -0.025967  0  3.99249  0
C  C35  1  0.01915754  0.76027233  0.23031563  1  0  -0.044586  0  3.769808  0  0  -0.028414  0  4.006475  0  0  -0.031151  0  4.026966  0  0  -0.008013  -0.026014  0  3.992218  0
C  C36  1  0.45389684  0.57473298  0.28195429  1  0  -0.096022  0  3.718562  0  0  -0.122746  0  3.980997  0  0  -0.125957  0  3.999734  0  0  -0.069793  -0.120722  0  3.968158  0
C  C37  1  0.04612293  0.42526761  0.78195446  1  0  -0.096559  0  3.71821  0  0  -0.122685  0  3.98119  0  0  -0.125892  0  3.999927  0  0  -0.069805  -0.120656  0  3.968338  0
C  C38  1  0.54609802  0.42526617  0.71804389  1  0  -0.095936  0  3.718724  0  0  -0.122658  0  3.981092  0  0  -0.125862  0  3.999821  0  0  -0.069786  -0.120632  0  3.968256  0
C  C39  1  0.95387613  0.57473013  0.21804322  1  0  -0.096523  0  3.718105  0  0  -0.122735  0  3.981192  0  0  -0.125935  0  3.999925  0  0  -0.069838  -0.120709  0  3.968343  0
C  C40  1  0.40678684  0.45496290  0.22938734  1  0  0.005764  0  3.568369  0  0  -0.044615  0  3.817111  0  0  -0.039244  0  3.828621  0  0  0.050499  -0.047928  0  3.809233  0
C  C41  1  0.09323086  0.54503216  0.72938616  1  0  0.008961  0  3.566947  0  0  -0.04479  0  3.817356  0  0  -0.039421  0  3.828865  0  0  0.050485  -0.048107  0  3.809485  0
C  C42  1  0.59320691  0.54503763  0.77061183  1  0  0.005663  0  3.568165  0  0  -0.044708  0  3.816991  0  0  -0.039338  0  3.828498  0  0  0.050474  -0.048024  0  3.809119  0
C  C43  1  0.90676840  0.45497100  0.27061103  1  0  0.008821  0  3.56696  0  0  -0.044807  0  3.817333  0  0  -0.039453  0  3.828859  0  0  0.050457  -0.048125  0  3.809463  0
C  C44  1  0.53612004  0.82022270  0.20385148  1  0  -0.083441  0  3.695299  0  0  -0.109056  0  3.954533  0  0  -0.112518  0  3.971266  0  0  -0.065033  -0.106871  0  3.942879  0
C  C45  1  0.96386829  0.17976965  0.70385018  1  0  -0.083727  0  3.694545  0  0  -0.10888  0  3.954342  0  0  -0.112364  0  3.971065  0  0  -0.06504  -0.106694  0  3.942688  0
C  C46  1  0.46388167  0.17977364  0.79614720  1  0  -0.083277  0  3.695193  0  0  -0.108896  0  3.954386  0  0  -0.112375  0  3.971113  0  0  -0.065  -0.106706  0  3.942719  0
C  C47  1  0.03612503  0.82022952  0.29614949  1  0  -0.083747  0  3.694541  0  0  -0.108883  0  3.954304  0  0  -0.112371  0  3.971034  0  0  -0.064983  -0.106699  0  3.942649  0
C  C48  1  0.48586361  0.69839598  0.15231166  1  0  0.039144  0  3.512329  0  0  -0.012981  0  3.763681  0  0  -0.005701  0  3.772146  0  0  0.055112  -0.017347  0  3.757169  0
C  C49  1  0.01412556  0.30159854  0.65230925  1  0  0.041966  0  3.510992  0  0  -0.013081  0  3.763419  0  0  -0.005791  0  3.771878  0  0  0.055162  -0.017456  0  3.756915  0
C  C50  1  0.51414428  0.30160028  0.84768850  1  0  0.03889  0  3.5122  0  0  -0.013214  0  3.763603  0  0  -0.005938  0  3.772066  0  0  0.055065  -0.017538  0  3.757135  0
C  C51  1  0.98586621  0.69840065  0.34769091  1  0  0.042018  0  3.511102  0  0  -0.013052  0  3.763579  0  0  -0.005766  0  3.772043  0  0  0.055081  -0.017423  0  3.757068  0
S  S52  1  0.21556008  0.17273979  0.44539380  1  0  1.614452  0  5.830772  0  0  1.493594  0  6.371429  0  0  1.549507  0  6.346168  0  0  0.572628  1.454133  0  6.397351  0
S  S53  1  0.28444276  0.82725865  0.94539427  1  0  1.614652  0  5.830607  0  0  1.493776  0  6.371296  0  0  1.549686  0  6.34604  0  0  0.572718  1.454314  0  6.397226  0
S  S54  1  0.78444295  0.82726061  0.55460537  1  0  1.614565  0  5.830548  0  0  1.493724  0  6.371186  0  0  1.549633  0  6.345924  0  0  0.572686  1.454262  0  6.397111  0
S  S55  1  0.71555784  0.17273906  0.05460590  1  0  1.614756  0  5.8304  0  0  1.493868  0  6.371109  0  0  1.549778  0  6.345847  0  0  0.572697  1.454408  0  6.397036  0
N  N56  1  0.42173272  0.51817208  0.16577576  1  0  0.279954  0  3.755503  0  0  0.375062  0  3.951534  0  0  0.376683  0  3.974456  0  0  -0.093765  0.373673  0  3.937122  0
N  N57  1  0.07826926  0.48181382  0.66577527  1  0  0.274529  0  3.756096  0  0  0.375161  0  3.951225  0  0  0.376782  0  3.974144  0  0  -0.093701  0.373774  0  3.936815  0
N  N58  1  0.57826325  0.48182571  0.83422590  1  0  0.280055  0  3.755188  0  0  0.375134  0  3.951309  0  0  0.376755  0  3.974234  0  0  -0.093691  0.373748  0  3.936885  0
N  N59  1  0.92172913  0.51818664  0.33422291  1  0  0.274493  0  3.756143  0  0  0.375057  0  3.951321  0  0  0.376681  0  3.974244  0  0  -0.093721  0.37367  0  3.936909  0
O  O60  1  0.54482939  0.84033935  0.38504132  1  0  -0.698342  0  2.030446  0  0  -0.64665  0  2.270662  0  0  -0.678153  0  2.262209  0  0  -0.364834  -0.629237  0  2.276106  0
O  O61  1  0.95517813  0.15966619  0.88504405  1  0  -0.698228  0  2.030323  0  0  -0.646517  0  2.270586  0  0  -0.678031  0  2.262138  0  0  -0.364772  -0.629106  0  2.276027  0
O  O62  1  0.45516856  0.15965976  0.61496033  1  0  -0.698319  0  2.030397  0  0  -0.646668  0  2.270667  0  0  -0.678169  0  2.262214  0  0  -0.364882  -0.629256  0  2.276111  0
O  O63  1  0.04481938  0.84033157  0.11495462  1  0  -0.698341  0  2.030378  0  0  -0.646637  0  2.270646  0  0  -0.678147  0  2.262196  0  0  -0.364838  -0.629226  0  2.27609  0
O  O64  1  0.64145077  0.06110948  0.31119458  1  0  -0.678748  0  1.958637  0  0  -0.638647  0  2.198689  0  0  -0.668648  0  2.18878  0  0  -0.369415  -0.622769  0  2.204842  0
O  O65  1  0.85854287  0.93887356  0.81119373  1  0  -0.678629  0  1.958318  0  0  -0.638537  0  2.198446  0  0  -0.668545  0  2.188547  0  0  -0.36934  -0.62266  0  2.204596  0
O  O66  1  0.35854694  0.93889369  0.68880757  1  0  -0.678749  0  1.958575  0  0  -0.638647  0  2.198614  0  0  -0.668649  0  2.188711  0  0  -0.369395  -0.622769  0  2.204765  0
O  O67  1  0.14145243  0.06112694  0.18880792  1  0  -0.678666  0  1.958102  0  0  -0.638583  0  2.198233  0  0  -0.668588  0  2.188333  0  0  -0.369384  -0.622705  0  2.204386  0
O  O68  1  0.37570944  0.40667400  0.11571509  1  0  -0.622816  0  1.896912  0  0  -0.601464  0  2.137054  0  0  -0.637105  0  2.132288  0  0  -0.333198  -0.583384  0  2.136944  0
O  O69  1  0.12429530  0.59331166  0.61571277  1  0  -0.619685  0  1.896183  0  0  -0.601424  0  2.136876  0  0  -0.63706  0  2.13211  0  0  -0.3332  -0.583342  0  2.136766  0
O  O70  1  0.62429224  0.59333183  0.88428607  1  0  -0.622831  0  1.896914  0  0  -0.60149  0  2.137129  0  0  -0.637137  0  2.132362  0  0  -0.333249  -0.583407  0  2.137009  0
O  O71  1  0.87570883  0.40668737  0.38428442  1  0  -0.619693  0  1.896239  0  0  -0.601399  0  2.136937  0  0  -0.637034  0  2.132171  0  0  -0.333158  -0.583317  0  2.136824  0
O  O72  1  0.17282982  0.29893480  0.49482772  1  0  -0.692446  0  1.982037  0  0  -0.638183  0  2.226225  0  0  -0.659893  0  2.210552  0  0  -0.308333  -0.623772  0  2.238741  0
O  O73  1  0.32717600  0.70106246  0.99482912  1  0  -0.692438  0  1.981735  0  0  -0.638276  0  2.226114  0  0  -0.659987  0  2.210447  0  0  -0.308418  -0.623868  0  2.238628  0
O  O74  1  0.82717034  0.70106157  0.50517145  1  0  -0.692467  0  1.981926  0  0  -0.63819  0  2.2261  0  0  -0.659895  0  2.210429  0  0  -0.308362  -0.623781  0  2.238615  0
O  O75  1  0.67282373  0.29893256  0.00517005  1  0  -0.692446  0  1.981701  0  0  -0.638263  0  2.226047  0  0  -0.659974  0  2.210379  0  0  -0.30837  -0.623846  0  2.238555  0
O  O76  1  0.01142553  0.07322390  0.41340954  1  0  -0.80008  0  2.0284  0  0  -0.747787  0  2.305297  0  0  -0.778903  0  2.287502  0  0  -0.416237  -0.731577  0  2.316421  0
O  O77  1  0.48857738  0.92677527  0.91341127  1  0  -0.800058  0  2.028258  0  0  -0.747851  0  2.305328  0  0  -0.778976  0  2.287527  0  0  -0.416279  -0.731644  0  2.316444  0
O  O78  1  0.98857662  0.92677379  0.58659013  1  0  -0.8001  0  2.028377  0  0  -0.747844  0  2.305317  0  0  -0.778962  0  2.287521  0  0  -0.416279  -0.731634  0  2.316441  0
O  O79  1  0.51142255  0.07322517  0.08658889  1  0  -0.800063  0  2.028179  0  0  -0.747877  0  2.305276  0  0  -0.778993  0  2.287471  0  0  -0.416284  -0.731669  0  2.316401  0
O  O80  1  0.37777501  0.26036346  0.39460196  1  0  -0.786506  0  1.924038  0  0  -0.737718  0  2.178547  0  0  -0.765709  0  2.159915  0  0  -0.405837  -0.722674  0  2.190094  0
O  O81  1  0.12222818  0.73963208  0.89460462  1  0  -0.786445  0  1.923981  0  0  -0.737707  0  2.178577  0  0  -0.765706  0  2.159942  0  0  -0.405785  -0.722667  0  2.190125  0
O  O82  1  0.62222714  0.73963423  0.60539671  1  0  -0.786524  0  1.923959  0  0  -0.737734  0  2.178459  0  0  -0.765727  0  2.159825  0  0  -0.405816  -0.722691  0  2.190006  0
O  O83  1  0.87777021  0.26036838  0.10539505  1  0  -0.78649  0  1.92391  0  0  -0.737738  0  2.178498  0  0  -0.765733  0  2.159865  0  0  -0.405791  -0.722695  0  2.190046  0
O  O84  1  0.31904904  0.03577944  0.47732434  1  0  -0.920627  0  2.120103  0  0  -0.859392  0  2.407133  0  0  -0.898606  0  2.390555  0  0  -0.486325  -0.842444  0  2.418311  0
O  O85  1  0.18095837  0.96421820  0.97732480  1  0  -0.920686  0  2.120201  0  0  -0.859453  0  2.407252  0  0  -0.898677  0  2.390674  0  0  -0.486371  -0.842491  0  2.418394  0
O  O86  1  0.68095728  0.96422633  0.52267583  1  0  -0.920684  0  2.120135  0  0  -0.859451  0  2.407169  0  0  -0.898663  0  2.39059  0  0  -0.48632  -0.842506  0  2.418356  0
O  O87  1  0.81903915  0.03577956  0.02267536  1  0  -0.920714  0  2.120188  0  0  -0.859486  0  2.407255  0  0  -0.898712  0  2.390678  0  0  -0.486354  -0.842542  0  2.418441  0
O  O88  1  0.69375974  0.34379916  0.51567649  1  0  -0.939983  0  1.84517  0  0  -0.894233  0  2.049864  0  0  -0.921704  0  2.01059  0  0  -0.661802  -0.881008  0  2.073192  0
O  O89  1  0.80624181  0.65619868  0.01567747  1  0  -0.939953  0  1.84493  0  0  -0.894292  0  2.049831  0  0  -0.921758  0  2.010521  0  0  -0.661823  -0.881068  0  2.073159  0
O  O90  1  0.30624107  0.65620398  0.48432367  1  0  -0.939994  0  1.845179  0  0  -0.894255  0  2.049886  0  0  -0.921723  0  2.010598  0  0  -0.661833  -0.881031  0  2.073214  0
O  O91  1  0.19375836  0.34379768  0.98432319  1  0  -0.940056  0  1.844794  0  0  -0.894404  0  2.049695  0  0  -0.921862  0  2.010382  0  0  -0.661865  -0.881179  0  2.073019  0
