# generated using pymatgen
data_HgH8C8(SN2)2
_symmetry_space_group_name_H-M   'P 1'
_cell_length_a   7.82674052
_cell_length_b   7.82677255
_cell_length_c   11.05970774
_cell_angle_alpha   101.58622016
_cell_angle_beta   101.58493776
_cell_angle_gamma   115.66865960
_symmetry_Int_Tables_number   1
_chemical_formula_structural   HgH8C8(SN2)2
_chemical_formula_sum   'Hg2 H16 C16 S4 N8'
_cell_volume   565.52066852
_cell_formula_units_Z   2
loop_
 _symmetry_equiv_pos_site_id
 _symmetry_equiv_pos_as_xyz
  1  'x, y, z'
loop_
 _atom_site_type_symbol
 _atom_site_label
 _atom_site_symmetry_multiplicity
 _atom_site_fract_x
 _atom_site_fract_y
 _atom_site_fract_z
 _atom_site_occupancy
 _atom_site_hle17_bader_spin_density
 _atom_site_hle17_ddec_charge
 _atom_site_hle17_ddec_spin_density
 _atom_site_hle17_ddec_sum_bond_order
 _atom_site_hle17_magmom
 _atom_site_hse06_10hf_bader_spin_density
 _atom_site_hse06_10hf_ddec_charge
 _atom_site_hse06_10hf_ddec_spin_density
 _atom_site_hse06_10hf_ddec_sum_bond_order
 _atom_site_hse06_10hf_magmom
 _atom_site_hse06_bader_spin_density
 _atom_site_hse06_ddec_charge
 _atom_site_hse06_ddec_spin_density
 _atom_site_hse06_ddec_sum_bond_order
 _atom_site_hse06_magmom
 _atom_site_pbe_bader_spin_density
 _atom_site_pbe_cm5_charge
 _atom_site_pbe_ddec_charge
 _atom_site_pbe_ddec_spin_density
 _atom_site_pbe_ddec_sum_bond_order
 _atom_site_pbe_magmom
Hg  Hg0  1  0.62337601  0.62301143  0.99999418  1  0  0.676006  0  1.988444  0  0  0.529877  0  2.457728  0  0  0.576123  0  2.428039  0  0  0.53912  0.498798  0  2.477296  0
Hg  Hg1  1  0.87301021  0.37337522  0.49997819  1  0  0.676002  0  1.988552  0  0  0.529898  0  2.45781  0  0  0.576143  0  2.42812  0  0  0.539116  0.498815  0  2.477375  0
H  H2  1  0.96919316  0.13128229  0.17260266  1  0  0.086121  0  0.973636  0  0  0.092857  0  1.04228  0  0  0.094057  0  1.043215  0  0  0.107997  0.091807  0  1.042262  0
H  H3  1  0.96005644  0.79608937  0.82692286  1  0  0.087069  0  0.972813  0  0  0.093157  0  1.042067  0  0  0.094389  0  1.042938  0  0  0.107767  0.092336  0  1.04153  0
H  H4  1  0.04609975  0.71007772  0.32693033  1  0  0.087084  0  0.972754  0  0  0.093125  0  1.042128  0  0  0.094366  0  1.042993  0  0  0.107731  0.092305  0  1.041588  0
H  H5  1  0.38128736  0.71919055  0.67259676  1  0  0.086116  0  0.973741  0  0  0.092875  0  1.042353  0  0  0.094088  0  1.043276  0  0  0.108  0.091825  0  1.042339  0
H  H6  1  0.28880869  0.60057637  0.17485856  1  0  0.1142  0  0.970197  0  0  0.132096  0  1.040071  0  0  0.132406  0  1.04177  0  0  0.086426  0.131843  0  1.038993  0
H  H7  1  0.42683787  0.11440922  0.82535914  1  0  0.115212  0  0.970229  0  0  0.132969  0  1.040044  0  0  0.133313  0  1.041707  0  0  0.087197  0.132913  0  1.038736  0
H  H8  1  0.36442170  0.17685620  0.32537168  1  0  0.115186  0  0.970346  0  0  0.132977  0  1.040129  0  0  0.133323  0  1.041794  0  0  0.087166  0.132922  0  1.038814  0
H  H9  1  0.85057643  0.03880665  0.67485362  1  0  0.114347  0  0.970232  0  0  0.132236  0  1.040084  0  0  0.132545  0  1.041784  0  0  0.086509  0.131977  0  1.039011  0
H  H10  1  0.23988528  0.46398949  0.28698089  1  0  0.115374  0  0.969265  0  0  0.131406  0  1.037893  0  0  0.132578  0  1.038788  0  0  0.086153  0.130466  0  1.037489  0
H  H11  1  0.17811151  0.95339321  0.71300836  1  0  0.115575  0  0.967261  0  0  0.131632  0  1.0361  0  0  0.132785  0  1.03704  0  0  0.086126  0.130777  0  1.035611  0
H  H12  1  0.20339237  0.92812533  0.21302411  1  0  0.11544  0  0.967318  0  0  0.131514  0  1.036168  0  0  0.132669  0  1.0371  0  0  0.086126  0.130661  0  1.035682  0
H  H13  1  0.71399934  0.98988399  0.78697768  1  0  0.115426  0  0.969248  0  0  0.13146  0  1.037857  0  0  0.132633  0  1.038751  0  0  0.086201  0.130522  0  1.037454  0
H  H14  1  0.46708041  0.53992584  0.24824868  1  0  0.130178  0  0.967903  0  0  0.148392  0  1.034222  0  0  0.149655  0  1.033777  0  0  0.089272  0.147649  0  1.034215  0
H  H15  1  0.29277480  0.21943264  0.75216184  1  0  0.131231  0  0.966281  0  0  0.14993  0  1.031777  0  0  0.151218  0  1.031305  0  0  0.09014  0.149055  0  1.032217  0
H  H16  1  0.46943418  0.04277980  0.25216294  1  0  0.131219  0  0.966259  0  0  0.149906  0  1.031785  0  0  0.151199  0  1.031311  0  0  0.09016  0.149033  0  1.032229  0
H  H17  1  0.78993884  0.21707968  0.74825107  1  0  0.130212  0  0.967919  0  0  0.148462  0  1.034166  0  0  0.149724  0  1.033721  0  0  0.089277  0.147716  0  1.03416  0
C  C18  1  0.62613487  0.53140074  0.64208099  1  0  0.251478  0  3.932698  0  0  0.236535  0  4.240955  0  0  0.255257  0  4.255589  0  0  0.145322  0.224012  0  4.23116  0
C  C19  1  0.88809020  0.98365524  0.35793233  1  0  0.249332  0  3.932885  0  0  0.234303  0  4.241273  0  0  0.253084  0  4.255848  0  0  0.143242  0.221551  0  4.231828  0
C  C20  1  0.23365484  0.63808286  0.85793220  1  0  0.249132  0  3.932613  0  0  0.234104  0  4.241034  0  0  0.252891  0  4.255616  0  0  0.143067  0.221347  0  4.231581  0
C  C21  1  0.78140943  0.37613469  0.14208071  1  0  0.251548  0  3.932769  0  0  0.23661  0  4.24101  0  0  0.25533  0  4.255641  0  0  0.145366  0.224086  0  4.231216  0
C  C22  1  0.03561968  0.12384478  0.09538120  1  0  0.007581  0  3.673185  0  0  -0.026252  0  3.926589  0  0  -0.026234  0  3.946021  0  0  0.039547  -0.026586  0  3.913832  0
C  C23  1  0.02948945  0.93957848  0.90427447  1  0  0.003907  0  3.672415  0  0  -0.029741  0  3.92565  0  0  -0.029672  0  3.944983  0  0  0.037491  -0.029799  0  3.912339  0
C  C24  1  0.18958861  0.77950805  0.40428058  1  0  0.003934  0  3.672383  0  0  -0.029691  0  3.92572  0  0  -0.029635  0  3.945054  0  0  0.037458  -0.02975  0  3.912405  0
C  C25  1  0.37384449  0.78561234  0.59537854  1  0  0.007623  0  3.673032  0  0  -0.02616  0  3.926423  0  0  -0.026142  0  3.945834  0  0  0.039654  -0.026499  0  3.913667  0
C  C26  1  0.20633510  0.29256392  0.09815425  1  0  0.284245  0  3.723192  0  0  0.29776  0  3.964426  0  0  0.303701  0  3.984938  0  0  0.125292  0.293708  0  3.950507  0
C  C27  1  0.19532257  0.10805845  0.90190385  1  0  0.286154  0  3.72481  0  0  0.300553  0  3.964698  0  0  0.306469  0  3.985217  0  0  0.128  0.296497  0  3.950599  0
C  C28  1  0.35806681  0.94533933  0.40190997  1  0  0.286012  0  3.724965  0  0  0.300262  0  3.965122  0  0  0.306177  0  3.985647  0  0  0.127921  0.296203  0  3.951016  0
C  C29  1  0.54257995  0.95634986  0.59815422  1  0  0.284476  0  3.722651  0  0  0.297836  0  3.96411  0  0  0.303779  0  3.984622  0  0  0.125331  0.293782  0  3.950186  0
C  C30  1  0.30545735  0.48409488  0.20875042  1  0  -0.389975  0  3.729082  0  0  -0.471345  0  3.95959  0  0  -0.474575  0  3.968985  0  0  -0.249701  -0.468795  0  3.952881  0
C  C31  1  0.27639980  0.09710824  0.79139030  1  0  -0.392684  0  3.725632  0  0  -0.474985  0  3.956557  0  0  -0.478265  0  3.965891  0  0  -0.251944  -0.472525  0  3.950055  0
C  C32  1  0.34711515  0.02641512  0.29140701  1  0  -0.392537  0  3.725914  0  0  -0.474789  0  3.956807  0  0  -0.478075  0  3.96615  0  0  -0.251938  -0.472327  0  3.950305  0
C  C33  1  0.73411249  0.05545833  0.70875111  1  0  -0.390264  0  3.729015  0  0  -0.471626  0  3.959608  0  0  -0.474855  0  3.968994  0  0  -0.249878  -0.469073  0  3.952908  0
S  S34  1  0.70365962  0.57487850  0.51718873  1  0  -0.169964  0  2.276123  0  0  -0.133385  0  2.62693  0  0  -0.150339  0  2.621813  0  0  -0.064938  -0.123019  0  2.630546  0
S  S35  1  0.05646688  0.18590969  0.48316756  1  0  -0.169202  0  2.272683  0  0  -0.132815  0  2.623463  0  0  -0.149708  0  2.618246  0  0  -0.064689  -0.121963  0  2.627731  0
S  S36  1  0.43587372  0.80643272  0.98315140  1  0  -0.169069  0  2.273482  0  0  -0.132668  0  2.624249  0  0  -0.149568  0  2.619048  0  0  -0.06467  -0.121809  0  2.628518  0
S  S37  1  0.82488311  0.45366368  0.01718692  1  0  -0.169999  0  2.27597  0  0  -0.133436  0  2.626793  0  0  -0.150384  0  2.621665  0  0  -0.06493  -0.123064  0  2.630412  0
N  N38  1  0.56689748  0.50984648  0.73090782  1  0  -0.453217  0  2.702679  0  0  -0.414515  0  2.954752  0  0  -0.431109  0  2.964338  0  0  -0.339641  -0.40335  0  2.948137  0
N  N39  1  0.77785246  0.83574499  0.26889496  1  0  -0.451026  0  2.704754  0  0  -0.411997  0  2.956517  0  0  -0.428667  0  2.966129  0  0  -0.337497  -0.401001  0  2.950163  0
N  N40  1  0.08570504  0.52782425  0.76887135  1  0  -0.450992  0  2.703662  0  0  -0.41198  0  2.955447  0  0  -0.428656  0  2.965063  0  0  -0.337355  -0.400974  0  2.949084  0
N  N41  1  0.75984970  0.31689808  0.23089938  1  0  -0.453244  0  2.702903  0  0  -0.414531  0  2.954969  0  0  -0.431123  0  2.964548  0  0  -0.339682  -0.403362  0  2.948352  0
N  N42  1  0.94950452  0.94858009  0.99974724  1  0  -0.259479  0  3.248591  0  0  -0.199355  0  3.517469  0  0  -0.212091  0  3.537474  0  0  -0.300986  -0.189733  0  3.503071  0
N  N43  1  0.19858803  0.69951250  0.49974953  1  0  -0.259558  0  3.248724  0  0  -0.199412  0  3.517575  0  0  -0.212148  0  3.537588  0  0  -0.301045  -0.189793  0  3.503177  0
N  N44  1  0.28313048  0.28273383  0.00009084  1  0  -0.368098  0  3.040374  0  0  -0.317057  0  3.279708  0  0  -0.334361  0  3.2989  0  0  -0.289685  -0.304624  0  3.266044  0
N  N45  1  0.53274464  0.03313999  0.50009940  1  0  -0.368112  0  3.040196  0  0  -0.316991  0  3.279667  0  0  -0.334297  0  3.298859  0  0  -0.289598  -0.304559  0  3.265997  0
