# generated using pymatgen
data_Cu2Mo3H8C6(N3O5)2
_symmetry_space_group_name_H-M   'P 1'
_cell_length_a   8.27202525
_cell_length_b   10.41642480
_cell_length_c   10.53022519
_cell_angle_alpha   114.28283972
_cell_angle_beta   103.00669273
_cell_angle_gamma   92.26882559
_symmetry_Int_Tables_number   1
_chemical_formula_structural   Cu2Mo3H8C6(N3O5)2
_chemical_formula_sum   'Cu4 Mo6 H16 C12 N12 O20'
_cell_volume   796.87197419
_cell_formula_units_Z   2
loop_
 _symmetry_equiv_pos_site_id
 _symmetry_equiv_pos_as_xyz
  1  'x, y, z'
loop_
 _atom_site_type_symbol
 _atom_site_label
 _atom_site_symmetry_multiplicity
 _atom_site_fract_x
 _atom_site_fract_y
 _atom_site_fract_z
 _atom_site_occupancy
 _atom_site_hle17_bader_spin_density
 _atom_site_hle17_ddec_charge
 _atom_site_hle17_ddec_spin_density
 _atom_site_hle17_ddec_sum_bond_order
 _atom_site_hle17_magmom
 _atom_site_hse06_10hf_bader_spin_density
 _atom_site_hse06_10hf_ddec_charge
 _atom_site_hse06_10hf_ddec_spin_density
 _atom_site_hse06_10hf_ddec_sum_bond_order
 _atom_site_hse06_10hf_magmom
 _atom_site_hse06_bader_spin_density
 _atom_site_hse06_ddec_charge
 _atom_site_hse06_ddec_spin_density
 _atom_site_hse06_ddec_sum_bond_order
 _atom_site_hse06_magmom
 _atom_site_pbe_bader_spin_density
 _atom_site_pbe_cm5_charge
 _atom_site_pbe_ddec_charge
 _atom_site_pbe_ddec_spin_density
 _atom_site_pbe_ddec_sum_bond_order
 _atom_site_pbe_magmom
Cu  Cu0  1  0.66530376  0.89902161  0.40688735  1  0  0.592956  0  1.851495  0  0  0.476066  0  2.36664  0  0  0.471105  0  2.320128  0  0  0.559692  0.481756  0  2.395749  0
Cu  Cu1  1  0.33469453  0.10097727  0.59311184  1  0  0.592901  0  1.851583  0  0  0.476006  0  2.366758  0  0  0.471062  0  2.320239  0  0  0.559705  0.481703  0  2.395863  0
Cu  Cu2  1  0.09260801  0.88904648  0.96683952  1  0  0.568075  0  1.876786  0  0  0.451659  0  2.375903  0  0  0.452455  0  2.326539  0  0  0.534186  0.452712  0  2.408323  0
Cu  Cu3  1  0.90738874  0.11095773  0.03316061  1  0  0.568062  0  1.876791  0  0  0.451696  0  2.3759  0  0  0.45248  0  2.326538  0  0  0.534198  0.452746  0  2.408322  0
Mo  Mo4  1  0.43455680  0.66568186  0.05532520  1  0  2.238675  0  4.017191  0  0  2.240018  0  4.549352  0  0  2.339464  0  4.513233  0  0  1.496176  2.165366  0  4.583644  0
Mo  Mo5  1  0.56544518  0.33431701  0.94467177  1  0  2.238728  0  4.017211  0  0  2.240071  0  4.549357  0  0  2.339514  0  4.513248  0  0  1.496203  2.165427  0  4.583646  0
Mo  Mo6  1  0.81540651  0.56860512  0.25275178  1  0  2.198113  0  4.065413  0  0  2.198555  0  4.602529  0  0  2.297705  0  4.566312  0  0  1.493033  2.125227  0  4.635431  0
Mo  Mo7  1  0.18459319  0.43139481  0.74724523  1  0  2.198162  0  4.065395  0  0  2.198609  0  4.602505  0  0  2.297756  0  4.566294  0  0  1.493076  2.125279  0  4.635408  0
Mo  Mo8  1  0.90817484  0.57406447  0.90405029  1  0  2.215076  0  4.019965  0  0  2.220731  0  4.539588  0  0  2.323279  0  4.503679  0  0  1.49191  2.144577  0  4.572862  0
Mo  Mo9  1  0.09182468  0.42593441  0.09594816  1  0  2.215092  0  4.019976  0  0  2.220741  0  4.539601  0  0  2.323288  0  4.503688  0  0  1.491899  2.144588  0  4.572878  0
H  H10  1  0.81305006  0.88557889  0.14933924  1  0  0.12064  0  0.935861  0  0  0.128368  0  0.996956  0  0  0.130484  0  0.994  0  0  0.142441  0.126549  0  0.99964  0
H  H11  1  0.18694811  0.11442637  0.85065966  1  0  0.120664  0  0.935774  0  0  0.128282  0  0.996995  0  0  0.130392  0  0.994049  0  0  0.142439  0.126462  0  0.999679  0
H  H12  1  0.14007587  0.89578435  0.27555207  1  0  0.116476  0  0.900733  0  0  0.128907  0  0.954368  0  0  0.130564  0  0.952294  0  0  0.149113  0.127575  0  0.956086  0
H  H13  1  0.85992470  0.10421346  0.72444612  1  0  0.116427  0  0.900747  0  0  0.12889  0  0.95435  0  0  0.130547  0  0.952274  0  0  0.149102  0.127558  0  0.956068  0
H  H14  1  0.53561441  0.36072074  0.40298898  1  0  0.114528  0  0.913378  0  0  0.131658  0  0.968755  0  0  0.131836  0  0.96824  0  0  0.128155  0.131455  0  0.968436  0
H  H15  1  0.46438513  0.63927815  0.59701233  1  0  0.114519  0  0.91337  0  0  0.131657  0  0.968742  0  0  0.131836  0  0.968226  0  0  0.128142  0.131453  0  0.968424  0
H  H16  1  0.47100680  0.35554993  0.55195920  1  0  0.123816  0  0.924086  0  0  0.136588  0  0.986727  0  0  0.138026  0  0.984167  0  0  0.125547  0.135295  0  0.988156  0
H  H17  1  0.52899256  0.64444790  0.44804354  1  0  0.123786  0  0.924141  0  0  0.136569  0  0.986757  0  0  0.138024  0  0.984178  0  0  0.125561  0.135277  0  0.988188  0
H  H18  1  0.38157861  0.17269985  0.15163766  1  0  0.143778  0  0.940434  0  0  0.153486  0  0.998833  0  0  0.156206  0  0.994489  0  0  0.148044  0.151164  0  1.00213  0
H  H19  1  0.61841866  0.82730012  0.84836558  1  0  0.143735  0  0.940457  0  0  0.153433  0  0.998868  0  0  0.156154  0  0.994524  0  0  0.148026  0.151109  0  1.002168  0
H  H20  1  0.85476099  0.33377963  0.34018595  1  0  0.128373  0  0.958874  0  0  0.135432  0  1.022864  0  0  0.138057  0  1.018373  0  0  0.145043  0.13296  0  1.026326  0
H  H21  1  0.14524039  0.66622246  0.65981982  1  0  0.12842  0  0.958859  0  0  0.135449  0  1.02286  0  0  0.138085  0  1.01836  0  0  0.14504  0.132975  0  1.026319  0
H  H22  1  0.67526925  0.18846308  0.57063085  1  0  0.093874  0  0.949797  0  0  0.101658  0  1.032411  0  0  0.105641  0  1.025569  0  0  0.115789  0.098519  0  1.036898  0
H  H23  1  0.32473115  0.81153367  0.42936879  1  0  0.093839  0  0.949777  0  0  0.101653  0  1.032406  0  0  0.105636  0  1.025565  0  0  0.115779  0.098511  0  1.036891  0
H  H24  1  0.77683547  0.35126393  0.58818264  1  0  0.124915  0  0.961149  0  0  0.137829  0  1.020362  0  0  0.138574  0  1.019969  0  0  0.122492  0.137244  0  1.019833  0
H  H25  1  0.22316389  0.64873389  0.41181915  1  0  0.124903  0  0.961113  0  0  0.137825  0  1.020343  0  0  0.138568  0  1.019953  0  0  0.12249  0.13724  0  1.019817  0
C  C26  1  0.80836671  0.99427465  0.22229845  1  0  0.218843  0  3.647812  0  0  0.164027  0  3.92595  0  0  0.176746  0  3.933495  0  0  0.152031  0.156022  0  3.919473  0
C  C27  1  0.19162908  0.00572423  0.77769745  1  0  0.218786  0  3.647929  0  0  0.164017  0  3.92612  0  0  0.176738  0  3.933663  0  0  0.152  0.156016  0  3.919646  0
C  C28  1  0.21990163  0.98348189  0.27982143  1  0  0.238085  0  3.662278  0  0  0.179143  0  3.95088  0  0  0.192988  0  3.957285  0  0  0.15833  0.170165  0  3.944665  0
C  C29  1  0.78009734  0.01651380  0.72017753  1  0  0.238128  0  3.662423  0  0  0.179161  0  3.951022  0  0  0.193006  0  3.957429  0  0  0.158328  0.170185  0  3.944803  0
C  C30  1  0.52045548  0.29469682  0.45955247  1  0  -0.042744  0  3.581198  0  0  -0.11662  0  3.836421  0  0  -0.103078  0  3.847497  0  0  -0.039719  -0.118745  0  3.829176  0
C  C31  1  0.47954282  0.70530207  0.54044767  1  0  -0.042742  0  3.581168  0  0  -0.116588  0  3.836409  0  0  -0.103073  0  3.847478  0  0  -0.039722  -0.118717  0  3.829173  0
C  C32  1  0.34151402  0.12196658  0.21399592  1  0  0.207739  0  3.541899  0  0  0.132078  0  3.79967  0  0  0.15696  0  3.813746  0  0  0.179457  0.122418  0  3.792946  0
C  C33  1  0.65848551  0.87803230  0.78600443  1  0  0.207808  0  3.54197  0  0  0.13219  0  3.799727  0  0  0.157054  0  3.813799  0  0  0.179501  0.12253  0  3.793  0
C  C34  1  0.83102672  0.22209196  0.31681489  1  0  0.203963  0  3.554053  0  0  0.12563  0  3.81308  0  0  0.150698  0  3.828268  0  0  0.17423  0.116326  0  3.80583  0
C  C35  1  0.16897217  0.77791013  0.68318855  1  0  0.20382  0  3.554232  0  0  0.125505  0  3.813185  0  0  0.150547  0  3.828354  0  0  0.174189  0.116205  0  3.805936  0
C  C36  1  0.68889066  0.25383865  0.51341497  1  0  -0.045992  0  3.599276  0  0  -0.12485  0  3.859569  0  0  -0.111301  0  3.869221  0  0  -0.0486  -0.126699  0  3.853489  0
C  C37  1  0.31110660  0.74616131  0.48658732  1  0  -0.045888  0  3.599156  0  0  -0.124899  0  3.859569  0  0  -0.111364  0  3.869234  0  0  -0.048605  -0.12673  0  3.85346  0
N  N38  1  0.76115214  0.17408276  0.39536646  1  0  0.049047  0  3.526125  0  0  0.167222  0  3.710913  0  0  0.123591  0  3.776662  0  0  -0.133759  0.174835  0  3.693064  0
N  N39  1  0.23884760  0.82591720  0.60463626  1  0  0.04897  0  3.526248  0  0  0.167272  0  3.710903  0  0  0.123677  0  3.776608  0  0  -0.133777  0.174877  0  3.693066  0
N  N40  1  0.74701891  0.02852337  0.33661426  1  0  -0.274666  0  3.215572  0  0  -0.241517  0  3.535644  0  0  -0.237981  0  3.545042  0  0  -0.27298  -0.237463  0  3.53255  0
N  N41  1  0.25297709  0.97147659  0.66338592  1  0  -0.274547  0  3.215629  0  0  -0.241397  0  3.535617  0  0  -0.237875  0  3.545008  0  0  -0.272933  -0.237346  0  3.532521  0
N  N42  1  0.31977718  0.08334427  0.40186309  1  0  -0.29467  0  3.252619  0  0  -0.262657  0  3.593266  0  0  -0.258061  0  3.596913  0  0  -0.28402  -0.259963  0  3.594125  0
N  N43  1  0.68022714  0.91665354  0.59813861  1  0  -0.294771  0  3.25277  0  0  -0.262729  0  3.593401  0  0  -0.258146  0  3.59704  0  0  -0.284037  -0.260033  0  3.594256  0
N  N44  1  0.22908206  0.00388565  0.16214977  1  0  -0.385363  0  3.373779  0  0  -0.318687  0  3.717011  0  0  -0.333424  0  3.714752  0  0  -0.382739  -0.308785  0  3.715892  0
N  N45  1  0.77091871  0.99611323  0.83784984  1  0  -0.385361  0  3.373769  0  0  -0.318719  0  3.717026  0  0  -0.333454  0  3.714768  0  0  -0.382745  -0.308817  0  3.715906  0
N  N46  1  0.86050865  0.11101266  0.20617010  1  0  -0.375226  0  3.335547  0  0  -0.306063  0  3.66998  0  0  -0.320973  0  3.669841  0  0  -0.381371  -0.296112  0  3.667554  0
N  N47  1  0.13948811  0.88899156  0.79383098  1  0  -0.375173  0  3.335626  0  0  -0.305978  0  3.669973  0  0  -0.32089  0  3.669845  0  0  -0.381338  -0.296041  0  3.667554  0
N  N48  1  0.39632732  0.17130677  0.35802471  1  0  0.059671  0  3.505439  0  0  0.17256  0  3.695982  0  0  0.130838  0  3.758816  0  0  -0.131757  0.180676  0  3.677837  0
N  N49  1  0.60367345  0.82869211  0.64197586  1  0  0.059723  0  3.505442  0  0  0.172557  0  3.696022  0  0  0.130877  0  3.758814  0  0  -0.131747  0.180674  0  3.677878  0
O  O50  1  0.61799845  0.55229325  0.10316032  1  0  -1.015232  0  1.971433  0  0  -1.000797  0  2.282078  0  0  -1.045294  0  2.276812  0  0  -0.618048  -0.966324  0  2.285041  0
O  O51  1  0.38200250  0.44770668  0.89683785  1  0  -1.015216  0  1.971397  0  0  -1.000774  0  2.28203  0  0  -1.045285  0  2.276795  0  0  -0.618051  -0.966298  0  2.284987  0
O  O52  1  0.02175683  0.49672257  0.27794261  1  0  -0.883863  0  1.672267  0  0  -0.871602  0  1.941939  0  0  -0.909083  0  1.932813  0  0  -0.590296  -0.843533  0  1.948666  0
O  O53  1  0.97823858  0.50327418  0.72205237  1  0  -0.883901  0  1.672227  0  0  -0.871663  0  1.941914  0  0  -0.909142  0  1.93279  0  0  -0.590318  -0.843591  0  1.948639  0
O  O54  1  0.85538969  0.75225344  0.35424956  1  0  -0.739691  0  1.543403  0  0  -0.728444  0  1.836618  0  0  -0.749498  0  1.819182  0  0  -0.545913  -0.713578  0  1.849619  0
O  O55  1  0.14461106  0.24774543  0.64574815  1  0  -0.739703  0  1.543378  0  0  -0.728454  0  1.836586  0  0  -0.74951  0  1.819151  0  0  -0.54592  -0.71359  0  1.849591  0
O  O56  1  0.72061084  0.50747845  0.35188062  1  0  -0.714541  0  1.42623  0  0  -0.707039  0  1.664226  0  0  -0.730984  0  1.652574  0  0  -0.524544  -0.689918  0  1.673384  0
O  O57  1  0.27939134  0.49252148  0.64811777  1  0  -0.71455  0  1.426299  0  0  -0.707032  0  1.664288  0  0  -0.730975  0  1.652639  0  0  -0.524554  -0.689912  0  1.673446  0
O  O58  1  0.96040188  0.59988392  0.09802209  1  0  -0.98637  0  1.776408  0  0  -0.975689  0  2.063672  0  0  -1.018258  0  2.060019  0  0  -0.606614  -0.943505  0  2.066458  0
O  O59  1  0.03959907  0.40011601  0.90197608  1  0  -0.986356  0  1.776332  0  0  -0.975681  0  2.063599  0  0  -1.018233  0  2.059915  0  0  -0.606619  -0.9435  0  2.066389  0
O  O60  1  0.46578756  0.78373103  0.23860030  1  0  -0.808085  0  1.720412  0  0  -0.784114  0  2.055315  0  0  -0.809407  0  2.036517  0  0  -0.569631  -0.766281  0  2.069313  0
O  O61  1  0.53421387  0.21626465  0.76139718  1  0  -0.808072  0  1.72036  0  0  -0.784097  0  2.055261  0  0  -0.809387  0  2.03646  0  0  -0.569626  -0.766266  0  2.069258  0
O  O62  1  0.21654417  0.65292137  0.95941787  1  0  -0.981243  0  1.739048  0  0  -0.977392  0  2.051343  0  0  -1.016133  0  2.042149  0  0  -0.582512  -0.94817  0  2.057596  0
O  O63  1  0.78345905  0.34707748  0.04057740  1  0  -0.981266  0  1.739097  0  0  -0.977412  0  2.051389  0  0  -1.016157  0  2.042202  0  0  -0.582522  -0.948197  0  2.057653  0
O  O64  1  0.70298060  0.49152361  0.83813999  1  0  -0.717766  0  1.524245  0  0  -0.713971  0  1.788457  0  0  -0.742053  0  1.780688  0  0  -0.518662  -0.693305  0  1.794462  0
O  O65  1  0.29701930  0.50847740  0.16185938  1  0  -0.717756  0  1.524219  0  0  -0.713977  0  1.788467  0  0  -0.74204  0  1.780658  0  0  -0.518657  -0.69331  0  1.794469  0
O  O66  1  0.90158179  0.75283881  0.93160916  1  0  -0.779896  0  1.749706  0  0  -0.748916  0  2.078787  0  0  -0.772155  0  2.054884  0  0  -0.564242  -0.732612  0  2.09608  0
O  O67  1  0.09842021  0.24716006  0.06838876  1  0  -0.779916  0  1.749757  0  0  -0.748936  0  2.078828  0  0  -0.772173  0  2.054924  0  0  -0.564236  -0.732631  0  2.096125  0
O  O68  1  0.54125964  0.75585775  0.98713238  1  0  -0.711265  0  1.443067  0  0  -0.703245  0  1.693966  0  0  -0.727528  0  1.682634  0  0  -0.520267  -0.685832  0  1.703887  0
O  O69  1  0.45874294  0.24414431  0.01286788  1  0  -0.711285  0  1.443142  0  0  -0.70326  0  1.694033  0  0  -0.727545  0  1.682703  0  0  -0.520266  -0.68585  0  1.703955  0
