# generated using pymatgen
data_ZnH6(CN2)4
_symmetry_space_group_name_H-M   'P 1'
_cell_length_a   10.71767076
_cell_length_b   13.20114340
_cell_length_c   19.36819830
_cell_angle_alpha   90.00000771
_cell_angle_beta   91.61447646
_cell_angle_gamma   90.00047491
_symmetry_Int_Tables_number   1
_chemical_formula_structural   ZnH6(CN2)4
_chemical_formula_sum   'Zn8 H48 C32 N64'
_cell_volume   2739.23155984
_cell_formula_units_Z   8
loop_
 _symmetry_equiv_pos_site_id
 _symmetry_equiv_pos_as_xyz
  1  'x, y, z'
loop_
 _atom_site_type_symbol
 _atom_site_label
 _atom_site_symmetry_multiplicity
 _atom_site_fract_x
 _atom_site_fract_y
 _atom_site_fract_z
 _atom_site_occupancy
 _atom_site_pbe_bader_charge
 _atom_site_pbe_bader_spin_density
 _atom_site_pbe_cm5_charge
 _atom_site_pbe_ddec_charge
 _atom_site_pbe_ddec_spin_density
 _atom_site_pbe_ddec_sum_bond_order
 _atom_site_pbe_magmom
Zn  Zn0  1  0.42490434  0.39145315  0.22309661  1  1.212046  0  0.761797  0.653355  0  2.496821  0
Zn  Zn1  1  0.92491018  0.60855573  0.22309888  1  1.212422  0  0.761865  0.653405  0  2.496972  0
Zn  Zn2  1  0.39947860  0.10904881  0.97290072  1  1.214805  0  0.760449  0.655754  0  2.480453  0
Zn  Zn3  1  0.89947401  0.89095625  0.97290729  1  1.214795  0  0.760404  0.6557  0  2.480342  0
Zn  Zn4  1  0.43465762  0.10890723  0.47294238  1  1.216909  0  0.761782  0.651961  0  2.502244  0
Zn  Zn5  1  0.93465852  0.89108888  0.47295118  1  1.216481  0  0.76169  0.651793  0  2.502145  0
Zn  Zn6  1  0.39650441  0.39130917  0.72161576  1  1.212489  0  0.758936  0.656849  0  2.471824  0
Zn  Zn7  1  0.89650437  0.60868445  0.72162300  1  1.212441  0  0.758887  0.656706  0  2.472194  0
H  H8  1  0.27387619  0.09888332  0.60500777  1  0.07061  0  0.099436  0.148141  0  1.006024  0
H  H9  1  0.77386560  0.90109809  0.60500639  1  0.071488  0  0.099399  0.148064  0  1.006048  0
H  H10  1  0.20964234  0.20566704  0.64848891  1  0.104027  0  0.103552  0.153263  0  1.010901  0
H  H11  1  0.70962177  0.79430789  0.64847896  1  0.103901  0  0.103536  0.153211  0  1.010834  0
H  H12  1  0.33312369  0.13535613  0.68829812  1  0.094404  0  0.103489  0.156512  0  0.992395  0
H  H13  1  0.83308248  0.86462116  0.68830299  1  0.093964  0  0.103464  0.156463  0  0.992456  0
H  H14  1  0.28053945  0.29716767  0.43993283  1  0.116336  0  0.100336  0.145032  0  1.033704  0
H  H15  1  0.78051407  0.70284255  0.43992531  1  0.116541  0  0.100281  0.145002  0  1.03368  0
H  H16  1  0.24278176  0.36013253  0.36115449  1  0.088778  0  0.101846  0.152318  0  1.015099  0
H  H17  1  0.74275678  0.63989105  0.36114493  1  0.089686  0  0.101863  0.152294  0  1.015123  0
H  H18  1  0.36887151  0.40522830  0.41496263  1  0.080904  0  0.10753  0.161055  0  0.964899  0
H  H19  1  0.86883587  0.59477948  0.41495169  1  0.081077  0  0.107443  0.160813  0  0.964899  0
H  H20  1  0.23853557  0.38792031  0.85794054  1  0.074798  0  0.10023  0.149807  0  1.002009  0
H  H21  1  0.73855271  0.61205334  0.85795919  1  0.07643  0  0.100244  0.149855  0  1.001928  0
H  H22  1  0.33734102  0.37897673  0.93351853  1  0.109366  0  0.106594  0.159651  0  0.981118  0
H  H23  1  0.83736493  0.62102563  0.93353481  1  0.108908  0  0.106564  0.15969  0  0.981431  0
H  H24  1  0.21378439  0.29095590  0.92060528  1  0.104984  0  0.103928  0.153169  0  1.011402  0
H  H25  1  0.71379898  0.70902744  0.92062022  1  0.103561  0  0.103916  0.153188  0  1.011418  0
H  H26  1  0.26561751  0.20565355  0.19152379  1  0.096045  0  0.102886  0.149447  0  1.023588  0
H  H27  1  0.76561685  0.79434515  0.19152584  1  0.095987  0  0.102884  0.149489  0  1.023599  0
H  H28  1  0.35913071  0.09995014  0.16864681  1  0.076939  0  0.10945  0.16334  0  0.962283  0
H  H29  1  0.85913181  0.90004995  0.16865356  1  0.076816  0  0.10943  0.163352  0  0.962299  0
H  H30  1  0.22924014  0.13663970  0.11463439  1  0.074654  0  0.10206  0.153197  0  1.006099  0
H  H31  1  0.72924764  0.86335799  0.11463670  1  0.074646  0  0.101998  0.153144  0  1.00615  0
H  H32  1  0.35559798  0.86777910  0.47668524  1  0.133364  0  0.099462  0.144453  0  1.058464  0
H  H33  1  0.85558845  0.13221799  0.47669170  1  0.133523  0  0.099458  0.144483  0  1.058613  0
H  H34  1  0.20699710  0.81092595  0.45682234  1  0.100628  0  0.104967  0.156922  0  0.992727  0
H  H35  1  0.70699464  0.18908074  0.45682954  1  0.100702  0  0.104941  0.156866  0  0.992761  0
H  H36  1  0.24880590  0.84084699  0.54323208  1  0.095417  0  0.106412  0.159646  0  0.965072  0
H  H37  1  0.74879763  0.15914409  0.54323754  1  0.095271  0  0.106432  0.159645  0  0.965022  0
H  H38  1  0.31535348  0.62847093  0.73119033  1  0.098781  0  0.099429  0.144971  0  1.058285  0
H  H39  1  0.81535967  0.37152518  0.73119314  1  0.09864  0  0.099395  0.144911  0  1.058368  0
H  H40  1  0.21763555  0.64372232  0.80343956  1  0.05742  0  0.105333  0.157957  0  0.961012  0
H  H41  1  0.71764719  0.35627163  0.80344255  1  0.057311  0  0.105349  0.157994  0  0.960986  0
H  H42  1  0.16559124  0.68763273  0.72134612  1  0.103052  0  0.103162  0.153341  0  1.00963  0
H  H43  1  0.66559587  0.31236161  0.72134941  1  0.10306  0  0.103148  0.153353  0  1.009634  0
H  H44  1  0.19283888  0.69136881  0.22810928  1  0.109586  0  0.100196  0.148981  0  1.028799  0
H  H45  1  0.69284852  0.30864153  0.22810550  1  0.109142  0  0.10019  0.148919  0  1.028991  0
H  H46  1  0.24195945  0.64117332  0.14833217  1  0.075528  0  0.105887  0.160539  0  0.972749  0
H  H47  1  0.74197221  0.35884113  0.14833210  1  0.075538  0  0.105821  0.160459  0  0.972631  0
H  H48  1  0.34321092  0.63272667  0.22292366  1  0.118881  0  0.098739  0.145067  0  1.049967  0
H  H49  1  0.84322843  0.36727256  0.22292374  1  0.118655  0  0.098808  0.145104  0  1.04995  0
H  H50  1  0.31866804  0.86758510  0.97899904  1  0.115601  0  0.097659  0.142996  0  1.056053  0
H  H51  1  0.81867157  0.13241032  0.97900592  1  0.116245  0  0.097667  0.143044  0  1.056046  0
H  H52  1  0.21946471  0.85598198  0.90391500  1  0.112454  0  0.106093  0.160662  0  0.975207  0
H  H53  1  0.71947401  0.14401352  0.90392103  1  0.112406  0  0.106081  0.160654  0  0.975211  0
H  H54  1  0.16799949  0.80903133  0.98402276  1  0.112577  0  0.099117  0.147078  0  1.030994  0
H  H55  1  0.66801308  0.19097140  0.98402738  1  0.112669  0  0.099138  0.147061  0  1.031062  0
C  C56  1  0.38858360  0.23097227  0.60653459  1  1.009187  0  0.23355  0.385602  0  3.97756  0
C  C57  1  0.88857870  0.76901219  0.60654116  1  1.008839  0  0.23364  0.385444  0  3.977562  0
C  C58  1  0.29569395  0.16356264  0.63852636  1  -0.078258  0  -0.229894  -0.464502  0  3.921996  0
C  C59  1  0.79567424  0.83641817  0.63852573  1  -0.078371  0  -0.229819  -0.464269  0  3.921967  0
C  C60  1  0.40697325  0.26988030  0.35924210  1  0.980465  0  0.234206  0.386116  0  3.975619  0
C  C61  1  0.90695630  0.73013378  0.35923950  1  0.98086  0  0.234198  0.386156  0  3.975243  0
C  C62  1  0.31995309  0.33706055  0.39602746  1  -0.079384  0  -0.230166  -0.467263  0  3.931044  0
C  C63  1  0.81992634  0.66295219  0.39602042  1  -0.080529  0  -0.230082  -0.466965  0  3.930838  0
C  C64  1  0.28474430  0.33527048  0.89410102  1  -0.091567  0  -0.226926  -0.460967  0  3.919014  0
C  C65  1  0.78475954  0.66471863  0.89411289  1  -0.091692  0  -0.226918  -0.461215  0  3.919316  0
C  C66  1  0.37051730  0.26716379  0.85718467  1  0.995854  0  0.232748  0.380882  0  3.983316  0
C  C67  1  0.87051488  0.73283347  0.85719028  1  0.996398  0  0.232876  0.381222  0  3.982892  0
C  C68  1  0.18920827  0.53008732  0.22073159  1  0.99824  0  0.237051  0.394713  0  3.965221  0
C  C69  1  0.68922033  0.46991846  0.22073097  1  0.997442  0  0.23734  0.395032  0  3.964844  0
C  C70  1  0.38785225  0.23295538  0.10864227  1  0.989855  0  0.234199  0.382587  0  3.978036  0
C  C71  1  0.88786243  0.76704717  0.10864622  1  0.990918  0  0.23416  0.382747  0  3.977941  0
C  C72  1  0.30574513  0.16492842  0.14809541  1  -0.042205  0  -0.227427  -0.465318  0  3.9213  0
C  C73  1  0.80574947  0.83507206  0.14809917  1  -0.042538  0  -0.227376  -0.465421  0  3.921243  0
C  C74  1  0.25658893  0.86653797  0.48950881  1  -0.133284  0  -0.230922  -0.467961  0  3.923882  0
C  C75  1  0.75657862  0.13346149  0.48951266  1  -0.133269  0  -0.230874  -0.467888  0  3.923875  0
C  C76  1  0.19947880  0.96811913  0.48068717  1  0.990075  0  0.235745  0.385807  0  3.981343  0
C  C77  1  0.69947250  0.03187918  0.48068393  1  0.98986  0  0.235828  0.38592  0  3.981173  0
C  C78  1  0.21831257  0.62714345  0.74776371  1  -0.059885  0  -0.232206  -0.468398  0  3.925076  0
C  C79  1  0.71832064  0.37285201  0.74776658  1  -0.06014  0  -0.232211  -0.468441  0  3.925175  0
C  C80  1  0.24546850  0.62955692  0.20461106  1  -0.08095  0  -0.233176  -0.467989  0  3.910787  0
C  C81  1  0.74548420  0.37045529  0.20461056  1  -0.080165  0  -0.233264  -0.467922  0  3.910766  0
C  C82  1  0.15986599  0.52730417  0.73344858  1  1.002858  0  0.234036  0.383964  0  3.983035  0
C  C83  1  0.65987428  0.47269013  0.73344887  1  1.003612  0  0.234113  0.384124  0  3.983142  0
C  C84  1  0.16431723  0.96990678  0.97357204  1  0.998195  0  0.237255  0.394246  0  3.966286  0
C  C85  1  0.66431389  0.03009669  0.97358284  1  0.998431  0  0.237369  0.394318  0  3.966026  0
C  C86  1  0.22131563  0.86991336  0.95995671  1  -0.12293  0  -0.234198  -0.46889  0  3.917414  0
C  C87  1  0.72131919  0.13008519  0.95996255  1  -0.12347  0  -0.234231  -0.468952  0  3.917625  0
N  N88  1  0.52566428  0.29517322  0.53787484  1  -0.117536  0  -0.097572  -0.08007  0  3.251  0
N  N89  1  0.02567661  0.70482242  0.53788966  1  -0.116707  0  -0.097791  -0.080341  0  3.250998  0
N  N90  1  0.51484793  0.35745113  0.58912918  1  -0.084217  0  -0.101563  -0.08102  0  3.236373  0
N  N91  1  0.01486143  0.64254748  0.58914507  1  -0.084971  0  -0.101428  -0.080861  0  3.235982  0
N  N92  1  0.44768155  0.21488900  0.54733585  1  -0.807916  0  -0.255653  -0.285435  0  3.50372  0
N  N93  1  0.94767489  0.78509887  0.54734339  1  -0.807577  0  -0.255622  -0.285325  0  3.503403  0
N  N94  1  0.42933618  0.31945944  0.63293323  1  -0.806461  0  -0.255029  -0.275998  0  3.506241  0
N  N95  1  0.92933487  0.68053060  0.63294302  1  -0.806268  0  -0.2551  -0.275888  0  3.506263  0
N  N96  1  0.53012838  0.20672027  0.28250291  1  -0.113243  0  -0.098472  -0.082736  0  3.266361  0
N  N97  1  0.03012545  0.79328671  0.28250535  1  -0.113055  0  -0.09841  -0.0827  0  3.266433  0
N  N98  1  0.53297018  0.14578465  0.33509808  1  -0.089953  0  -0.103374  -0.083873  0  3.231779  0
N  N99  1  0.03297430  0.85421933  0.33510281  1  -0.09017  0  -0.103416  -0.083837  0  3.231902  0
N  N100  1  0.45173858  0.28525639  0.29601136  1  -0.817856  0  -0.255121  -0.282341  0  3.508202  0
N  N101  1  0.95172133  0.71475799  0.29601133  1  -0.818319  0  -0.255098  -0.282373  0  3.508153  0
N  N102  1  0.45653740  0.18326373  0.38386241  1  -0.777231  0  -0.251161  -0.269838  0  3.509544  0
N  N103  1  0.95653324  0.81674615  0.38386435  1  -0.77727  0  -0.251139  -0.2699  0  3.509268  0
N  N104  1  0.50190165  0.29765849  0.02835416  1  -0.132418  0  -0.100081  -0.090457  0  3.280445  0
N  N105  1  0.00191174  0.70234902  0.02835806  1  -0.131984  0  -0.100058  -0.09046  0  3.280273  0
N  N106  1  0.50820760  0.35880776  0.08086592  1  -0.077915  0  -0.10093  -0.085816  0  3.248293  0
N  N107  1  0.00821528  0.64119677  0.08086820  1  -0.078274  0  -0.100821  -0.085593  0  3.248141  0
N  N108  1  0.43763982  0.32031465  0.13184514  1  -0.790192  0  -0.249202  -0.266598  0  3.503965  0
N  N109  1  0.93764737  0.67968975  0.13184643  1  -0.790212  0  -0.249294  -0.26677  0  3.504236  0
N  N110  1  0.42691405  0.21796438  0.04417500  1  -0.808828  0  -0.253985  -0.27961  0  3.501729  0
N  N111  1  0.92692432  0.78204448  0.04417999  1  -0.809336  0  -0.253944  -0.279703  0  3.501626  0
N  N112  1  0.49321659  0.20261297  0.78097578  1  -0.102425  0  -0.096353  -0.083861  0  3.275941  0
N  N113  1  0.99319810  0.79739344  0.78097984  1  -0.101224  0  -0.096181  -0.083388  0  3.275459  0
N  N114  1  0.41616697  0.17897916  0.88155159  1  -0.799594  0  -0.251172  -0.270974  0  3.506077  0
N  N115  1  0.91615329  0.82102144  0.88155735  1  -0.799276  0  -0.251225  -0.270893  0  3.505697  0
N  N116  1  0.49234617  0.14065167  0.83298263  1  -0.102534  0  -0.101513  -0.087716  0  3.249763  0
N  N117  1  0.99232183  0.85935625  0.83298546  1  -0.104192  0  -0.101707  -0.088189  0  3.249741  0
N  N118  1  0.41766307  0.28291637  0.79461051  1  -0.807284  0  -0.25256  -0.281573  0  3.496174  0
N  N119  1  0.91765942  0.71708044  0.79461866  1  -0.807292  0  -0.252579  -0.281821  0  3.495792  0
N  N120  1  0.05374582  0.41092294  0.24079033  1  -0.099864  0  -0.084133  -0.062008  0  3.26214  0
N  N121  1  0.55375504  0.58908495  0.24077825  1  -0.099944  0  -0.084187  -0.061889  0  3.262318  0
N  N122  1  0.16298173  0.36883529  0.24061339  1  -0.114531  0  -0.091862  -0.077689  0  3.260879  0
N  N123  1  0.66299040  0.63117486  0.24060232  1  -0.114526  0  -0.091756  -0.077672  0  3.260713  0
N  N124  1  0.25004730  0.44173230  0.22848812  1  -0.806769  0  -0.25401  -0.278616  0  3.50357  0
N  N125  1  0.75006009  0.55827616  0.22849062  1  -0.806184  0  -0.254196  -0.278902  0  3.503719  0
N  N126  1  0.06692089  0.51164532  0.22854402  1  -0.79802  0  -0.252155  -0.274824  0  3.520102  0
N  N127  1  0.56693305  0.48836114  0.22854496  1  -0.797988  0  -0.252222  -0.275011  0  3.520034  0
N  N128  1  0.04178195  0.98830553  0.98040799  1  -0.795188  0  -0.250231  -0.272946  0  3.510442  0
N  N129  1  0.54177313  0.01169863  0.98041294  1  -0.795478  0  -0.250235  -0.272875  0  3.510165  0
N  N130  1  0.03654491  0.50850917  0.72895012  1  -0.793763  0  -0.251178  -0.27799  0  3.513364  0
N  N131  1  0.53655515  0.49148430  0.72895254  1  -0.794208  0  -0.251243  -0.278088  0  3.513106  0
N  N132  1  0.21997235  0.43937638  0.72379892  1  -0.831791  0  -0.252387  -0.276663  0  3.50444  0
N  N133  1  0.71998124  0.56061984  0.72380491  1  -0.831516  0  -0.252344  -0.276562  0  3.504662  0
N  N134  1  0.06231199  0.08973490  0.47076121  1  -0.123058  0  -0.08079  -0.053761  0  3.263677  0
N  N135  1  0.56230529  0.91026248  0.47074136  1  -0.123308  0  -0.080663  -0.053745  0  3.263585  0
N  N136  1  0.17170180  0.13095291  0.46833606  1  -0.065009  0  -0.089899  -0.072593  0  3.243041  0
N  N137  1  0.67169805  0.86904673  0.46832303  1  -0.065034  0  -0.089881  -0.072407  0  3.242961  0
N  N138  1  0.25991201  0.05657708  0.47433170  1  -0.824346  0  -0.253164  -0.277546  0  3.506137  0
N  N139  1  0.75990744  0.94342164  0.47433051  1  -0.823993  0  -0.253178  -0.277594  0  3.50596  0
N  N140  1  0.07633590  0.98807305  0.47866764  1  -0.770273  0  -0.253382  -0.276867  0  3.524891  0
N  N141  1  0.57632998  0.01192444  0.47865356  1  -0.770306  0  -0.253666  -0.277249  0  3.525273  0
N  N142  1  0.22474415  0.05873970  0.97955757  1  -0.801898  0  -0.253991  -0.277245  0  3.500142  0
N  N143  1  0.72473686  0.94126418  0.97957180  1  -0.802028  0  -0.254014  -0.277301  0  3.499857  0
N  N144  1  0.13710864  0.13196715  0.98965620  1  -0.114102  0  -0.093638  -0.083922  0  3.257058  0
N  N145  1  0.63709763  0.86803689  0.98967341  1  -0.114717  0  -0.093578  -0.083783  0  3.256709  0
N  N146  1  0.02208834  0.40790647  0.71600691  1  -0.094316  0  -0.083075  -0.05691  0  3.268451  0
N  N147  1  0.52210038  0.59208993  0.71601249  1  -0.093962  0  -0.083082  -0.056928  0  3.268565  0
N  N148  1  0.02807786  0.08956440  0.99028293  1  -0.10754  0  -0.085177  -0.062621  0  3.269395  0
N  N149  1  0.52806570  0.91044194  0.99029493  1  -0.106964  0  -0.085264  -0.062786  0  3.26924  0
N  N150  1  0.13126998  0.36628545  0.71305131  1  -0.081694  0  -0.091745  -0.077795  0  3.237112  0
N  N151  1  0.63128044  0.63371094  0.71305941  1  -0.082096  0  -0.091797  -0.077893  0  3.237384  0
