# generated using pymatgen
data_CuH12C14(NO)4
_symmetry_space_group_name_H-M   'P 1'
_cell_length_a   4.76844590
_cell_length_b   11.06288106
_cell_length_c   14.59703920
_cell_angle_alpha   107.01411299
_cell_angle_beta   99.41688209
_cell_angle_gamma   102.46423369
_symmetry_Int_Tables_number   1
_chemical_formula_structural   CuH12C14(NO)4
_chemical_formula_sum   'Cu2 H24 C28 N8 O8'
_cell_volume   697.44931732
_cell_formula_units_Z   2
loop_
 _symmetry_equiv_pos_site_id
 _symmetry_equiv_pos_as_xyz
  1  'x, y, z'
loop_
 _atom_site_type_symbol
 _atom_site_label
 _atom_site_symmetry_multiplicity
 _atom_site_fract_x
 _atom_site_fract_y
 _atom_site_fract_z
 _atom_site_occupancy
 _atom_site_hle17_ddec_charge
 _atom_site_hle17_ddec_spin_density
 _atom_site_hle17_ddec_sum_bond_order
 _atom_site_hle17_magmom
 _atom_site_hse06_10hf_ddec_charge
 _atom_site_hse06_10hf_ddec_spin_density
 _atom_site_hse06_10hf_ddec_sum_bond_order
 _atom_site_hse06_10hf_magmom
 _atom_site_hse06_ddec_charge
 _atom_site_hse06_ddec_spin_density
 _atom_site_hse06_ddec_sum_bond_order
 _atom_site_hse06_magmom
 _atom_site_pbe_cm5_charge
 _atom_site_pbe_ddec_charge
 _atom_site_pbe_ddec_spin_density
 _atom_site_pbe_ddec_sum_bond_order
 _atom_site_pbe_magmom
Cu  Cu0  1  0.50001237  0.99999673  0.99999927  1  0.851368  0.728674  1.795757  0.513  0.821388  0.806703  2.187874  0.62  0.909785  0.876374  2.121065  0.698  0.749551  0.764336  0.754546  2.236343  0.567
Cu  Cu1  1  0.00001722  0.50000862  0.50000699  1  0.851161  -0.725886  1.795144  -0.51  0.821224  -0.803643  2.187086  -0.617  0.909476  -0.874095  2.119864  -0.695  0.749484  0.765754  -0.754491  2.234952  -0.567
H  H2  1  0.46893216  0.84018219  0.14919943  1  0.104038  -3.8e-05  0.968798  0.0  0.11332  0.000131  1.028589  0.001  0.115706  8.5e-05  1.027797  0.0  0.11573  0.11146  0.000179  1.029328  0.001
H  H3  1  0.97970398  0.65965718  0.35055585  1  0.103504  2.7e-05  0.969882  0.0  0.11279  -0.000147  1.029651  -0.001  0.115166  -9.7e-05  1.028866  0.0  0.11614  0.111016  -0.000179  1.03035  -0.001
H  H4  1  0.53109949  0.15981483  0.85079619  1  0.104143  -3.6e-05  0.968783  0.0  0.113371  0.000131  1.02862  0.001  0.115754  8.5e-05  1.027832  0.0  0.115764  0.111514  0.000179  1.029353  0.001
H  H5  1  0.02028866  0.34035849  0.64945095  1  0.103454  2.4e-05  0.969961  0.0  0.112731  -0.000147  1.029717  -0.001  0.115105  -9.7e-05  1.02894  0.0  0.116114  0.110954  -0.000179  1.030417  -0.001
H  H6  1  0.17656780  0.90372992  0.29912087  1  0.100243  0.000571  0.974339  0.001  0.11425  0.000449  1.028687  0.0  0.116172  0.000334  1.028604  0.0  0.117921  0.112758  0.000546  1.028965  0.001
H  H7  1  0.47303418  0.59615973  0.20078205  1  0.100531  -0.000579  0.972518  -0.001  0.114005  -0.000455  1.027571  0.0  0.115992  -0.000339  1.027418  0.0  0.118548  0.112483  -0.000542  1.027865  -0.001
H  H8  1  0.82344892  0.09626118  0.70087470  1  0.100347  0.000572  0.974121  0.001  0.114309  0.000449  1.028524  0.0  0.116233  0.000334  1.028436  0.0  0.117918  0.112816  0.000546  1.028807  0.001
H  H9  1  0.52695291  0.40383330  0.79921903  1  0.10048  -0.000579  0.972562  -0.001  0.11397  -0.000455  1.027606  0.0  0.11596  -0.000339  1.027448  0.0  0.118538  0.112447  -0.000542  1.027901  -0.001
H  H10  1  0.11916501  0.15463816  0.13083812  1  0.100956  -0.000206  0.97528  0.0  0.102782  -0.000164  1.051546  0.0  0.106391  -0.000167  1.046704  0.0  0.131948  0.099845  -0.000152  1.055426  0.0
H  H11  1  0.33346000  0.34532994  0.36916373  1  0.10076  0.000207  0.974519  0.0  0.101973  0.000166  1.051774  0.0  0.105611  0.000169  1.046908  0.0  0.131419  0.099122  0.000154  1.055544  0.0
H  H12  1  0.88085439  0.84536667  0.86916726  1  0.100891  -0.000203  0.975274  0.0  0.10276  -0.000164  1.051508  0.0  0.106369  -0.000167  1.046666  0.0  0.13194  0.099826  -0.000151  1.055388  0.0
H  H13  1  0.66656311  0.65467091  0.63084825  1  0.100777  0.000204  0.974461  0.0  0.101972  0.000166  1.051731  0.0  0.105603  0.000169  1.046883  0.0  0.131427  0.099123  0.000154  1.055511  0.0
H  H14  1  0.88192914  0.71634508  0.06438623  1  0.098549  0.000729  0.98148  0.0  0.104223  0.000602  1.050158  0.0  0.107058  0.000405  1.049654  0.0  0.097763  0.101952  0.00054  1.051097  0.0
H  H15  1  0.59934494  0.78339932  0.43531204  1  0.097122  -0.000499  0.981619  0.0  0.102554  -0.000416  1.050752  0.0  0.105528  -0.000273  1.050073  0.0  0.097082  0.100445  -0.000536  1.051272  0.0
H  H16  1  0.11803828  0.28365189  0.93561516  1  0.098489  0.000724  0.981429  0.0  0.104152  0.000602  1.050141  0.0  0.106992  0.000405  1.049627  0.0  0.097698  0.101877  0.00054  1.051074  0.0
H  H17  1  0.40065623  0.21660856  0.56468158  1  0.097078  -0.000507  0.981547  0.0  0.102522  -0.000416  1.050689  0.0  0.105497  -0.000273  1.050013  0.0  0.097068  0.100412  -0.000536  1.051211  0.0
H  H18  1  0.02402831  0.47252936  0.88657338  1  0.089432  -2.1e-05  0.965095  0.0  0.097938  -2e-05  1.029979  0.0  0.100755  -2.3e-05  1.029026  0.0  0.099791  0.095881  -7.7e-05  1.030734  0.0
H  H19  1  0.16594537  0.02777257  0.61366832  1  0.088982  7.6e-05  0.965801  0.0  0.097633  6.8e-05  1.030557  0.0  0.100519  5e-05  1.02945  0.0  0.099485  0.095557  8e-05  1.031429  0.0
H  H20  1  0.97593263  0.52746956  0.11343123  1  0.089409  -2e-05  0.964966  0.0  0.097853  -2e-05  1.029934  0.0  0.100665  -2.2e-05  1.028996  0.0  0.099731  0.095794  -7.7e-05  1.030698  0.0
H  H21  1  0.83404041  0.97222549  0.38631826  1  0.088927  7.1e-05  0.965776  0.0  0.097657  6.7e-05  1.030455  0.0  0.100546  5e-05  1.029341  0.0  0.099447  0.095569  8e-05  1.031346  0.0
H  H22  1  0.99859059  0.09951183  0.28242884  1  0.31616  0.000379  0.925275  0.001  0.29735  0.000285  0.985312  0.001  0.30636  0.000234  0.978194  0.0  0.310917  0.290947  0.00032  0.990429  0.001
H  H23  1  0.11587309  0.40040893  0.21758640  1  0.317565  -0.000379  0.923376  -0.001  0.298268  -0.000289  0.984238  -0.001  0.307301  -0.000236  0.977027  0.0  0.311416  0.291902  -0.000319  0.989338  -0.001
H  H24  1  0.00141975  0.90048416  0.71757302  1  0.316101  0.000378  0.925327  0.001  0.297316  0.000285  0.985341  0.001  0.306326  0.000234  0.978221  0.0  0.31088  0.290913  0.00032  0.990465  0.001
H  H25  1  0.88413586  0.59958604  0.78242037  1  0.317555  -0.000379  0.923437  -0.001  0.298219  -0.000289  0.98435  -0.001  0.307251  -0.000235  0.977143  0.0  0.311393  0.29185  -0.000319  0.989454  -0.001
C  C26  1  0.35024081  0.91352361  0.16730418  1  -0.01185  0.000224  3.750756  0.0  -0.038197  0.001006  4.012128  0.001  -0.03457  0.000273  4.031894  0.0  -0.009848  -0.040361  0.001526  3.998977  0.001
C  C27  1  0.76936910  0.58636703  0.33254541  1  -0.013301  -0.000182  3.749418  0.0  -0.039647  -0.001001  4.010934  -0.001  -0.036074  -0.000272  4.030772  0.0  -0.00986  -0.041849  -0.001539  3.997738  -0.001
C  C28  1  0.64977538  0.08647336  0.83269686  1  -0.012237  0.000192  3.750701  0.0  -0.038527  0.001006  4.012131  0.001  -0.034903  0.000272  4.031899  0.0  -0.009927  -0.040687  0.001526  3.998966  0.001
C  C29  1  0.23062829  0.41364275  0.66745782  1  -0.013329  -0.000176  3.749716  0.0  -0.039641  -0.001002  4.011245  -0.001  -0.036068  -0.000273  4.031077  0.0  -0.009893  -0.041843  -0.00154  3.998048  -0.001
C  C30  1  0.20562460  0.94423772  0.24115140  1  -0.018812  0.003687  3.721315  0.004  -0.052328  0.002062  3.971761  0.002  -0.050376  0.001752  3.989687  0.002  -0.00177  -0.053532  0.002303  3.959673  0.002
C  C31  1  0.51990839  0.55560652  0.25871326  1  -0.017366  -0.003596  3.71746  -0.004  -0.050434  -0.002019  3.96809  -0.002  -0.048567  -0.001732  3.985954  -0.002  -0.002403  -0.051563  -0.002309  3.95596  -0.002
C  C32  1  0.79438839  0.05575733  0.75884341  1  -0.018519  0.003711  3.720746  0.004  -0.05198  0.002062  3.971123  0.002  -0.050024  0.001752  3.989042  0.002  -0.001658  -0.05319  0.002303  3.95905  0.002
C  C33  1  0.48006377  0.44438848  0.74128722  1  -0.017352  -0.003599  3.717651  -0.004  -0.05047  -0.002019  3.968289  -0.002  -0.048603  -0.001731  3.986158  -0.002  -0.002431  -0.051599  -0.002309  3.956152  -0.002
C  C34  1  0.17869688  0.07797367  0.15541339  1  0.224369  -0.005007  3.628869  -0.004  0.164041  -0.001194  3.907907  -0.001  0.179783  -0.001919  3.919663  -0.002  0.143802  0.153736  -0.000641  3.90048  0.0
C  C35  1  0.44511183  0.42195863  0.34453960  1  0.222167  0.005054  3.629166  0.004  0.162101  0.001214  3.908545  0.001  0.177761  0.001938  3.920335  0.002  0.14277  0.151878  0.000645  3.900967  0.0
C  C36  1  0.82132179  0.92202725  0.84458866  1  0.224553  -0.005038  3.629023  -0.004  0.164191  -0.001195  3.908066  -0.001  0.179935  -0.00192  3.919821  -0.002  0.143917  0.153883  -0.000641  3.900643  0.0
C  C37  1  0.55491028  0.57804617  0.65547217  1  0.222172  0.005075  3.628827  0.004  0.162128  0.001214  3.908217  0.001  0.17779  0.001939  3.919995  0.002  0.142794  0.151892  0.000645  3.900656  0.0
C  C38  1  0.38975608  0.72147920  0.94542893  1  0.641572  -0.002826  3.886862  -0.007  0.596558  0.000803  4.189675  -0.002  0.633762  0.000164  4.182394  -0.002  0.208556  0.570614  0.001329  4.194326  -0.002
C  C39  1  0.22252656  0.77864391  0.55465714  1  0.640187  0.003003  3.888124  0.007  0.595284  -0.000784  4.190472  0.002  0.632748  -0.00014  4.18293  0.002  0.2086  0.569989  -0.001343  4.194512  0.002
C  C40  1  0.61024444  0.27852569  0.05456896  1  0.641648  -0.002824  3.887012  -0.007  0.596732  0.000802  4.18975  -0.002  0.633938  0.000164  4.182464  -0.002  0.208587  0.570782  0.001329  4.194413  -0.002
C  C41  1  0.77748903  0.22136198  0.44533858  1  0.640276  0.003014  3.888039  0.007  0.595427  -0.000783  4.19032  0.002  0.632886  -0.000139  4.182791  0.002  0.208681  0.57012  -0.001342  4.194365  0.002
C  C42  1  0.44718818  0.60627892  0.97251830  1  -0.061564  0.008731  3.745604  0.009  -0.041266  0.005656  3.978539  0.006  -0.047747  0.004061  3.999706  0.005  -0.018736  -0.036754  0.007013  3.964528  0.008
C  C43  1  0.36794470  0.89375675  0.52745699  1  -0.062841  -0.008822  3.748937  -0.01  -0.042448  -0.005746  3.981541  -0.007  -0.049088  -0.00411  4.002795  -0.005  -0.01827  -0.037965  -0.007021  3.967106  -0.008
C  C44  1  0.55278494  0.39372196  0.02748901  1  -0.061519  0.008751  3.745563  0.009  -0.041367  0.005654  3.978615  0.006  -0.047849  0.004061  3.999783  0.005  -0.018744  -0.036858  0.007012  3.964612  0.008
C  C45  1  0.63205774  0.10623931  0.47253372  1  -0.063082  -0.00892  3.748945  -0.01  -0.042711  -0.005745  3.981581  -0.007  -0.049348  -0.00411  4.002841  -0.005  -0.018383  -0.038216  -0.00702  3.967128  -0.008
C  C46  1  0.71555342  0.62124127  0.03674745  1  -0.083637  -0.000178  3.736382  0.0  -0.105442  0.000322  3.985887  0.0  -0.105656  0.000171  4.005303  0.0  -0.091752  -0.105195  0.00058  3.973332  0.0
C  C47  1  0.55663871  0.87861335  0.46310191  1  -0.080166  -6.7e-05  3.735466  0.0  -0.101697  -0.000388  3.984426  0.0  -0.101961  -0.000197  4.003709  0.0  -0.09032  -0.101422  -0.000575  3.971322  0.0
C  C48  1  0.28442580  0.37875666  0.96325856  1  -0.083583  -0.000179  3.736359  0.0  -0.105339  0.000324  3.985936  0.0  -0.105554  0.00017  4.005354  0.0  -0.091738  -0.105086  0.000581  3.973374  0.0
C  C49  1  0.44336458  0.12138565  0.53689255  1  -0.079929  5.5e-05  3.735302  0.0  -0.101457  -0.000388  3.984188  0.0  -0.101726  -0.000197  4.003477  0.0  -0.09021  -0.10118  -0.000576  3.97108  0.0
C  C50  1  0.23249929  0.48405009  0.93613025  1  -0.082486  0.000471  3.779635  0.001  -0.103087  0.000508  4.029972  0.001  -0.105093  0.000286  4.051991  0.0  -0.086399  -0.101698  0.000624  4.014928  0.001
C  C51  1  0.31278377  0.01612260  0.56397773  1  -0.082524  -0.000354  3.780145  -0.001  -0.103585  -0.000461  4.030594  -0.001  -0.105573  -0.000266  4.0527  0.0  -0.087261  -0.102223  -0.000619  4.015457  -0.001
C  C52  1  0.76746963  0.51594295  0.06386986  1  -0.082454  0.000453  3.779591  0.001  -0.102965  0.00051  4.029961  0.001  -0.10497  0.000285  4.051973  0.0  -0.086378  -0.101576  0.000624  4.014927  0.001
C  C53  1  0.68718536  0.98386957  0.43600527  1  -0.082299  -0.000241  3.780054  -0.001  -0.103411  -0.00046  4.030499  -0.001  -0.105404  -0.000266  4.052608  0.0  -0.087144  -0.102049  -0.000619  4.015348  -0.001
N  N54  1  0.33092920  0.99752949  0.11401633  1  -0.368969  0.071484  3.325904  0.088  -0.325514  0.050132  3.646748  0.065  -0.356961  0.042447  3.66521  0.058  -0.384275  -0.306518  0.054303  3.636227  0.068
N  N55  1  0.71947472  0.50237972  0.38585747  1  -0.366644  -0.071348  3.32309  -0.088  -0.322935  -0.050255  3.643528  -0.065  -0.354192  -0.042587  3.661846  -0.058  -0.383143  -0.303734  -0.054295  3.632894  -0.068
N  N56  1  0.66909620  0.00246947  0.88598468  1  -0.368931  0.071499  3.326095  0.088  -0.325505  0.050133  3.646963  0.065  -0.356951  0.042448  3.665425  0.058  -0.384351  -0.306503  0.054302  3.636428  0.068
N  N57  1  0.28053558  0.49763398  0.61415046  1  -0.366536  -0.071352  3.323126  -0.088  -0.322869  -0.050253  3.643579  -0.065  -0.354124  -0.042588  3.66189  -0.058  -0.383113  -0.303664  -0.054293  3.632943  -0.068
N  N58  1  0.10031909  0.04779155  0.23256658  1  -0.275637  0.001511  3.447718  0.002  -0.204843  0.00119  3.676843  0.002  -0.221205  0.000873  3.691207  0.001  -0.372978  -0.193914  0.001412  3.667115  0.002
N  N59  1  0.31942343  0.45215461  0.26742305  1  -0.276566  -0.001527  3.446263  -0.002  -0.205418  -0.001191  3.675414  -0.002  -0.221726  -0.000877  3.689739  -0.001  -0.372854  -0.19451  -0.001416  3.665606  -0.002
N  N60  1  0.89969027  0.95220641  0.76743376  1  -0.275813  0.001526  3.447893  0.002  -0.205045  0.001189  3.677016  0.002  -0.221406  0.000873  3.691376  0.001  -0.373014  -0.194117  0.001412  3.667302  0.002
N  N61  1  0.68058401  0.54784033  0.73258820  1  -0.27657  -0.001533  3.445966  -0.002  -0.205364  -0.001191  3.675101  -0.002  -0.221672  -0.000878  3.689421  -0.001  -0.372854  -0.194454  -0.001415  3.665291  -0.002
O  O62  1  0.16321030  0.70769700  0.88131780  1  -0.60778  1.2e-05  1.961321  0.001  -0.57039  -6.8e-05  2.195893  0.001  -0.595337  -0.000714  2.186819  0.0  -0.315222  -0.553131  0.000545  2.20192  0.002
O  O63  1  0.07366344  0.79244840  0.61867623  1  -0.605863  0.000118  1.960036  -0.001  -0.568942  5.8e-05  2.19478  -0.001  -0.593749  0.000682  2.185447  0.0  -0.314611  -0.551589  -0.000554  2.200477  -0.002
O  O64  1  0.83678553  0.29230793  0.11867383  1  -0.607827  7e-06  1.961565  0.001  -0.570461  -6.9e-05  2.196071  0.001  -0.595407  -0.000715  2.186993  0.0  -0.315226  -0.553201  0.000544  2.202104  0.002
O  O65  1  0.92632321  0.20755460  0.38130958  1  -0.605909  0.000101  1.960064  -0.001  -0.569015  5.8e-05  2.194836  -0.001  -0.593811  0.000681  2.185483  0.0  -0.314668  -0.551664  -0.000556  2.200551  -0.002
O  O66  1  0.58681707  0.83207776  0.99538147  1  -0.590862  0.097683  2.090319  0.128  -0.560328  0.065086  2.379045  0.093  -0.60423  0.05094  2.373185  0.076  -0.32042  -0.52864  0.076211  2.382628  0.105
O  O67  1  0.25916363  0.66807453  0.50486306  1  -0.590658  -0.099812  2.0925  -0.131  -0.559985  -0.066681  2.381058  -0.095  -0.604248  -0.05206  2.375067  -0.078  -0.321293  -0.530133  -0.07623  2.384914  -0.105
O  O68  1  0.41318731  0.16792219  0.00461760  1  -0.590936  0.097703  2.090245  0.128  -0.560381  0.065095  2.378892  0.093  -0.604287  0.050944  2.373033  0.076  -0.320408  -0.528682  0.076223  2.382465  0.105
O  O69  1  0.74083377  0.33192540  0.49513939  1  -0.590617  -0.099792  2.092254  -0.131  -0.559997  -0.066668  2.380817  -0.095  -0.60426  -0.052048  2.374831  -0.078  -0.321262  -0.530145  -0.076217  2.384677  -0.105
