# generated using pymatgen
data_Cd3H46C54(N5O6)2
_symmetry_space_group_name_H-M   'P 1'
_cell_length_a   8.21178364
_cell_length_b   10.92704670
_cell_length_c   15.31187901
_cell_angle_alpha   71.34202994
_cell_angle_beta   74.48094489
_cell_angle_gamma   70.45005616
_symmetry_Int_Tables_number   1
_chemical_formula_structural   Cd3H46C54(N5O6)2
_chemical_formula_sum   'Cd3 H46 C54 N10 O12'
_cell_volume   1206.70613070
_cell_formula_units_Z   1
loop_
 _symmetry_equiv_pos_site_id
 _symmetry_equiv_pos_as_xyz
  1  'x, y, z'
loop_
 _atom_site_type_symbol
 _atom_site_label
 _atom_site_symmetry_multiplicity
 _atom_site_fract_x
 _atom_site_fract_y
 _atom_site_fract_z
 _atom_site_occupancy
 _atom_site_hle17_bader_spin_density
 _atom_site_hle17_ddec_charge
 _atom_site_hle17_ddec_spin_density
 _atom_site_hle17_ddec_sum_bond_order
 _atom_site_hle17_magmom
 _atom_site_hse06_10hf_bader_spin_density
 _atom_site_hse06_10hf_ddec_charge
 _atom_site_hse06_10hf_ddec_spin_density
 _atom_site_hse06_10hf_ddec_sum_bond_order
 _atom_site_hse06_10hf_magmom
 _atom_site_hse06_bader_spin_density
 _atom_site_hse06_ddec_charge
 _atom_site_hse06_ddec_spin_density
 _atom_site_hse06_ddec_sum_bond_order
 _atom_site_hse06_magmom
 _atom_site_pbe_bader_spin_density
 _atom_site_pbe_cm5_charge
 _atom_site_pbe_ddec_charge
 _atom_site_pbe_ddec_spin_density
 _atom_site_pbe_ddec_sum_bond_order
 _atom_site_pbe_magmom
Cd  Cd0  1  0.09043306  0.92752619  0.77765075  1  0  1.098611  0  1.693727  0  0  0.902337  0  2.13584  0  0  0.964098  0  2.082784  0  0  0.764525  0.85859  0  2.171867  0
Cd  Cd1  1  0.90957203  0.07247367  0.22234947  1  0  1.098607  0  1.693747  0  0  0.902332  0  2.135864  0  0  0.964093  0  2.082808  0  0  0.764543  0.858584  0  2.171889  0
Cd  Cd2  1  0.00000266  0.99999949  0.00000116  1  0  1.32758  0  1.645059  0  0  1.155869  0  2.110409  0  0  1.21324  0  2.046474  0  0  0.804579  1.114504  0  2.154708  0
H  H3  1  0.04046539  0.73668873  0.36217680  1  0  0.325669  0  0.924132  0  0  0.303783  0  0.991841  0  0  0.313252  0  0.983256  0  0  0.310328  0.297056  0  0.997937  0
H  H4  1  0.95953464  0.26331117  0.63782151  1  0  0.325665  0  0.924186  0  0  0.30378  0  0.99189  0  0  0.313254  0  0.983306  0  0  0.310313  0.297049  0  0.997988  0
H  H5  1  0.39010908  0.94574624  0.59145500  1  0  0.084114  0  0.952717  0  0  0.093515  0  1.01686  0  0  0.095972  0  1.014574  0  0  0.116401  0.091589  0  1.018799  0
H  H6  1  0.60989545  0.05425163  0.40854313  1  0  0.084122  0  0.952711  0  0  0.093522  0  1.016857  0  0  0.095981  0  1.014569  0  0  0.116404  0.091593  0  1.018796  0
H  H7  1  0.46555339  0.90332907  0.42918426  1  0  0.121501  0  0.960545  0  0  0.12887  0  1.023079  0  0  0.133102  0  1.0207  0  0  0.108602  0.125785  0  1.024971  0
H  H8  1  0.53444722  0.09667284  0.57081286  1  0  0.121459  0  0.960505  0  0  0.128848  0  1.023037  0  0  0.133088  0  1.020638  0  0  0.1086  0.125761  0  1.024933  0
H  H9  1  0.25943878  0.82052472  0.38392695  1  0  0.10851  0  0.947493  0  0  0.120314  0  1.005779  0  0  0.123556  0  1.003292  0  0  0.110741  0.117817  0  1.007915  0
H  H10  1  0.74055918  0.17948121  0.61606964  1  0  0.108572  0  0.947381  0  0  0.120354  0  1.005691  0  0  0.123595  0  1.003207  0  0  0.110744  0.117859  0  1.007818  0
H  H11  1  0.54259562  0.69302866  0.71546935  1  0  0.105348  0  0.932193  0  0  0.119193  0  0.9884  0  0  0.121732  0  0.986812  0  0  0.114041  0.117405  0  0.989457  0
H  H12  1  0.45740752  0.30697322  0.28452807  1  0  0.105347  0  0.932197  0  0  0.119189  0  0.988407  0  0  0.121728  0  0.986818  0  0  0.114041  0.117402  0  0.989462  0
H  H13  1  0.49412116  0.75570882  0.86577167  1  0  0.109418  0  0.961149  0  0  0.116947  0  1.023678  0  0  0.120042  0  1.023098  0  0  0.108186  0.114695  0  1.024266  0
H  H14  1  0.50588002  0.24429508  0.13422623  1  0  0.109399  0  0.961197  0  0  0.116917  0  1.023735  0  0  0.120012  0  1.023156  0  0  0.108174  0.114665  0  1.024322  0
H  H15  1  0.71464775  0.85284773  0.88843103  1  0  0.079755  0  0.952747  0  0  0.088235  0  1.02006  0  0  0.090557  0  1.01789  0  0  0.117695  0.086487  0  1.021782  0
H  H16  1  0.28535182  0.14715719  0.11156556  1  0  0.079743  0  0.95278  0  0  0.088262  0  1.020056  0  0  0.090558  0  1.017914  0  0  0.117675  0.086499  0  1.021815  0
H  H17  1  0.05079218  0.57072053  0.30040485  1  0  0.074745  0  0.928706  0  0  0.085188  0  0.990389  0  0  0.087939  0  0.988208  0  0  0.113233  0.08313  0  0.992234  0
H  H18  1  0.94920775  0.42927236  0.69959638  1  0  0.07472  0  0.928677  0  0  0.085169  0  0.990357  0  0  0.087919  0  0.988178  0  0  0.113231  0.083109  0  0.992201  0
H  H19  1  0.52956584  0.59851178  0.46327640  1  0  0.093284  0  0.974419  0  0  0.104078  0  1.038292  0  0  0.106356  0  1.037467  0  0  0.104987  0.102396  0  1.038848  0
H  H20  1  0.47043154  0.40149214  0.53672334  1  0  0.093251  0  0.974416  0  0  0.104061  0  1.038273  0  0  0.106339  0  1.037449  0  0  0.105003  0.102387  0  1.03882  0
H  H21  1  0.48224282  0.47155682  0.36483225  1  0  0.102178  0  0.974547  0  0  0.104522  0  1.047678  0  0  0.10926  0  1.044448  0  0  0.099117  0.101144  0  1.050081  0
H  H22  1  0.51774660  0.52844816  0.63516969  1  0  0.102076  0  0.974539  0  0  0.104475  0  1.04762  0  0  0.10919  0  1.044409  0  0  0.099104  0.101101  0  1.05002  0
H  H23  1  0.72686040  0.40991993  0.23216294  1  0  0.078872  0  0.95304  0  0  0.084769  0  1.022059  0  0  0.088309  0  1.018609  0  0  0.108046  0.08229  0  1.024322  0
H  H24  1  0.27313019  0.59007803  0.76784042  1  0  0.078863  0  0.953096  0  0  0.084749  0  1.022125  0  0  0.088287  0  1.018674  0  0  0.108035  0.082269  0  1.02439  0
H  H25  1  0.61112503  0.33347933  0.77662769  1  0  0.089122  0  0.95777  0  0  0.102537  0  1.022841  0  0  0.104528  0  1.022426  0  0  0.091421  0.101143  0  1.023137  0
H  H26  1  0.38888146  0.66651652  0.22337127  1  0  0.089124  0  0.957774  0  0  0.102531  0  1.022835  0  0  0.104521  0  1.022419  0  0  0.091404  0.101129  0  1.02314  0
H  H27  1  0.71872464  0.32965149  0.86343656  1  0  0.11244  0  0.934514  0  0  0.129423  0  0.992193  0  0  0.131417  0  0.991585  0  0  0.104832  0.128018  0  0.992685  0
H  H28  1  0.28128058  0.67034436  0.13656324  1  0  0.112427  0  0.934509  0  0  0.129389  0  0.992205  0  0  0.131383  0  0.991597  0  0  0.104802  0.127984  0  0.992694  0
H  H29  1  0.55111362  0.19410350  0.98680639  1  0  0.067141  0  0.939281  0  0  0.084561  0  1.003734  0  0  0.085452  0  1.003874  0  0  0.089484  0.083849  0  1.003781  0
H  H30  1  0.44889217  0.80589435  0.01319353  1  0  0.067184  0  0.939266  0  0  0.084557  0  1.003766  0  0  0.085447  0  1.00391  0  0  0.089487  0.083847  0  1.003814  0
H  H31  1  0.40312417  0.33079463  0.92391753  1  0  0.062265  0  0.9666  0  0  0.081987  0  1.028188  0  0  0.082067  0  1.029712  0  0  0.089286  0.081831  0  1.027261  0
H  H32  1  0.59688163  0.66920323  0.07608173  1  0  0.062247  0  0.966664  0  0  0.08197  0  1.028243  0  0  0.082051  0  1.029763  0  0  0.089266  0.081814  0  1.027318  0
H  H33  1  0.51397234  0.03591284  0.92114140  1  0  0.061703  0  0.968714  0  0  0.078308  0  1.036024  0  0  0.078647  0  1.037019  0  0  0.085938  0.078033  0  1.035382  0
H  H34  1  0.48602677  0.96408606  0.07885989  1  0  0.061705  0  0.96868  0  0  0.078311  0  1.036009  0  0  0.07865  0  1.037001  0  0  0.085926  0.078037  0  1.035365  0
H  H35  1  0.30231828  0.13440032  0.95645829  1  0  0.070807  0  0.949176  0  0  0.086245  0  1.017891  0  0  0.087706  0  1.016766  0  0  0.088203  0.085089  0  1.018879  0
H  H36  1  0.69768174  0.86559958  0.04354263  1  0  0.07083  0  0.949293  0  0  0.086275  0  1.017989  0  0  0.087742  0  1.016859  0  0  0.088225  0.085117  0  1.018978  0
H  H37  1  0.50436074  0.17423504  0.75305619  1  0  0.091294  0  0.943649  0  0  0.108294  0  1.002237  0  0  0.109683  0  1.002496  0  0  0.093509  0.107304  0  1.002133  0
H  H38  1  0.49564413  0.82576182  0.24694343  1  0  0.091333  0  0.943622  0  0  0.108294  0  1.002227  0  0  0.109685  0  1.002488  0  0  0.093489  0.107306  0  1.002125  0
H  H39  1  0.29350583  0.27089649  0.79131368  1  0  0.101856  0  0.961785  0  0  0.119146  0  1.018208  0  0  0.119702  0  1.021002  0  0  0.100211  0.11875  0  1.016329  0
H  H40  1  0.70649398  0.72910041  0.20868665  1  0  0.101886  0  0.96178  0  0  0.119144  0  1.018207  0  0  0.119699  0  1.021001  0  0  0.1002  0.118754  0  1.016324  0
H  H41  1  0.16427024  0.53457289  0.09264633  1  0  0.096618  0  0.949227  0  0  0.106453  0  1.018466  0  0  0.109058  0  1.017136  0  0  0.091285  0.104584  0  1.019445  0
H  H42  1  0.83572587  0.46543104  0.90735490  1  0  0.096525  0  0.949207  0  0  0.106395  0  1.018445  0  0  0.109001  0  1.017115  0  0  0.091257  0.104527  0  1.019425  0
H  H43  1  0.34063577  0.50455263  0.99727347  1  0  0.08755  0  0.937785  0  0  0.104173  0  0.997076  0  0  0.105884  0  0.996714  0  0  0.092627  0.102882  0  0.997506  0
H  H44  1  0.65936160  0.49545129  0.00272823  1  0  0.087555  0  0.937762  0  0  0.104177  0  0.997075  0  0  0.105888  0  0.996713  0  0  0.092653  0.102887  0  0.997507  0
H  H45  1  0.13799175  0.47959862  0.91257909  1  0  0.069429  0  0.957392  0  0  0.08465  0  1.024701  0  0  0.085685  0  1.024752  0  0  0.089087  0.083825  0  1.024737  0
H  H46  1  0.86200851  0.52040428  0.08742112  1  0  0.069391  0  0.957431  0  0  0.084636  0  1.024724  0  0  0.085674  0  1.024768  0  0  0.089088  0.083811  0  1.02476  0
H  H47  1  0.13832843  0.36552198  0.02442012  1  0  0.05843  0  0.954194  0  0  0.077787  0  1.0164  0  0  0.077735  0  1.017981  0  0  0.086604  0.077681  0  1.015366  0
H  H48  1  0.86167160  0.63447792  0.97558146  1  0  0.058441  0  0.954202  0  0  0.077767  0  1.016447  0  0  0.077715  0  1.01803  0  0  0.086594  0.077661  0  1.01541  0
C  C49  1  0.30613695  0.90877441  0.56758954  1  0  0.139117  0  3.690116  0  0  0.102894  0  3.95105  0  0  0.111768  0  3.967521  0  0  0.050671  0.097007  0  3.939821  0
C  C50  1  0.69386596  0.09122447  0.43240859  1  0  0.139171  0  3.690066  0  0  0.102942  0  3.950994  0  0  0.111816  0  3.967464  0  0  0.050657  0.097057  0  3.939762  0
C  C51  1  0.34687992  0.88569683  0.47809794  1  0  -0.109363  0  3.711972  0  0  -0.124659  0  3.974209  0  0  -0.130562  0  3.992893  0  0  -0.080811  -0.120884  0  3.962172  0
C  C52  1  0.65312230  0.11430406  0.52190049  1  0  -0.109282  0  3.711945  0  0  -0.124613  0  3.974174  0  0  -0.130516  0  3.992865  0  0  -0.080771  -0.120838  0  3.962137  0
C  C53  1  0.23414201  0.83810759  0.45316001  1  0  -0.032444  0  3.663417  0  0  -0.059701  0  3.915703  0  0  -0.056595  0  3.931254  0  0  -0.065154  -0.061979  0  3.905641  0
C  C54  1  0.76585699  0.16189533  0.54683711  1  0  -0.032542  0  3.663436  0  0  -0.059742  0  3.915731  0  0  -0.056639  0  3.931284  0  0  -0.065178  -0.062014  0  3.905661  0
C  C55  1  0.08393422  0.81204588  0.51816090  1  0  -0.025452  0  3.791583  0  0  -0.012557  0  4.029213  0  0  -0.015404  0  4.052716  0  0  0.001566  -0.010892  0  4.013471  0
C  C56  1  0.91606512  0.18795603  0.48183640  1  0  -0.025488  0  3.791696  0  0  -0.012699  0  4.029446  0  0  -0.015547  0  4.052949  0  0  0.00152  -0.011033  0  4.013701  0
C  C57  1  0.96463634  0.75503672  0.50310115  1  0  0.113475  0  3.792772  0  0  0.094196  0  4.047602  0  0  0.096682  0  4.07185  0  0  0.094035  0.092281  0  4.031477  0
C  C58  1  0.03536427  0.24496518  0.49689598  1  0  0.113592  0  3.792803  0  0  0.094335  0  4.047609  0  0  0.096825  0  4.071855  0  0  0.094096  0.092414  0  4.031484  0
C  C59  1  0.81963612  0.72561404  0.57010202  1  0  0.087723  0  3.861332  0  0  0.080531  0  4.124288  0  0  0.081316  0  4.149103  0  0  0.083193  0.080077  0  4.108035  0
C  C60  1  0.18036449  0.27438786  0.42989575  1  0  0.087577  0  3.861546  0  0  0.080481  0  4.124357  0  0  0.081266  0  4.14917  0  0  0.083165  0.080027  0  4.108102  0
C  C61  1  0.77952625  0.75784894  0.65834058  1  0  -0.019084  0  3.784043  0  0  -0.009602  0  4.021542  0  0  -0.011819  0  4.04457  0  0  0.004188  -0.008078  0  4.006065  0
C  C62  1  0.22047493  0.24215497  0.34165666  1  0  -0.01906  0  3.784019  0  0  -0.00959  0  4.02148  0  0  -0.011806  0  4.044506  0  0  0.004195  -0.008052  0  4.006011  0
C  C63  1  0.63399692  0.73545381  0.72837211  1  0  -0.031123  0  3.670654  0  0  -0.057444  0  3.919346  0  0  -0.055  0  3.935988  0  0  -0.06036  -0.058974  0  3.907919  0
C  C64  1  0.36600300  0.26455010  0.27162531  1  0  -0.031154  0  3.670779  0  0  -0.057479  0  3.919473  0  0  -0.055039  0  3.936125  0  0  -0.060379  -0.059008  0  3.908043  0
C  C65  1  0.60820240  0.76921499  0.81164821  1  0  -0.098711  0  3.71644  0  0  -0.110924  0  3.971374  0  0  -0.116893  0  3.992045  0  0  -0.07697  -0.10699  0  3.957566  0
C  C66  1  0.39179878  0.23078891  0.18834903  1  0  -0.09862  0  3.716566  0  0  -0.110806  0  3.971484  0  0  -0.116774  0  3.992146  0  0  -0.076927  -0.106869  0  3.957672  0
C  C67  1  0.72962512  0.82420533  0.82416291  1  0  0.144564  0  3.680649  0  0  0.111432  0  3.937136  0  0  0.118707  0  3.954747  0  0  0.055806  0.106514  0  3.925311  0
C  C68  1  0.27037572  0.17579958  0.17583350  1  0  0.144501  0  3.680799  0  0  0.111313  0  3.937306  0  0  0.118607  0  3.954923  0  0  0.055778  0.106393  0  3.925475  0
C  C69  1  0.89599392  0.81494911  0.67659786  1  0  0.131596  0  3.751912  0  0  0.121942  0  3.996507  0  0  0.126223  0  4.018764  0  0  0.117876  0.118915  0  3.981732  0
C  C70  1  0.10400669  0.18505279  0.32339992  1  0  0.131669  0  3.751793  0  0  0.121978  0  3.996415  0  0  0.126259  0  4.01867  0  0  0.117893  0.118906  0  3.981701  0
C  C71  1  0.05037325  0.83966894  0.60716153  1  0  0.129695  0  3.7531  0  0  0.120101  0  3.995588  0  0  0.124305  0  4.019412  0  0  0.117002  0.117687  0  3.979469  0
C  C72  1  0.94962863  0.16033295  0.39283541  1  0  0.12978  0  3.753073  0  0  0.12023  0  3.995565  0  0  0.124438  0  4.019383  0  0  0.117037  0.117827  0  3.979454  0
C  C73  1  0.82846986  0.65584397  0.45185053  1  0  0.351875  0  3.752141  0  0  0.319119  0  4.026211  0  0  0.334231  0  4.040193  0  0  0.222275  0.309389  0  4.016141  0
C  C74  1  0.17153144  0.34415592  0.54814891  1  0  0.351944  0  3.752107  0  0  0.319232  0  4.026159  0  0  0.334344  0  4.040141  0  0  0.222302  0.309496  0  4.016089  0
C  C75  1  0.92159851  0.55279506  0.31570454  1  0  0.091526  0  3.700645  0  0  0.057144  0  3.963795  0  0  0.063043  0  3.979105  0  0  0.047596  0.052984  0  3.953967  0
C  C76  1  0.07839945  0.44719984  0.68429782  1  0  0.091531  0  3.700489  0  0  0.057143  0  3.963679  0  0  0.063042  0  3.978989  0  0  0.047614  0.052983  0  3.953849  0
C  C77  1  0.79380973  0.59292837  0.39067854  1  0  -0.051424  0  3.791139  0  0  -0.031186  0  4.028076  0  0  -0.036249  0  4.049402  0  0  -0.002596  -0.028232  0  4.013616  0
C  C78  1  0.20618846  0.40706954  0.60932245  1  0  -0.051453  0  3.7911  0  0  -0.031249  0  4.02807  0  0  -0.036311  0  4.049397  0  0  -0.002628  -0.028294  0  4.013612  0
C  C79  1  0.63164802  0.56579348  0.40697570  1  0  -0.03969  0  3.704007  0  0  -0.065841  0  3.944547  0  0  -0.063199  0  3.963266  0  0  -0.068056  -0.066555  0  3.931172  0
C  C80  1  0.36834717  0.43420945  0.59302523  1  0  -0.039679  0  3.703937  0  0  -0.065833  0  3.944519  0  0  -0.063185  0  3.963222  0  0  -0.068073  -0.066554  0  3.931141  0
C  C81  1  0.60530522  0.49816907  0.35110977  1  0  -0.137717  0  3.764294  0  0  -0.145306  0  4.015601  0  0  -0.152469  0  4.036919  0  0  -0.092458  -0.14081  0  4.00078  0
C  C82  1  0.39468686  0.50183188  0.64889270  1  0  -0.137586  0  3.764367  0  0  -0.145216  0  4.015671  0  0  -0.152362  0  4.037009  0  0  -0.092442  -0.140723  0  4.000851  0
C  C83  1  0.74112764  0.46262156  0.27844795  1  0  0.104253  0  3.718796  0  0  0.076945  0  3.982993  0  0  0.082328  0  3.999841  0  0  0.036877  0.074102  0  3.970992  0
C  C84  1  0.25886547  0.53737639  0.72155506  1  0  0.104177  0  3.71909  0  0  0.076868  0  3.983308  0  0  0.082254  0  4.00015  0  0  0.036861  0.074023  0  3.971304  0
C  C85  1  0.80182732  0.15034351  0.82087621  1  0  0.725529  0  3.800911  0  0  0.676646  0  4.093581  0  0  0.710968  0  4.086679  0  0  0.212689  0.653273  0  4.097504  0
C  C86  1  0.19817535  0.84965235  0.17912787  1  0  0.725296  0  3.801201  0  0  0.676437  0  4.093828  0  0  0.710758  0  4.08693  0  0  0.212608  0.653068  0  4.097748  0
C  C87  1  0.65695967  0.27099361  0.84213873  1  0  -0.273573  0  3.690357  0  0  -0.310629  0  3.939769  0  0  -0.3167  0  3.947897  0  0  -0.169859  -0.306479  0  3.934131  0
C  C88  1  0.34304394  0.72900326  0.15786107  1  0  -0.273471  0  3.690498  0  0  -0.310491  0  3.939818  0  0  -0.316566  0  3.947953  0  0  -0.16975  -0.306336  0  3.934184  0
C  C89  1  0.50492076  0.23635483  0.91936981  1  0  -0.083685  0  3.671336  0  0  -0.124824  0  3.930882  0  0  -0.124855  0  3.944585  0  0  -0.167424  -0.124597  0  3.921389  0
C  C90  1  0.49508537  0.76364202  0.08063093  1  0  -0.083762  0  3.671437  0  0  -0.124856  0  3.930931  0  0  -0.124887  0  3.944637  0  0  -0.167407  -0.124632  0  3.921444  0
C  C91  1  0.42466071  0.13725234  0.90536196  1  0  -0.092107  0  3.679054  0  0  -0.134732  0  3.938332  0  0  -0.134609  0  3.951144  0  0  -0.174436  -0.13461  0  3.929434  0
C  C92  1  0.57534346  0.86274653  0.09463861  1  0  -0.092095  0  3.67906  0  0  -0.134781  0  3.938355  0  0  -0.134658  0  3.951156  0  0  -0.174466  -0.134658  0  3.929462  0
C  C93  1  0.38598146  0.17042783  0.80710034  1  0  -0.262367  0  3.680782  0  0  -0.294411  0  3.919831  0  0  -0.300976  0  3.930283  0  0  -0.169845  -0.289866  0  3.912546  0
C  C94  1  0.61402272  0.82957103  0.19290153  1  0  -0.26241  0  3.680833  0  0  -0.29435  0  3.919755  0  0  -0.30092  0  3.930212  0  0  -0.169795  -0.289816  0  3.912472  0
C  C95  1  0.30364036  0.07617956  0.79121538  1  0  0.710936  0  3.832518  0  0  0.664523  0  4.126065  0  0  0.698786  0  4.119896  0  0  0.201152  0.641177  0  4.129318  0
C  C96  1  0.69636911  0.92381124  0.20878953  1  0  0.710657  0  3.832785  0  0  0.664309  0  4.126198  0  0  0.698574  0  4.120029  0  0  0.201091  0.640965  0  4.12945  0
C  C97  1  0.15113879  0.69556835  0.96638456  1  0  0.723086  0  3.826325  0  0  0.678489  0  4.120668  0  0  0.713481  0  4.113289  0  0  0.212168  0.654638  0  4.124815  0
C  C98  1  0.84885674  0.30443359  0.03361654  1  0  0.722935  0  3.826408  0  0  0.678391  0  4.120701  0  0  0.713383  0  4.113323  0  0  0.212144  0.654544  0  4.12485  0
C  C99  1  0.19786203  0.54679263  0.01650811  1  0  -0.267925  0  3.682742  0  0  -0.307387  0  3.936466  0  0  -0.313932  0  3.945062  0  0  -0.169223  -0.302773  0  3.930438  0
C  C100  1  0.80213604  0.45320928  0.98349395  1  0  -0.267779  0  3.682646  0  0  -0.307288  0  3.936402  0  0  -0.313836  0  3.945002  0  0  -0.169207  -0.302684  0  3.930387  0
C  C101  1  0.09949731  0.47264986  0.98810599  1  0  -0.086323  0  3.677378  0  0  -0.12422  0  3.931818  0  0  -0.124546  0  3.945877  0  0  -0.168095  -0.123819  0  3.922053  0
C  C102  1  0.90050364  0.52735103  0.01189523  1  0  -0.086342  0  3.677402  0  0  -0.124252  0  3.931888  0  0  -0.124576  0  3.945948  0  0  -0.168111  -0.123849  0  3.922128  0
N  N103  1  0.16277837  0.88721192  0.62925963  1  0  -0.356701  0  3.273679  0  0  -0.284309  0  3.541967  0  0  -0.304704  0  3.561059  0  0  -0.324083  -0.270479  0  3.528285  0
N  N104  1  0.83722616  0.11278594  0.37073850  1  0  -0.356827  0  3.273767  0  0  -0.284435  0  3.54206  0  0  -0.304829  0  3.561145  0  0  -0.324086  -0.270603  0  3.528375  0
N  N105  1  0.86834970  0.84614177  0.75887442  1  0  -0.341858  0  3.24299  0  0  -0.275641  0  3.507342  0  0  -0.294219  0  3.526366  0  0  -0.320537  -0.262809  0  3.494304  0
N  N106  1  0.13165148  0.15386213  0.24112217  1  0  -0.341893  0  3.243013  0  0  -0.275636  0  3.507351  0  0  -0.294219  0  3.526375  0  0  -0.320533  -0.262786  0  3.494323  0
N  N107  1  0.96807812  0.70964024  0.42881780  1  0  -0.368346  0  3.347246  0  0  -0.308379  0  3.579036  0  0  -0.326498  0  3.591966  0  0  -0.372212  -0.296125  0  3.569852  0
N  N108  1  0.03191904  0.29036069  0.57118134  1  0  -0.368445  0  3.347258  0  0  -0.30852  0  3.57907  0  0  -0.32665  0  3.592  0  0  -0.37225  -0.296252  0  3.56988  0
N  N109  1  0.73647238  0.66303686  0.53766921  1  0  -0.441677  0  2.936575  0  0  -0.414442  0  3.210938  0  0  -0.42941  0  3.225595  0  0  -0.333498  -0.4042  0  3.200811  0
N  N110  1  0.26352731  0.33696405  0.46233023  1  0  -0.441647  0  2.936659  0  0  -0.414446  0  3.210984  0  0  -0.429417  0  3.225646  0  0  -0.333504  -0.404205  0  3.200858  0
N  N111  1  0.89648443  0.49035963  0.26025018  1  0  -0.302135  0  3.083039  0  0  -0.266859  0  3.360566  0  0  -0.277073  0  3.375369  0  0  -0.321065  -0.260057  0  3.350716  0
N  N112  1  0.10351008  0.50963430  0.73975289  1  0  -0.301982  0  3.082956  0  0  -0.266693  0  3.360474  0  0  -0.276908  0  3.375278  0  0  -0.321016  -0.259891  0  3.350623  0
O  O113  1  0.88891013  0.15716952  0.73777194  1  0  -0.654333  0  2.007981  0  0  -0.595492  0  2.253662  0  0  -0.622947  0  2.243043  0  0  -0.321615  -0.576261  0  2.260396  0
O  O114  1  0.11109313  0.84282835  0.26222963  1  0  -0.654278  0  2.008129  0  0  -0.595457  0  2.253791  0  0  -0.622906  0  2.243169  0  0  -0.321626  -0.57623  0  2.260524  0
O  O115  1  0.83438614  0.04195467  0.88590940  1  0  -0.695016  0  2.05544  0  0  -0.617423  0  2.319135  0  0  -0.648703  0  2.306606  0  0  -0.332018  -0.595402  0  2.3269  0
O  O116  1  0.16562126  0.95804216  0.11409248  1  0  -0.6949  0  2.05538  0  0  -0.617302  0  2.319041  0  0  -0.648578  0  2.306504  0  0  -0.332007  -0.595264  0  2.326767  0
O  O117  1  0.21320147  0.01036828  0.86199937  1  0  -0.716027  0  2.091817  0  0  -0.630463  0  2.358224  0  0  -0.664949  0  2.345845  0  0  -0.344556  -0.606057  0  2.365768  0
O  O118  1  0.78682344  0.98961438  0.13801041  1  0  -0.715855  0  2.091989  0  0  -0.630333  0  2.358409  0  0  -0.664821  0  2.346035  0  0  -0.344535  -0.605925  0  2.365947  0
O  O119  1  0.32084802  0.06453009  0.70955234  1  0  -0.644317  0  1.910142  0  0  -0.59278  0  2.145846  0  0  -0.619587  0  2.138459  0  0  -0.332193  -0.573777  0  2.150236  0
O  O120  1  0.67914359  0.93546486  0.29045351  1  0  -0.644212  0  1.910098  0  0  -0.592737  0  2.1458  0  0  -0.619544  0  2.138413  0  0  -0.332173  -0.573735  0  2.150186  0
O  O121  1  0.19582205  0.72508110  0.87728509  1  0  -0.660659  0  1.992667  0  0  -0.590656  0  2.245092  0  0  -0.620695  0  2.232852  0  0  -0.334907  -0.569654  0  2.252778  0
O  O122  1  0.80416439  0.27491790  0.12271667  1  0  -0.66051  0  1.992549  0  0  -0.590527  0  2.244953  0  0  -0.620567  0  2.232717  0  0  -0.334839  -0.569525  0  2.252637  0
O  O123  1  0.06748228  0.77747280  0.01711926  1  0  -0.6758  0  1.995236  0  0  -0.60734  0  2.250395  0  0  -0.637601  0  2.237621  0  0  -0.335782  -0.586309  0  2.258443  0
O  O124  1  0.93251417  0.22253012  0.98288148  1  0  -0.675787  0  1.995272  0  0  -0.60737  0  2.250441  0  0  -0.637632  0  2.237666  0  0  -0.335821  -0.586335  0  2.25848  0
