# generated using pymatgen
data_YP2H7(CO4)2
_symmetry_space_group_name_H-M   'P 1'
_cell_length_a   9.71023352
_cell_length_b   10.81073130
_cell_length_c   8.06615940
_cell_angle_alpha   101.03150798
_cell_angle_beta   89.99799084
_cell_angle_gamma   90.00081367
_symmetry_Int_Tables_number   1
_chemical_formula_structural   YP2H7(CO4)2
_chemical_formula_sum   'Y4 P8 H28 C8 O32'
_cell_volume   831.09684272
_cell_formula_units_Z   4
loop_
 _symmetry_equiv_pos_site_id
 _symmetry_equiv_pos_as_xyz
  1  'x, y, z'
loop_
 _atom_site_type_symbol
 _atom_site_label
 _atom_site_symmetry_multiplicity
 _atom_site_fract_x
 _atom_site_fract_y
 _atom_site_fract_z
 _atom_site_occupancy
 _atom_site_pbe_bader_spin_density
 _atom_site_pbe_cm5_charge
 _atom_site_pbe_ddec_charge
 _atom_site_pbe_ddec_spin_density
 _atom_site_pbe_ddec_sum_bond_order
 _atom_site_pbe_magmom
Y  Y0  1  0.18321435  0.07142927  0.56113724  1  0  1.356175  1.856234  0  2.362973  0
Y  Y1  1  0.68321697  0.42859158  0.43887844  1  0  1.356203  1.856388  0  2.363105  0
Y  Y2  1  0.81678993  0.92859042  0.43887313  1  0  1.356068  1.856068  0  2.363091  0
Y  Y3  1  0.31678629  0.57141604  0.56112422  1  0  1.356198  1.856261  0  2.363246  0
P  P4  1  0.29028023  0.86940992  0.80977154  1  0  0.364552  1.269131  0  5.360439  0
P  P5  1  0.79027666  0.63058862  0.19022797  1  0  0.364556  1.269152  0  5.360651  0
P  P6  1  0.70971581  0.13058991  0.19023475  1  0  0.364646  1.269299  0  5.36032  0
P  P7  1  0.20971836  0.36941064  0.80976944  1  0  0.364513  1.269038  0  5.360578  0
P  P8  1  0.03852062  0.78692430  0.58873646  1  0  0.322398  1.268694  0  5.400907  0
P  P9  1  0.53852418  0.71307200  0.41127161  1  0  0.322245  1.268426  0  5.401812  0
P  P10  1  0.96148161  0.21306303  0.41127190  1  0  0.322444  1.268565  0  5.401388  0
P  P11  1  0.46146569  0.28691712  0.58871748  1  0  0.32235  1.2687  0  5.401802  0
H  H12  1  0.08098942  0.82670191  0.05851197  1  0  0.104677  0.152668  0  0.991559  0
H  H13  1  0.58099258  0.67330750  0.94149181  1  0  0.104691  0.152711  0  0.99154  0
H  H14  1  0.91902722  0.17330561  0.94149314  1  0  0.10472  0.152679  0  0.991639  0
H  H15  1  0.41902098  0.32670786  0.05850844  1  0  0.104705  0.152685  0  0.991603  0
H  H16  1  0.07313398  0.68915271  0.89917301  1  0  0.109708  0.157259  0  0.993764  0
H  H17  1  0.57313058  0.81085343  0.10084775  1  0  0.109649  0.157194  0  0.993943  0
H  H18  1  0.92687031  0.31084868  0.10084125  1  0  0.109643  0.157161  0  0.99383  0
H  H19  1  0.42689121  0.18914865  0.89915059  1  0  0.109648  0.157171  0  0.993813  0
H  H20  1  0.93084444  0.79341124  0.92983024  1  0  0.100074  0.139125  0  1.008815  0
H  H21  1  0.43083546  0.70660292  0.07019832  1  0  0.10006  0.139149  0  1.008849  0
H  H22  1  0.06916706  0.20657707  0.07019956  1  0  0.100045  0.139086  0  1.008901  0
H  H23  1  0.56916574  0.29340663  0.92980374  1  0  0.100037  0.139133  0  1.008842  0
H  H24  1  0.40835986  0.98684469  0.34205875  1  0  0.331132  0.420219  0  0.860241  0
H  H25  1  0.90836746  0.51316012  0.65794631  1  0  0.331066  0.420102  0  0.860306  0
H  H26  1  0.59163001  0.01316027  0.65793931  1  0  0.331092  0.420198  0  0.860243  0
H  H27  1  0.09161829  0.48683699  0.34205660  1  0  0.331029  0.42009  0  0.860305  0
H  H28  1  0.31474491  0.92645617  0.10311610  1  0  0.314127  0.400172  0  0.925677  0
H  H29  1  0.81474902  0.57355510  0.89687681  1  0  0.314123  0.400026  0  0.925848  0
H  H30  1  0.68526864  0.07354497  0.89688193  1  0  0.314132  0.400099  0  0.925777  0
H  H31  1  0.18525733  0.42645206  0.10311452  1  0  0.314131  0.400129  0  0.925753  0
H  H32  1  0.33403935  0.85739511  0.34902660  1  0  0.308634  0.408998  0  0.921081  0
H  H33  1  0.83403965  0.64260037  0.65096936  1  0  0.30859  0.408966  0  0.921128  0
H  H34  1  0.66596185  0.14259694  0.65096098  1  0  0.308619  0.40893  0  0.921172  0
H  H35  1  0.16596155  0.35740201  0.34904398  1  0  0.30862  0.409029  0  0.921065  0
H  H36  1  0.09208654  0.03866691  0.92195882  1  0  0.327876  0.358787  0  0.914411  0
H  H37  1  0.59206389  0.46133801  0.07805945  1  0  0.327942  0.358904  0  0.914392  0
H  H38  1  0.90792598  0.96132472  0.07803855  1  0  0.327905  0.358862  0  0.91432  0
H  H39  1  0.40792083  0.53868217  0.92193991  1  0  0.32793  0.358846  0  0.914373  0
C  C40  1  0.10250247  0.85933003  0.80023705  1  0  0.046483  -0.189881  0  3.988483  0
C  C41  1  0.60251042  0.64066300  0.19976566  1  0  0.046438  -0.189907  0  3.987932  0
C  C42  1  0.89749564  0.14065165  0.19976944  1  0  0.046436  -0.190031  0  3.988109  0
C  C43  1  0.39749799  0.35933924  0.80022901  1  0  0.046523  -0.18989  0  3.98806  0
C  C44  1  0.04376193  0.78905248  0.93046698  1  0  -0.241145  -0.416364  0  3.962109  0
C  C45  1  0.54375327  0.71096183  0.06953169  1  0  -0.241018  -0.416252  0  3.961279  0
C  C46  1  0.95624957  0.21095420  0.06953536  1  0  -0.241089  -0.41615  0  3.961493  0
C  C47  1  0.45624792  0.28904998  0.93046242  1  0  -0.241099  -0.416254  0  3.961619  0
O  O48  1  0.05503285  0.98947322  0.81677624  1  0  -0.366951  -0.485461  0  2.376576  0
O  O49  1  0.55504411  0.51053101  0.18325538  1  0  -0.36709  -0.485734  0  2.377066  0
O  O50  1  0.94497658  0.01052405  0.18322299  1  0  -0.367022  -0.485551  0  2.37678  0
O  O51  1  0.44496120  0.48947785  0.81676259  1  0  -0.367083  -0.485553  0  2.37672  0
O  O52  1  0.32382890  0.95151339  0.98985432  1  0  -0.378699  -0.639332  0  2.249703  0
O  O53  1  0.82380054  0.54847786  0.01013243  1  0  -0.378808  -0.639266  0  2.249627  0
O  O54  1  0.67621246  0.04848195  0.01014551  1  0  -0.378788  -0.639328  0  2.249718  0
O  O55  1  0.17619448  0.45151999  0.98985334  1  0  -0.378838  -0.639353  0  2.249705  0
O  O56  1  0.88020508  0.77959682  0.60503526  1  0  -0.406031  -0.774955  0  2.182585  0
O  O57  1  0.38020537  0.72038850  0.39494963  1  0  -0.406077  -0.774959  0  2.18268  0
O  O58  1  0.11979612  0.22041356  0.39499190  1  0  -0.406073  -0.774889  0  2.182786  0
O  O59  1  0.61978141  0.27962619  0.60504419  1  0  -0.4061  -0.77509  0  2.182916  0
O  O60  1  0.31997966  0.94269846  0.31680328  1  0  -0.558439  -0.749213  0  2.016456  0
O  O61  1  0.81997437  0.55728788  0.68317969  1  0  -0.558358  -0.749049  0  2.016553  0
O  O62  1  0.68001639  0.05729629  0.68321002  1  0  -0.55832  -0.749019  0  2.016412  0
O  O63  1  0.18000005  0.44269740  0.31676591  1  0  -0.558249  -0.749048  0  2.016366  0
O  O64  1  0.06409087  0.88546243  0.47501257  1  0  -0.458896  -0.832993  0  2.280042  0
O  O65  1  0.56410924  0.61453388  0.52499826  1  0  -0.458913  -0.832971  0  2.280137  0
O  O66  1  0.93590930  0.11453786  0.52500505  1  0  -0.458963  -0.833034  0  2.280369  0
O  O67  1  0.43589402  0.38545523  0.47501317  1  0  -0.458869  -0.83292  0  2.280192  0
O  O68  1  0.34622457  0.73579081  0.78145315  1  0  -0.422637  -0.777452  0  2.254829  0
O  O69  1  0.84622253  0.76422144  0.21850881  1  0  -0.422751  -0.777466  0  2.254383  0
O  O70  1  0.65375809  0.26419684  0.21854787  1  0  -0.422549  -0.777412  0  2.2548  0
O  O71  1  0.15377249  0.23579948  0.78147342  1  0  -0.422615  -0.777363  0  2.254924  0
O  O72  1  0.11001836  0.66146397  0.53399880  1  0  -0.425502  -0.77312  0  2.280245  0
O  O73  1  0.60997975  0.83851400  0.46599083  1  0  -0.42532  -0.772943  0  2.281076  0
O  O74  1  0.88998798  0.33852890  0.46601388  1  0  -0.425555  -0.773115  0  2.280173  0
O  O75  1  0.39000291  0.16146676  0.53399301  1  0  -0.425461  -0.773128  0  2.280853  0
O  O76  1  0.33202990  0.95321773  0.68679775  1  0  -0.427463  -0.792496  0  2.251192  0
O  O77  1  0.83200903  0.54679689  0.31319354  1  0  -0.427249  -0.792472  0  2.251991  0
O  O78  1  0.66795997  0.04677075  0.31320603  1  0  -0.427453  -0.792518  0  2.251036  0
O  O79  1  0.16796231  0.45320881  0.68678738  1  0  -0.427363  -0.792401  0  2.251147  0
