# generated using pymatgen
data_SmH7C8NO8
_symmetry_space_group_name_H-M   'P 1'
_cell_length_a   5.93034948
_cell_length_b   10.47140690
_cell_length_c   11.60394570
_cell_angle_alpha   112.62753107
_cell_angle_beta   103.61872379
_cell_angle_gamma   106.73032714
_symmetry_Int_Tables_number   1
_chemical_formula_structural   SmH7C8NO8
_chemical_formula_sum   'Sm2 H14 C16 N2 O16'
_cell_volume   586.08352659
_cell_formula_units_Z   2
loop_
 _symmetry_equiv_pos_site_id
 _symmetry_equiv_pos_as_xyz
  1  'x, y, z'
loop_
 _atom_site_type_symbol
 _atom_site_label
 _atom_site_symmetry_multiplicity
 _atom_site_fract_x
 _atom_site_fract_y
 _atom_site_fract_z
 _atom_site_occupancy
 _atom_site_hle17_bader_spin_density
 _atom_site_hle17_ddec_charge
 _atom_site_hle17_ddec_spin_density
 _atom_site_hle17_ddec_sum_bond_order
 _atom_site_hle17_magmom
 _atom_site_hse06_10hf_bader_spin_density
 _atom_site_hse06_10hf_ddec_charge
 _atom_site_hse06_10hf_ddec_spin_density
 _atom_site_hse06_10hf_ddec_sum_bond_order
 _atom_site_hse06_10hf_magmom
 _atom_site_hse06_bader_spin_density
 _atom_site_hse06_ddec_charge
 _atom_site_hse06_ddec_spin_density
 _atom_site_hse06_ddec_sum_bond_order
 _atom_site_hse06_magmom
 _atom_site_pbe_bader_spin_density
 _atom_site_pbe_cm5_charge
 _atom_site_pbe_ddec_charge
 _atom_site_pbe_ddec_spin_density
 _atom_site_pbe_ddec_sum_bond_order
 _atom_site_pbe_magmom
Sm  Sm0  1  0.14270915  0.67983631  0.45563941  1  0  2.27457  0  1.612372  0  0  2.114344  0  2.08227  0  0  2.226797  0  1.913039  0  0  1.496411  2.081289  0  2.113495  0
Sm  Sm1  1  0.85730256  0.32018232  0.54436124  1  0  2.27463  0  1.612219  0  0  2.114338  0  2.08226  0  0  2.226885  0  1.91286  0  0  1.496494  2.081507  0  2.113126  0
H  H2  1  0.35036578  0.83298149  0.92503540  1  0  0.116542  0  0.92841  0  0  0.128258  0  0.98221  0  0  0.131765  0  0.981528  0  0  0.116769  0.125877  0  0.982564  0
H  H3  1  0.64965665  0.16702348  0.07496836  1  0  0.116561  0  0.928304  0  0  0.128307  0  0.98206  0  0  0.131814  0  0.981374  0  0  0.116751  0.125898  0  0.982453  0
H  H4  1  0.89961658  0.58229126  0.01886562  1  0  0.097509  0  0.942175  0  0  0.102008  0  1.012984  0  0  0.106073  0  1.008343  0  0  0.122184  0.099116  0  1.016063  0
H  H5  1  0.10039830  0.41770960  0.98114295  1  0  0.097414  0  0.942204  0  0  0.101942  0  1.013007  0  0  0.106008  0  1.008361  0  0  0.122144  0.09905  0  1.016088  0
H  H6  1  0.52980523  0.85378903  0.15372870  1  0  0.093265  0  0.915643  0  0  0.102848  0  0.97292  0  0  0.106094  0  0.969755  0  0  0.125937  0.100451  0  0.975175  0
H  H7  1  0.47018168  0.14620071  0.84627076  1  0  0.093246  0  0.915677  0  0  0.102813  0  0.972963  0  0  0.106054  0  0.969804  0  0  0.125924  0.100417  0  0.97522  0
H  H8  1  0.79144919  0.71308885  0.23570011  1  0  0.398438  0  0.921812  0  0  0.355404  0  1.004406  0  0  0.367523  0  0.987451  0  0  0.28449  0.347071  0  1.016135  0
H  H9  1  0.20854136  0.28689650  0.76428461  1  0  0.398426  0  0.921849  0  0  0.355394  0  1.004442  0  0  0.367513  0  0.987487  0  0  0.284463  0.347065  0  1.016166  0
H  H10  1  0.71078103  0.75630332  0.36447798  1  0  0.439404  0  0.860228  0  0  0.410564  0  0.919673  0  0  0.42215  0  0.90293  0  0  0.298291  0.402492  0  0.931448  0
H  H11  1  0.28921435  0.24369787  0.63551295  1  0  0.439368  0  0.860273  0  0  0.410529  0  0.919724  0  0  0.422115  0  0.90298  0  0  0.298228  0.402462  0  0.931492  0
H  H12  1  0.83900330  0.81107346  0.62080109  1  0  0.456359  0  0.80479  0  0  0.4351  0  0.857562  0  0  0.44413  0  0.8445  0  0  0.327709  0.42892  0  0.866655  0
H  H13  1  0.16102332  0.18894489  0.37923225  1  0  0.456319  0  0.804986  0  0  0.435049  0  0.857646  0  0  0.444076  0  0.844591  0  0  0.327742  0.428875  0  0.866729  0
H  H14  1  0.82136138  0.65784813  0.61730151  1  0  0.439124  0  0.864623  0  0  0.406768  0  0.931052  0  0  0.417051  0  0.916421  0  0  0.305623  0.3995  0  0.941596  0
H  H15  1  0.17865550  0.34215347  0.38270233  1  0  0.439238  0  0.864512  0  0  0.406872  0  0.930948  0  0  0.417154  0  0.91632  0  0  0.305691  0.399605  0  0.941491  0
C  C16  1  0.47364171  0.77686426  0.94253273  1  0  -0.134918  0  3.701624  0  0  -0.156839  0  3.955939  0  0  -0.164348  0  3.975384  0  0  -0.072105  -0.151951  0  3.942227  0
C  C17  1  0.52635832  0.22312699  0.05746867  1  0  -0.134995  0  3.701439  0  0  -0.156904  0  3.955719  0  0  -0.164407  0  3.975156  0  0  -0.072103  -0.151994  0  3.942008  0
C  C18  1  0.53286790  0.69114675  0.83737732  1  0  0.022187  0  3.654613  0  0  0.02851  0  3.888698  0  0  0.031639  0  3.904121  0  0  0.028527  0.026969  0  3.877668  0
C  C19  1  0.46712916  0.30884240  0.16262570  1  0  0.022241  0  3.654591  0  0  0.028524  0  3.888845  0  0  0.031654  0  3.904266  0  0  0.028495  0.026987  0  3.87781  0
C  C20  1  0.69102067  0.61989564  0.86381763  1  0  -0.116745  0  3.70694  0  0  -0.099214  0  3.941905  0  0  -0.11024  0  3.962545  0  0  -0.001384  -0.092273  0  3.927567  0
C  C21  1  0.30896874  0.38009230  0.13618589  1  0  -0.116861  0  3.706699  0  0  -0.099251  0  3.941662  0  0  -0.110278  0  3.962299  0  0  -0.001332  -0.09232  0  3.927338  0
C  C22  1  0.77929984  0.63740291  0.99432543  1  0  0.133149  0  3.664941  0  0  0.089863  0  3.91977  0  0  0.098315  0  3.934732  0  0  0.064389  0.084782  0  3.909014  0
C  C23  1  0.22069778  0.36258723  0.00567622  1  0  0.133243  0  3.664806  0  0  0.089906  0  3.919672  0  0  0.098359  0  3.934633  0  0  0.064376  0.084824  0  3.908921  0
C  C24  1  0.41574665  0.67887289  0.70170862  1  0  0.707983  0  3.87629  0  0  0.658532  0  4.172904  0  0  0.693531  0  4.166444  0  0  0.22494  0.634353  0  4.181576  0
C  C25  1  0.58426763  0.32113295  0.29829449  1  0  0.708015  0  3.876038  0  0  0.658368  0  4.172999  0  0  0.693359  0  4.166563  0  0  0.224894  0.634185  0  4.181685  0
C  C26  1  0.76190978  0.52397084  0.75795244  1  0  0.650602  0  3.926056  0  0  0.600501  0  4.220896  0  0  0.633938  0  4.219698  0  0  0.202694  0.577419  0  4.225354  0
C  C27  1  0.23807778  0.47601697  0.24204997  1  0  0.650824  0  3.925712  0  0  0.600665  0  4.220608  0  0  0.634103  0  4.219399  0  0  0.202836  0.577587  0  4.225049  0
C  C28  1  0.42791352  0.03715395  0.53986431  1  0  0.557061  0  3.933132  0  0  0.515069  0  4.224835  0  0  0.544309  0  4.222447  0  0  0.224188  0.494938  0  4.230662  0
C  C29  1  0.57207253  0.96287165  0.46012176  1  0  0.557106  0  3.933  0  0  0.5151  0  4.224732  0  0  0.544347  0  4.222339  0  0  0.22413  0.494966  0  4.23056  0
C  C30  1  0.57116896  0.78779566  0.06897840  1  0  0.145236  0  3.690781  0  0  0.110581  0  3.950592  0  0  0.119211  0  3.964778  0  0  0.061444  0.105208  0  3.940545  0
C  C31  1  0.42881483  0.21218930  0.93101667  1  0  0.14535  0  3.690794  0  0  0.110723  0  3.950594  0  0  0.119357  0  3.964778  0  0  0.061538  0.10535  0  3.940542  0
N  N32  1  0.72080936  0.71868762  0.09424205  1  0  -0.293987  0  3.172921  0  0  -0.229101  0  3.419789  0  0  -0.243093  0  3.432909  0  0  -0.29772  -0.219792  0  3.410303  0
N  N33  1  0.27918545  0.28130056  0.90576301  1  0  -0.294089  0  3.173011  0  0  -0.229222  0  3.419937  0  0  -0.243218  0  3.433058  0  0  -0.297799  -0.219911  0  3.410449  0
O  O34  1  0.51771399  0.78503638  0.67840261  1  0  -0.679685  0  1.936223  0  0  -0.635355  0  2.163464  0  0  -0.665246  0  2.150884  0  0  -0.351127  -0.619002  0  2.17067  0
O  O35  1  0.48232877  0.21497553  0.32161417  1  0  -0.679608  0  1.936105  0  0  -0.635202  0  2.163441  0  0  -0.665098  0  2.150863  0  0  -0.351041  -0.618868  0  2.170628  0
O  O36  1  0.19934789  0.56703732  0.61729504  1  0  -0.78872  0  2.131335  0  0  -0.731017  0  2.395493  0  0  -0.772197  0  2.383927  0  0  -0.416361  -0.712507  0  2.402356  0
O  O37  1  0.80065952  0.43298557  0.38270556  1  0  -0.788727  0  2.131171  0  0  -0.730934  0  2.395387  0  0  -0.772111  0  2.38384  0  0  -0.416415  -0.712416  0  2.402253  0
O  O38  1  0.68019866  0.50921797  0.63822255  1  0  -0.69886  0  2.022035  0  0  -0.63665  0  2.254856  0  0  -0.667664  0  2.244326  0  0  -0.355732  -0.619557  0  2.261229  0
O  O39  1  0.31978579  0.49077867  0.36178218  1  0  -0.698966  0  2.021947  0  0  -0.636721  0  2.254748  0  0  -0.667719  0  2.244209  0  0  -0.355776  -0.619589  0  2.261078  0
O  O40  1  0.89789608  0.45791940  0.78616031  1  0  -0.663991  0  1.944611  0  0  -0.618287  0  2.181896  0  0  -0.650194  0  2.174793  0  0  -0.356499  -0.60096  0  2.186  0
O  O41  1  0.10207664  0.54205881  0.21383492  1  0  -0.664095  0  1.9445  0  0  -0.618383  0  2.181785  0  0  -0.650283  0  2.174685  0  0  -0.356609  -0.60102  0  2.185847  0
O  O42  1  0.81571673  0.70841262  0.32414145  1  0  -0.952482  0  1.907867  0  0  -0.901072  0  2.127743  0  0  -0.930926  0  2.088106  0  0  -0.681346  -0.886677  0  2.150919  0
O  O43  1  0.18426356  0.29156421  0.67584816  1  0  -0.952417  0  1.907913  0  0  -0.901001  0  2.127782  0  0  -0.930862  0  2.088127  0  0  -0.681256  -0.886644  0  2.150952  0
O  O44  1  0.92745449  0.74452564  0.60911048  1  0  -0.900835  0  1.844631  0  0  -0.852726  0  2.036724  0  0  -0.879068  0  2.001852  0  0  -0.640678  -0.839815  0  2.057033  0
O  O45  1  0.07256798  0.25548491  0.39089498  1  0  -0.900894  0  1.844773  0  0  -0.852747  0  2.036845  0  0  -0.879094  0  2.00196  0  0  -0.640758  -0.839868  0  2.057136  0
O  O46  1  0.26860288  0.95683564  0.56640535  1  0  -0.621195  0  2.031573  0  0  -0.576873  0  2.269767  0  0  -0.605861  0  2.258073  0  0  -0.353126  -0.56191  0  2.275872  0
O  O47  1  0.73138608  0.04318696  0.43356977  1  0  -0.621324  0  2.031586  0  0  -0.576977  0  2.269773  0  0  -0.605981  0  2.258072  0  0  -0.353176  -0.562042  0  2.275875  0
O  O48  1  0.48557376  0.17712188  0.57253723  1  0  -0.680021  0  2.113065  0  0  -0.621223  0  2.34731  0  0  -0.653744  0  2.336674  0  0  -0.357533  -0.604056  0  2.352969  0
O  O49  1  0.51442651  0.82289568  0.42745318  1  0  -0.679995  0  2.112921  0  0  -0.621183  0  2.347158  0  0  -0.653691  0  2.336521  0  0  -0.357427  -0.603987  0  2.352819  0
