# generated using pymatgen
data_HoH14C21(SN3)2
_symmetry_space_group_name_H-M   'P 1'
_cell_length_a   9.97003737
_cell_length_b   10.22937216
_cell_length_c   10.49936246
_cell_angle_alpha   88.45019285
_cell_angle_beta   84.37231929
_cell_angle_gamma   67.27647442
_symmetry_Int_Tables_number   1
_chemical_formula_structural   HoH14C21(SN3)2
_chemical_formula_sum   'Ho2 H28 C42 S4 N12'
_cell_volume   982.85581225
_cell_formula_units_Z   2
loop_
 _symmetry_equiv_pos_site_id
 _symmetry_equiv_pos_as_xyz
  1  'x, y, z'
loop_
 _atom_site_type_symbol
 _atom_site_label
 _atom_site_symmetry_multiplicity
 _atom_site_fract_x
 _atom_site_fract_y
 _atom_site_fract_z
 _atom_site_occupancy
 _atom_site_pbe_bader_charge
 _atom_site_pbe_bader_spin_density
 _atom_site_pbe_cm5_charge
 _atom_site_pbe_ddec_charge
 _atom_site_pbe_ddec_spin_density
 _atom_site_pbe_ddec_sum_bond_order
 _atom_site_pbe_magmom
Ho  Ho0  1  0.81620994  0.44539856  0.03259838  1  1.997353  0  1.395378  1.600019  0  2.563656  0
Ho  Ho1  1  0.18379308  0.55460132  0.96740097  1  1.997347  0  1.395398  1.600024  0  2.563685  0
H  H2  1  0.01717006  0.97008609  0.24593362  1  0.472756  0  0.333247  0.301562  0  0.904778  0
H  H3  1  0.98283094  0.02991379  0.75406592  1  0.472762  0  0.333254  0.301576  0  0.904759  0
H  H4  1  0.19328977  0.04974565  0.95889962  1  0.500199  0  0.29333  0.279433  0  0.980744  0
H  H5  1  0.80671223  0.95025423  0.04110078  1  0.500194  0  0.293314  0.279419  0  0.980763  0
H  H6  1  0.18041560  0.96415566  0.46436987  1  0.091429  0  0.096654  0.106896  0  1.054322  0
H  H7  1  0.81958481  0.03584317  0.53562975  1  0.091453  0  0.096656  0.106877  0  1.05433  0
H  H8  1  0.25552536  0.12808368  0.58601382  1  0.063171  0  0.09336  0.092935  0  1.034453  0
H  H9  1  0.74447547  0.87191408  0.41398674  1  0.063241  0  0.093363  0.09292  0  1.034462  0
H  H10  1  0.18320303  0.37955446  0.52555664  1  0.067463  0  0.093946  0.088281  0  1.045026  0
H  H11  1  0.81679738  0.62044436  0.47444489  1  0.067275  0  0.093981  0.088342  0  1.045026  0
H  H12  1  0.03040413  0.47843813  0.34655970  1  0.081121  0  0.097848  0.116487  0  1.031583  0
H  H13  1  0.96959686  0.52156175  0.65344174  1  0.081103  0  0.097839  0.116481  0  1.031619  0
H  H14  1  0.39171479  0.85801526  0.12594972  1  0.079304  0  0.102125  0.125363  0  1.004044  0
H  H15  1  0.60828822  0.14198462  0.87404963  1  0.079012  0  0.102147  0.125396  0  1.004037  0
H  H16  1  0.56015100  0.85993374  0.28497722  1  0.045372  0  0.09216  0.088467  0  1.044088  0
H  H17  1  0.43985159  0.14006720  0.71502310  1  0.045366  0  0.092186  0.088504  0  1.044082  0
H  H18  1  0.59381181  0.08010073  0.33449305  1  0.049829  0  0.093436  0.090143  0  1.027665  0
H  H19  1  0.40618834  0.91990127  0.66550555  1  0.049849  0  0.09343  0.090149  0  1.027621  0
H  H20  1  0.45644962  0.30783595  0.22922820  1  0.094091  0  0.103799  0.115858  0  1.024024  0
H  H21  1  0.54354995  0.69216499  0.77077240  1  0.093747  0  0.103774  0.115812  0  1.024088  0
H  H22  1  0.87062914  0.32275957  0.66109579  1  0.08341  0  0.095098  0.105494  0  1.038357  0
H  H23  1  0.12937228  0.67723925  0.33890184  1  0.08343  0  0.095103  0.105482  0  1.038329  0
H  H24  1  0.79303183  0.26713064  0.45838198  1  0.076352  0  0.092663  0.090363  0  1.048553  0
H  H25  1  0.20696858  0.73286819  0.54161669  1  0.076375  0  0.092664  0.090359  0  1.048585  0
H  H26  1  0.53651054  0.29990329  0.43934003  1  0.055665  0  0.098533  0.098257  0  1.020415  0
H  H27  1  0.46348844  0.70009659  0.56065969  1  0.05568  0  0.098543  0.098252  0  1.020426  0
H  H28  1  0.34533583  0.39709974  0.62177395  1  0.068422  0  0.102655  0.107202  0  1.025477  0
H  H29  1  0.65466416  0.60290015  0.37822568  1  0.068412  0  0.102654  0.107205  0  1.02546  0
C  C30  1  0.92663601  0.17776796  0.17251932  1  0.819742  0  0.19867  0.35768  0  4.185861  0
C  C31  1  0.07336516  0.82223404  0.82747920  1  0.819967  0  0.198675  0.357703  0  4.185859  0
C  C32  1  0.06053142  0.13286092  0.33991437  1  0.273688  0  0.090484  0.142919  0  4.021044  0
C  C33  1  0.93946798  0.86713790  0.66008534  1  0.273663  0  0.090532  0.142959  0  4.02102  0
C  C34  1  0.14561823  0.07592636  0.44068172  1  0.014913  0  -0.10212  -0.176514  0  4.011285  0
C  C35  1  0.85438218  0.92407246  0.55931885  1  0.014921  0  -0.102137  -0.176484  0  4.011304  0
C  C36  1  0.18800100  0.16802849  0.50703864  1  -0.016594  0  -0.103703  -0.094749  0  4.045336  0
C  C37  1  0.81199941  0.83197034  0.49296193  1  -0.016641  0  -0.103703  -0.094715  0  4.045388  0
C  C38  1  0.14704424  0.31089988  0.47293628  1  -0.109829  0  -0.102017  -0.095903  0  4.055782  0
C  C39  1  0.85295617  0.68909895  0.52706429  1  -0.109661  0  -0.102043  -0.095984  0  4.055842  0
C  C40  1  0.06139587  0.36764701  0.37234594  1  0.005498  0  -0.094156  -0.159747  0  3.96009  0
C  C41  1  0.93860454  0.63235181  0.62765558  1  0.005511  0  -0.094141  -0.159758  0  3.960128  0
C  C42  1  0.01731443  0.27742425  0.30553506  1  0.385878  0  0.089614  0.182889  0  4.050172  0
C  C43  1  0.98268598  0.72257457  0.69446551  1  0.385889  0  0.089586  0.182893  0  4.050148  0
C  C44  1  0.19013130  0.25907360  0.97410618  1  0.884958  0  0.209231  0.353687  0  4.168651  0
C  C45  1  0.80986970  0.74092628  0.02589335  1  0.884977  0  0.209267  0.353739  0  4.168578  0
C  C46  1  0.32948401  0.08332278  0.09012346  1  0.301346  0  0.09461  0.148843  0  3.995973  0
C  C47  1  0.67051800  0.91667710  0.90987504  1  0.301357  0  0.094617  0.148863  0  3.996053  0
C  C48  1  0.40507775  0.95528433  0.14848013  1  0.050063  0  -0.097722  -0.164571  0  3.971788  0
C  C49  1  0.59492527  0.04471555  0.85151827  1  0.050317  0  -0.097686  -0.164556  0  3.971871  0
C  C50  1  0.49981979  0.95767782  0.23677811  1  -0.027349  0  -0.102111  -0.084125  0  4.036254  0
C  C51  1  0.50018280  0.04232312  0.76322029  1  -0.027354  0  -0.102164  -0.084208  0  4.03643  0
C  C52  1  0.51849707  0.08291641  0.26486742  1  -0.053337  0  -0.104929  -0.103664  0  4.056335  0
C  C53  1  0.48149964  0.91708665  0.73513434  1  -0.053297  0  -0.10495  -0.10365  0  4.056316  0
C  C54  1  0.44231851  0.21094016  0.20688489  1  0.003942  0  -0.092321  -0.15523  0  3.966791  0
C  C55  1  0.55768409  0.78906079  0.79311066  1  0.004185  0  -0.092292  -0.155253  0  3.96679  0
C  C56  1  0.34613948  0.21072069  0.11860762  1  0.362449  0  0.093533  0.185882  0  4.020062  0
C  C57  1  0.65386210  0.78928025  0.88138993  1  0.362525  0  0.093537  0.185955  0  4.019997  0
C  C58  1  0.51975940  0.47538537  0.93460858  1  1.015559  0  0.204817  0.260018  0  4.1369  0
C  C59  1  0.48024277  0.52461663  0.06538984  1  0.959673  0  0.204816  0.260133  0  4.136862  0
C  C60  1  0.64993204  0.39149099  0.75684561  1  0.374625  0  0.086893  0.168104  0  4.039253  0
C  C61  1  0.35006996  0.60850889  0.24315288  1  0.3745  0  0.086902  0.168106  0  4.039193  0
C  C62  1  0.75715285  0.33786158  0.65389101  1  -0.049387  0  -0.101219  -0.177527  0  3.988062  0
C  C63  1  0.24284916  0.66213830  0.34610653  1  -0.049378  0  -0.101198  -0.177471  0  3.987988  0
C  C64  1  0.71275308  0.30599606  0.54088749  1  -0.060419  0  -0.104193  -0.096274  0  4.05058  0
C  C65  1  0.28724733  0.69400276  0.45911118  1  -0.06038  0  -0.104165  -0.096251  0  4.050479  0
C  C66  1  0.56661988  0.32503155  0.52977595  1  -0.021603  0  -0.098549  -0.089406  0  4.033696  0
C  C67  1  0.43338112  0.67496833  0.47022264  1  -0.02163  0  -0.098581  -0.089432  0  4.033576  0
C  C68  1  0.45890807  0.37959755  0.63066650  1  -0.044944  0  -0.092137  -0.162588  0  4.000086  0
C  C69  1  0.54109335  0.62040128  0.36933398  1  -0.04477  0  -0.092131  -0.162551  0  3.999966  0
C  C70  1  0.50112216  0.41363102  0.74429748  1  0.360106  0  0.091153  0.172775  0  4.035272  0
C  C71  1  0.49888043  0.58636992  0.25570093  1  0.36001  0  0.091104  0.172726  0  4.035217  0
S  S72  1  0.83816113  0.16381667  0.04566151  1  -0.304536  0  -0.237844  -0.525018  0  2.358305  0
S  S73  1  0.16183802  0.83618533  0.95433910  1  -0.304707  0  -0.237868  -0.525066  0  2.358245  0
S  S74  1  0.07524639  0.35812163  0.86261789  1  -0.436912  0  -0.247515  -0.592233  0  2.382176  0
S  S75  1  0.92475603  0.64187719  0.13738249  1  -0.436949  0  -0.24755  -0.592292  0  2.382149  0
N  N76  1  0.93344661  0.30265350  0.20244150  1  -1.264421  0  -0.488318  -0.55731  0  3.462114  0
N  N77  1  0.06655498  0.69734744  0.79755986  1  -1.264491  0  -0.488309  -0.557307  0  3.462129  0
N  N78  1  0.00098843  0.07384224  0.25417843  1  -1.233469  0  -0.380188  -0.305458  0  3.558576  0
N  N79  1  0.99901198  0.92615659  0.74582119  1  -1.233473  0  -0.380212  -0.305499  0  3.558634  0
N  N80  1  0.25657406  0.31877552  0.04533608  1  -1.23712  0  -0.472076  -0.535691  0  3.471455  0
N  N81  1  0.74342408  0.68122648  0.95466557  1  -1.237073  0  -0.472077  -0.535701  0  3.471387  0
N  N82  1  0.23019711  0.11866675  0.99868658  1  -1.268947  0  -0.375499  -0.284424  0  3.587695  0
N  N83  1  0.76980346  0.88133419  0.00131297  1  -1.26894  0  -0.375514  -0.284457  0  3.587707  0
N  N84  1  0.41989556  0.46840020  0.85900146  1  -1.278745  0  -0.482605  -0.514687  0  3.430343  0
N  N85  1  0.58010745  0.53159969  0.14099789  1  -1.278825  0  -0.482605  -0.514762  0  3.430307  0
N  N86  1  0.65850921  0.43225544  0.87957633  1  -1.243168  0  -0.464008  -0.504453  0  3.439404  0
N  N87  1  0.34149237  0.56774550  0.12042217  1  -1.243095  0  -0.464024  -0.504463  0  3.439395  0
