# generated using pymatgen
data_ZnH4C14I2NO5
_symmetry_space_group_name_H-M   'P 1'
_cell_length_a   12.03295396
_cell_length_b   12.98318120
_cell_length_c   14.58826591
_cell_angle_alpha   86.56541542
_cell_angle_beta   84.46193754
_cell_angle_gamma   90.09879283
_symmetry_Int_Tables_number   1
_chemical_formula_structural   ZnH4C14I2NO5
_chemical_formula_sum   'Zn2 H8 C28 I4 N2 O10'
_cell_volume   2264.28970127
_cell_formula_units_Z   2
loop_
 _symmetry_equiv_pos_site_id
 _symmetry_equiv_pos_as_xyz
  1  'x, y, z'
loop_
 _atom_site_type_symbol
 _atom_site_label
 _atom_site_symmetry_multiplicity
 _atom_site_fract_x
 _atom_site_fract_y
 _atom_site_fract_z
 _atom_site_occupancy
 _atom_site_pbe_bader_charge
 _atom_site_pbe_bader_spin_density
 _atom_site_pbe_cm5_charge
 _atom_site_pbe_ddec_charge
 _atom_site_pbe_ddec_spin_density
 _atom_site_pbe_ddec_sum_bond_order
 _atom_site_pbe_magmom
Zn  Zn0  1  0.62507970  0.51369196  0.48136701  1  1.293824  0  0.677598  0.869067  0  2.337523  0
Zn  Zn1  1  0.37492475  0.48630887  0.51862327  1  1.293374  0  0.677478  0.8688  0  2.337772  0
H  H2  1  0.36553453  0.17512814  0.49653370  1  0.119364  0  0.089646  0.101604  0  1.071588  0
H  H3  1  0.63452676  0.82486619  0.50349034  1  0.119136  0  0.089684  0.10156  0  1.071722  0
H  H4  1  0.72171822  0.18930301  0.49641081  1  0.081271  0  0.10718  0.128286  0  0.996337  0
H  H5  1  0.27833201  0.81070613  0.50357420  1  0.081927  0  0.107227  0.128382  0  0.996217  0
H  H6  1  0.98061486  0.36190131  0.65414875  1  0.114353  0  0.115612  0.14375  0  0.993312  0
H  H7  1  0.01938184  0.63809292  0.34585807  1  0.114561  0  0.115543  0.143611  0  0.993369  0
H  H8  1  0.71479408  0.45206931  0.63123643  1  0.676701  0  0.313218  0.378596  0  0.961543  0
H  H9  1  0.28519009  0.54791166  0.36875323  1  0.676781  0  0.313103  0.378293  0  0.961977  0
C  C10  1  0.46294753  0.69276880  0.50471725  1  1.550826  0  0.220166  0.604566  0  4.140064  0
C  C11  1  0.85037751  0.48258955  0.54686004  1  1.197152  0  0.244852  0.473454  0  3.98622  0
C  C12  1  0.03013265  0.52779554  0.46276203  1  0.003514  0  0.000106  -0.011215  0  3.988307  0
C  C13  1  0.96985091  0.47219841  0.53723739  1  0.081549  0  0.000404  -0.010662  0  3.987769  0
C  C14  1  0.49784614  0.50838068  0.31646640  1  1.678263  0  0.23295  0.673896  0  4.226091  0
C  C15  1  0.50211140  0.49161947  0.68353300  1  1.678204  0  0.232899  0.673538  0  4.226071  0
C  C16  1  0.49345561  0.50817700  0.21819802  1  0.213349  0  -0.008129  -0.138232  0  3.838271  0
C  C17  1  0.50649088  0.49183445  0.78179746  1  0.212902  0  -0.007918  -0.13767  0  3.837954  0
C  C18  1  0.49487760  0.50544750  0.13415621  1  -0.393637  0  -0.010074  0.026307  0  4.25932  0
C  C19  1  0.50500598  0.49453343  0.86585412  1  -0.392604  0  -0.010381  0.025726  0  4.259237  0
C  C20  1  0.49790773  0.50192984  0.04228706  1  0.165173  0  0.000378  -0.001162  0  4.187525  0
C  C21  1  0.53710668  0.30723568  0.49527937  1  1.550279  0  0.220065  0.604191  0  4.140619  0
C  C22  1  0.50200457  0.49810991  0.95771070  1  -0.050967  0  0.000665  -0.000932  0  4.187542  0
C  C23  1  0.54217707  0.19205542  0.49626709  1  -0.035758  0  -0.013632  -0.005221  0  3.958224  0
C  C24  1  0.45787099  0.80794249  0.50374871  1  -0.03554  0  -0.01367  -0.005175  0  3.958241  0
C  C25  1  0.34880971  0.96386232  0.49985606  1  -0.326185  0  -0.041587  0.02734  0  3.868654  0
C  C26  1  0.65123201  0.03613633  0.50014639  1  -0.311265  0  -0.041751  0.027305  0  3.869375  0
C  C27  1  0.35337589  0.85777309  0.50268045  1  0.133134  0  -0.091327  -0.136025  0  3.97202  0
C  C28  1  0.64667294  0.14222949  0.49733304  1  0.133185  0  -0.091323  -0.135921  0  3.971893  0
C  C29  1  0.55516644  0.86499232  0.50286161  1  0.047894  0  -0.087112  -0.134469  0  3.932519  0
C  C30  1  0.44488840  0.13500193  0.49715393  1  0.048522  0  -0.086956  -0.134385  0  3.932735  0
C  C31  1  0.55299517  0.97376053  0.50091179  1  -0.005819  0  -0.00499  0.058751  0  3.957657  0
C  C32  1  0.44706338  0.02623478  0.49908839  1  -0.039853  0  -0.005271  0.058649  0  3.957467  0
C  C33  1  0.02662708  0.40756433  0.59818329  1  0.0425  0  -0.099669  -0.212211  0  3.999119  0
C  C34  1  0.97335735  0.59242966  0.40181470  1  0.042712  0  -0.099362  -0.211781  0  3.999096  0
C  C35  1  0.14124802  0.40372138  0.58421483  1  0.253449  0  0.068095  0.191788  0  3.954471  0
C  C36  1  0.85873380  0.59627795  0.41578172  1  0.252832  0  0.068038  0.191701  0  3.954306  0
C  C37  1  0.14960599  0.51740827  0.45313785  1  1.196466  0  0.244938  0.47383  0  3.986123  0
I  I38  1  0.18967291  0.03215616  0.49622590  1  0.08944  0  0.051695  -0.059167  0  1.403563  0
I  I39  1  0.81036342  0.96783864  0.50376334  1  0.089071  0  0.051714  -0.059163  0  1.403951  0
I  I40  1  0.77788727  0.69937324  0.32812085  1  0.185735  0  0.120675  0.020622  0  1.469822  0
I  I41  1  0.22210360  0.30065169  0.67188500  1  0.18566  0  0.120701  0.020649  0  1.469957  0
N  N42  1  0.79662355  0.53962612  0.48507761  1  -1.225761  0  -0.336007  -0.381434  0  3.437754  0
N  N43  1  0.20336641  0.46037803  0.51492165  1  -1.225165  0  -0.335883  -0.381475  0  3.437701  0
O  O44  1  0.56019002  0.65326558  0.49877159  1  -1.175346  0  -0.321082  -0.565048  0  2.427988  0
O  O45  1  0.20299993  0.56725609  0.38058155  1  -1.170871  0  -0.316799  -0.438688  0  2.288713  0
O  O46  1  0.43984666  0.34673290  0.50129632  1  -1.175265  0  -0.32122  -0.564948  0  2.427409  0
O  O47  1  0.37096095  0.64308483  0.51110294  1  -1.146856  0  -0.312886  -0.530669  0  2.3168  0
O  O48  1  0.62908282  0.35691877  0.48881551  1  -1.145971  0  -0.312616  -0.530321  0  2.317668  0
O  O49  1  0.59394600  0.50550205  0.34487510  1  -1.122978  0  -0.297358  -0.52288  0  2.312904  0
O  O50  1  0.40599992  0.49458256  0.65512892  1  -1.123798  0  -0.297338  -0.522705  0  2.311972  0
O  O51  1  0.40524266  0.51049529  0.36755096  1  -1.164581  0  -0.30171  -0.561919  0  2.355222  0
O  O52  1  0.59469314  0.48939638  0.63243734  1  -1.164004  0  -0.301778  -0.56196  0  2.355512  0
O  O53  1  0.79698787  0.43273802  0.61941486  1  -1.170885  0  -0.316802  -0.438824  0  2.288633  0
