# generated using pymatgen
data_Mo4H20C20N6O13
_symmetry_space_group_name_H-M   'P 1'
_cell_length_a   8.17109281
_cell_length_b   8.97576456
_cell_length_c   9.57107376
_cell_angle_alpha   92.72577375
_cell_angle_beta   102.38995528
_cell_angle_gamma   107.06799924
_symmetry_Int_Tables_number   1
_chemical_formula_structural   Mo4H20C20N6O13
_chemical_formula_sum   'Mo4 H20 C20 N6 O13'
_cell_volume   650.80607631
_cell_formula_units_Z   1
loop_
 _symmetry_equiv_pos_site_id
 _symmetry_equiv_pos_as_xyz
  1  'x, y, z'
loop_
 _atom_site_type_symbol
 _atom_site_label
 _atom_site_symmetry_multiplicity
 _atom_site_fract_x
 _atom_site_fract_y
 _atom_site_fract_z
 _atom_site_occupancy
 _atom_site_hle17_bader_spin_density
 _atom_site_hle17_ddec_charge
 _atom_site_hle17_ddec_spin_density
 _atom_site_hle17_ddec_sum_bond_order
 _atom_site_hle17_magmom
 _atom_site_hse06_10hf_bader_spin_density
 _atom_site_hse06_10hf_ddec_charge
 _atom_site_hse06_10hf_ddec_spin_density
 _atom_site_hse06_10hf_ddec_sum_bond_order
 _atom_site_hse06_10hf_magmom
 _atom_site_hse06_bader_spin_density
 _atom_site_hse06_ddec_charge
 _atom_site_hse06_ddec_spin_density
 _atom_site_hse06_ddec_sum_bond_order
 _atom_site_hse06_magmom
 _atom_site_pbe_bader_spin_density
 _atom_site_pbe_cm5_charge
 _atom_site_pbe_ddec_charge
 _atom_site_pbe_ddec_spin_density
 _atom_site_pbe_ddec_sum_bond_order
 _atom_site_pbe_magmom
Mo  Mo0  1  0.78337914  0.39336979  0.86505055  1  0  2.162704  0  4.120514  0  0  2.162175  0  4.657875  0  0  2.260009  0  4.627717  0  0  1.526042  2.088663  0  4.689456  0
Mo  Mo1  1  0.21662028  0.60663097  0.13494908  1  0  2.162691  0  4.120573  0  0  2.162157  0  4.65793  0  0  2.259989  0  4.627774  0  0  1.526046  2.088644  0  4.689538  0
Mo  Mo2  1  0.36182466  0.34948121  0.87065099  1  0  2.170448  0  4.160325  0  0  2.150719  0  4.747769  0  0  2.255872  0  4.702616  0  0  1.499674  2.078051  0  4.777479  0
Mo  Mo3  1  0.63817519  0.65051720  0.12934862  1  0  2.170481  0  4.160314  0  0  2.150739  0  4.74776  0  0  2.255889  0  4.702609  0  0  1.499663  2.078069  0  4.777469  0
H  H4  1  0.59603818  0.25890313  0.12006907  1  0  0.309602  0  0.903616  0  0  0.285498  0  0.973001  0  0  0.294107  0  0.965952  0  0  0.314003  0.279364  0  0.978184  0
H  H5  1  0.40396250  0.74109764  0.87993183  1  0  0.309589  0  0.903609  0  0  0.285507  0  0.972992  0  0  0.294115  0  0.965946  0  0  0.313996  0.279372  0  0.978172  0
H  H6  1  0.97191617  0.15260255  0.64701082  1  0  0.318026  0  0.920835  0  0  0.30113  0  0.982472  0  0  0.310446  0  0.974289  0  0  0.304703  0.294576  0  0.988232  0
H  H7  1  0.02808409  0.84739703  0.35298891  1  0  0.318039  0  0.920829  0  0  0.301135  0  0.982478  0  0  0.310451  0  0.974295  0  0  0.304703  0.294581  0  0.988241  0
H  H8  1  0.43616416  0.01299218  0.16563245  1  0  0.122452  0  0.950431  0  0  0.13316  0  1.006786  0  0  0.13678  0  1.00279  0  0  0.130587  0.130476  0  1.009909  0
H  H9  1  0.56383651  0.98700859  0.83436845  1  0  0.12246  0  0.950432  0  0  0.13318  0  1.006779  0  0  0.136797  0  1.002783  0  0  0.130589  0.130498  0  1.009898  0
H  H10  1  0.54401606  0.90411819  0.38554395  1  0  0.129343  0  0.974383  0  0  0.137031  0  1.035134  0  0  0.14102  0  1.033878  0  0  0.112911  0.134315  0  1.036053  0
H  H11  1  0.45598545  0.09588139  0.61445496  1  0  0.129333  0  0.974394  0  0  0.137025  0  1.035142  0  0  0.141014  0  1.033885  0  0  0.11291  0.134306  0  1.036055  0
H  H12  1  0.99307152  0.33001969  0.49738419  1  0  0.14072  0  0.935746  0  0  0.151915  0  0.988269  0  0  0.155633  0  0.987108  0  0  0.119446  0.149183  0  0.989532  0
H  H13  1  0.00692999  0.66997989  0.50261577  1  0  0.140712  0  0.935713  0  0  0.151927  0  0.988221  0  0  0.155647  0  0.987057  0  0  0.119436  0.149194  0  0.989488  0
H  H14  1  0.86285021  0.42344222  0.27001161  1  0  0.11254  0  0.944655  0  0  0.117755  0  1.01269  0  0  0.121309  0  1.00896  0  0  0.129277  0.115419  0  1.014853  0
H  H15  1  0.13715172  0.57655854  0.72998847  1  0  0.112549  0  0.944649  0  0  0.117771  0  1.012666  0  0  0.121325  0  1.008937  0  0  0.129285  0.115434  0  1.014827  0
H  H16  1  0.62030172  0.53092837  0.59719761  1  0  0.083972  0  0.945774  0  0  0.095026  0  1.004341  0  0  0.097811  0  1.001282  0  0  0.11489  0.092669  0  1.007257  0
H  H17  1  0.37969769  0.46907239  0.40280202  1  0  0.083958  0  0.945756  0  0  0.095008  0  1.004332  0  0  0.097794  0  1.001272  0  0  0.114886  0.092653  0  1.007246  0
H  H18  1  0.64335937  0.75811552  0.46465674  1  0  0.125673  0  0.995463  0  0  0.134393  0  1.056531  0  0  0.138668  0  1.054437  0  0  0.104966  0.131412  0  1.057884  0
H  H19  1  0.35664047  0.24188288  0.53534182  1  0  0.125685  0  0.995475  0  0  0.134408  0  1.056531  0  0  0.138683  0  1.054439  0  0  0.104969  0.131428  0  1.057878  0
H  H20  1  0.02441655  0.03566124  0.84555562  1  0  0.124258  0  0.960365  0  0  0.13273  0  1.023201  0  0  0.136252  0  1.022424  0  0  0.112883  0.130257  0  1.023885  0
H  H21  1  0.97558121  0.96433835  0.15444470  1  0  0.124278  0  0.960335  0  0  0.132754  0  1.023168  0  0  0.136277  0  1.022391  0  0  0.112878  0.130276  0  1.023866  0
H  H22  1  0.98700517  0.79096050  0.95921156  1  0  0.080973  0  0.968228  0  0  0.087334  0  1.037645  0  0  0.090142  0  1.034325  0  0  0.114666  0.085462  0  1.039571  0
H  H23  1  0.01299133  0.20903909  0.04078853  1  0  0.080971  0  0.968236  0  0  0.087311  0  1.037659  0  0  0.09012  0  1.034338  0  0  0.114672  0.08544  0  1.039582  0
C  C24  1  0.55812043  0.07763132  0.24356556  1  0  0.169773  0  3.625331  0  0  0.126439  0  3.87839  0  0  0.138618  0  3.891733  0  0  0.066398  0.119311  0  3.869172  0
C  C25  1  0.44187983  0.92236827  0.75643522  1  0  0.16977  0  3.625267  0  0  0.126448  0  3.878366  0  0  0.138632  0  3.891707  0  0  0.066403  0.119314  0  3.869143  0
C  C26  1  0.62210844  0.01817050  0.36642257  1  0  -0.233922  0  3.678738  0  0  -0.253903  0  3.94373  0  0  -0.266742  0  3.962903  0  0  -0.090488  -0.245882  0  3.929881  0
C  C27  1  0.37789181  0.98182909  0.63357716  1  0  -0.233943  0  3.678708  0  0  -0.253914  0  3.943697  0  0  -0.266752  0  3.962869  0  0  -0.090496  -0.245886  0  3.929837  0
C  C28  1  0.78339606  0.10690355  0.46155674  1  0  0.326572  0  3.753097  0  0  0.310378  0  4.003992  0  0  0.328547  0  4.018828  0  0  0.136371  0.299206  0  3.99305  0
C  C29  1  0.21660419  0.89309603  0.53844195  1  0  0.326567  0  3.753089  0  0  0.310372  0  4.003994  0  0  0.328541  0  4.018832  0  0  0.136365  0.299193  0  3.993061  0
C  C30  1  0.86984719  0.25741472  0.42628895  1  0  -0.198937  0  3.675884  0  0  -0.212632  0  3.926608  0  0  -0.223254  0  3.945455  0  0  -0.078952  -0.2055  0  3.913916  0
C  C31  1  0.13015432  0.74258486  0.57371101  1  0  -0.19891  0  3.675809  0  0  -0.212626  0  3.926524  0  0  -0.223247  0  3.945372  0  0  -0.078943  -0.205493  0  3.913837  0
C  C32  1  0.79999128  0.31034438  0.30272182  1  0  0.146682  0  3.636451  0  0  0.103493  0  3.892484  0  0  0.113325  0  3.90763  0  0  0.057469  0.097347  0  3.881303  0
C  C33  1  0.20001023  0.68965520  0.69727814  1  0  0.146631  0  3.636449  0  0  0.103482  0  3.892506  0  0  0.113314  0  3.907654  0  0  0.057455  0.097337  0  3.881322  0
C  C34  1  0.70525207  0.64622375  0.64986917  1  0  0.151056  0  3.73052  0  0  0.124323  0  3.986884  0  0  0.134676  0  4.002652  0  0  0.038213  0.116943  0  3.977518  0
C  C35  1  0.29474778  0.35377467  0.35013149  1  0  0.151106  0  3.730475  0  0  0.124371  0  3.986847  0  0  0.134722  0  4.002619  0  0  0.038225  0.11699  0  3.97748  0
C  C36  1  0.71690369  0.77669770  0.57620836  1  0  -0.234243  0  3.694097  0  0  -0.250552  0  3.94397  0  0  -0.261548  0  3.963  0  0  -0.099732  -0.243086  0  3.931596  0
C  C37  1  0.28309657  0.22330189  0.42379137  1  0  -0.234323  0  3.694183  0  0  -0.250635  0  3.944051  0  0  -0.261636  0  3.963078  0  0  -0.099778  -0.243172  0  3.931678  0
C  C38  1  0.83134695  0.92351943  0.64608747  1  0  0.302169  0  3.781481  0  0  0.291193  0  4.029701  0  0  0.305907  0  4.048075  0  0  0.12018  0.280582  0  4.017645  0
C  C39  1  0.16865331  0.07648015  0.35391226  1  0  0.302182  0  3.78159  0  0  0.291214  0  4.029799  0  0  0.305943  0  4.04815  0  0  0.120212  0.280602  0  4.017748  0
C  C40  1  0.92925037  0.92680011  0.78734533  1  0  -0.207999  0  3.650248  0  0  -0.22209  0  3.894404  0  0  -0.233224  0  3.914194  0  0  -0.088274  -0.215488  0  3.882185  0
C  C41  1  0.07074905  0.07320065  0.21265534  1  0  -0.208017  0  3.650265  0  0  -0.222124  0  3.894408  0  0  -0.233263  0  3.914193  0  0  -0.088271  -0.215526  0  3.882195  0
C  C42  1  0.90823366  0.78974181  0.85169499  1  0  0.161744  0  3.723272  0  0  0.132506  0  3.984658  0  0  0.1431  0  4.000305  0  0  0.04325  0.125716  0  3.973825  0
C  C43  1  0.09176575  0.21025895  0.14830464  1  0  0.161743  0  3.723279  0  0  0.132538  0  3.984648  0  0  0.143131  0  4.000295  0  0  0.043256  0.125748  0  3.973811  0
N  N44  1  0.64638224  0.21975766  0.21395078  1  0  -0.227334  0  3.483085  0  0  -0.154156  0  3.707219  0  0  -0.171007  0  3.722176  0  0  -0.358262  -0.143146  0  3.69686  0
N  N45  1  0.35361843  0.78024310  0.78604907  1  0  -0.22728  0  3.483051  0  0  -0.154202  0  3.707288  0  0  -0.171058  0  3.722248  0  0  -0.35826  -0.143192  0  3.69693  0
N  N46  1  0.86351571  0.06351098  0.58622727  1  0  -0.387291  0  3.345539  0  0  -0.32667  0  3.569711  0  0  -0.348834  0  3.578626  0  0  -0.382451  -0.310768  0  3.563624  0
N  N47  1  0.13648580  0.93648860  0.41377269  1  0  -0.387297  0  3.34557  0  0  -0.326686  0  3.569757  0  0  -0.348859  0  3.578673  0  0  -0.382457  -0.310782  0  3.563677  0
N  N48  1  0.79693043  0.64959350  0.78555214  1  0  -0.398081  0  3.288895  0  0  -0.355635  0  3.56654  0  0  -0.377275  0  3.588991  0  0  -0.352414  -0.341598  0  3.552244  0
N  N49  1  0.20306857  0.35040608  0.21444736  1  0  -0.398058  0  3.288878  0  0  -0.355611  0  3.566501  0  0  -0.377253  0  3.588952  0  0  -0.352412  -0.341569  0  3.552197  0
O  O50  1  0.00000057  0.50000009  0.00000075  1  0  -0.916746  0  1.825016  0  0  -0.922197  0  2.151079  0  0  -0.966708  0  2.145358  0  0  -0.602428  -0.887797  0  2.154936  0
O  O51  1  0.53196828  0.36386794  0.76455059  1  0  -0.921314  0  1.768752  0  0  -0.912012  0  2.072753  0  0  -0.953666  0  2.065296  0  0  -0.59509  -0.88091  0  2.076455  0
O  O52  1  0.46803364  0.63613282  0.23544949  1  0  -0.92134  0  1.768739  0  0  -0.912032  0  2.072734  0  0  -0.953681  0  2.065266  0  0  -0.595091  -0.880918  0  2.076427  0
O  O53  1  0.35138869  0.19674808  0.97500727  1  0  -0.731723  0  1.459165  0  0  -0.7193  0  1.717569  0  0  -0.749133  0  1.708533  0  0  -0.531467  -0.698631  0  1.72337  0
O  O54  1  0.64861116  0.80325034  0.02499338  1  0  -0.731753  0  1.45913  0  0  -0.719337  0  1.717555  0  0  -0.749169  0  1.70852  0  0  -0.531473  -0.698657  0  1.72335  0
O  O55  1  0.74317130  0.21033874  0.92462933  1  0  -0.688228  0  1.464915  0  0  -0.685325  0  1.710495  0  0  -0.711739  0  1.702504  0  0  -0.515557  -0.666455  0  1.717584  0
O  O56  1  0.25682896  0.78966085  0.07537145  1  0  -0.688193  0  1.464944  0  0  -0.685287  0  1.710519  0  0  -0.711701  0  1.70253  0  0  -0.515539  -0.666421  0  1.717627  0
O  O57  1  0.85148690  0.37134588  0.71034821  1  0  -0.668261  0  1.500405  0  0  -0.667799  0  1.755933  0  0  -0.694568  0  1.750798  0  0  -0.510556  -0.649162  0  1.76289  0
O  O58  1  0.14851251  0.62865488  0.28965141  1  0  -0.668268  0  1.500473  0  0  -0.667793  0  1.755979  0  0  -0.694561  0  1.750844  0  0  -0.510558  -0.649162  0  1.762955  0
O  O59  1  0.65634124  0.47588817  0.03121669  1  0  -1.02479  0  1.798084  0  0  -1.011352  0  2.114019  0  0  -1.053514  0  2.103313  0  0  -0.604138  -0.98027  0  2.119621  0
O  O60  1  0.34365944  0.52411259  0.96878420  1  0  -1.024771  0  1.798049  0  0  -1.011328  0  2.113962  0  0  -1.053487  0  2.103253  0  0  -0.60412  -0.980251  0  2.119576  0
O  O61  1  0.82863801  0.71141413  0.26734491  1  0  -0.758214  0  1.52472  0  0  -0.744656  0  1.795483  0  0  -0.774348  0  1.783418  0  0  -0.537322  -0.724139  0  1.802748  0
O  O62  1  0.17136225  0.28858545  0.73265482  1  0  -0.758216  0  1.524752  0  0  -0.74469  0  1.795531  0  0  -0.77438  0  1.783464  0  0  -0.537348  -0.72417  0  1.802788  0
