# generated using pymatgen
data_CuH10C14(N3O2)2
_symmetry_space_group_name_H-M   'P 1'
_cell_length_a   9.40146991
_cell_length_b   9.40532462
_cell_length_c   9.40531892
_cell_angle_alpha   81.84666581
_cell_angle_beta   75.99921604
_cell_angle_gamma   75.99895632
_symmetry_Int_Tables_number   1
_chemical_formula_structural   CuH10C14(N3O2)2
_chemical_formula_sum   'Cu2 H20 C28 N12 O8'
_cell_volume   779.90494943
_cell_formula_units_Z   2
loop_
 _symmetry_equiv_pos_site_id
 _symmetry_equiv_pos_as_xyz
  1  'x, y, z'
loop_
 _atom_site_type_symbol
 _atom_site_label
 _atom_site_symmetry_multiplicity
 _atom_site_fract_x
 _atom_site_fract_y
 _atom_site_fract_z
 _atom_site_occupancy
 _atom_site_hle17_ddec_charge
 _atom_site_hle17_ddec_spin_density
 _atom_site_hle17_ddec_sum_bond_order
 _atom_site_hle17_magmom
 _atom_site_hse06_10hf_ddec_charge
 _atom_site_hse06_10hf_ddec_spin_density
 _atom_site_hse06_10hf_ddec_sum_bond_order
 _atom_site_hse06_10hf_magmom
 _atom_site_hse06_ddec_charge
 _atom_site_hse06_ddec_spin_density
 _atom_site_hse06_ddec_sum_bond_order
 _atom_site_hse06_magmom
 _atom_site_pbe_cm5_charge
 _atom_site_pbe_ddec_charge
 _atom_site_pbe_ddec_spin_density
 _atom_site_pbe_ddec_sum_bond_order
 _atom_site_pbe_magmom
Cu  Cu0  1  0.73814986  0.96148856  0.70175331  1  0.855705  0.74148  1.850267  0.538  0.838072  0.827422  2.240369  0.66  0.925516  0.901962  2.179271  0.746  0.753389  0.77715  0.745256  2.287433  0.578
Cu  Cu1  1  0.23814908  0.70176142  0.96148430  1  0.855641  -0.741482  1.850293  -0.538  0.837979  -0.827426  2.240411  -0.66  0.925466  -0.90197  2.179354  -0.746  0.75331  0.777193  -0.745262  2.287308  -0.578
H  H2  1  0.38874611  0.02698173  0.61709914  1  0.114502  0.000214  0.960122  0.0  0.125954  0.00014  1.01548  0.0  0.128758  9.4e-05  1.014445  0.0  0.107387  0.123881  0.000178  1.016409  0.0
H  H3  1  0.88874639  0.61710091  0.02698166  1  0.114503  -0.000216  0.960169  0.0  0.125954  -0.000139  1.015531  0.0  0.128758  -9.5e-05  1.014496  0.0  0.107383  0.123879  -0.000178  1.01646  0.0
H  H4  1  0.61051089  0.48616269  0.78475607  1  0.311956  -3.9e-05  0.926312  0.0  0.287267  7.8e-05  0.996446  0.0  0.297845  6.9e-05  0.987087  0.0  0.31816  0.279722  0.000151  1.003351  0.0
H  H5  1  0.11050447  0.78474947  0.48616722  1  0.311817  3.9e-05  0.926379  0.0  0.287143  -7.8e-05  0.996498  0.0  0.297715  -6.9e-05  0.987146  0.0  0.318132  0.279592  -0.000151  1.003405  0.0
H  H6  1  0.87391530  0.88533058  0.17461183  1  0.313028  -4e-05  0.925738  0.0  0.288364  6.9e-05  0.995567  0.0  0.29889  5.9e-05  0.986369  0.0  0.318226  0.28075  0.000137  1.002503  0.0
H  H7  1  0.37391693  0.17461564  0.88533095  1  0.313095  3.8e-05  0.925703  0.0  0.288418  -7e-05  0.995533  0.0  0.298939  -5.9e-05  0.986341  0.0  0.318252  0.280803  -0.000137  1.00247  0.0
H  H8  1  0.08993641  0.29825243  0.25261456  1  0.088126  2.6e-05  0.959566  0.0  0.098697  -4e-06  1.018467  0.0  0.100629  -6e-06  1.019318  0.0  0.097974  0.097158  -3e-06  1.018219  0.0
H  H9  1  0.58994633  0.25261207  0.29824984  1  0.088139  -2.3e-05  0.959425  0.0  0.098697  5e-06  1.018353  0.0  0.100632  6e-06  1.0192  0.0  0.097977  0.097154  3e-06  1.018101  0.0
H  H10  1  0.58627080  0.93731736  0.08009018  1  0.125556  0.000431  0.973598  0.001  0.132225  0.00028  1.036809  0.0  0.135913  0.000167  1.034613  0.0  0.105628  0.12957  0.000302  1.038089  0.0
H  H11  1  0.08627221  0.08008969  0.93730585  1  0.125494  -0.000423  0.973728  -0.001  0.13217  -0.000281  1.036926  0.0  0.135855  -0.000167  1.034736  0.0  0.105619  0.129515  -0.000302  1.038205  0.0
H  H12  1  0.97840436  0.09838580  0.41120064  1  0.114459  0.000161  0.966031  0.0  0.118454  0.000137  1.035798  0.0  0.121418  8.1e-05  1.03372  0.0  0.107666  0.115747  0.000184  1.038347  0.0
H  H13  1  0.47840244  0.41120490  0.09838876  1  0.114462  -0.000166  0.966034  0.0  0.118445  -0.000137  1.035811  0.0  0.121409  -8.1e-05  1.033731  0.0  0.107687  0.115745  -0.000184  1.038354  0.0
H  H14  1  0.80850775  0.62760416  0.53819055  1  0.126426  0.000382  0.95876  0.001  0.13181  0.000241  1.022309  0.0  0.135201  0.000133  1.020485  0.0  0.10637  0.128754  0.000281  1.024656  0.0
H  H15  1  0.30851598  0.53818372  0.62760627  1  0.126401  -0.000369  0.958874  -0.001  0.13174  -0.000242  1.022489  0.0  0.135131  -0.000132  1.020664  0.0  0.106335  0.128698  -0.000281  1.024824  0.0
H  H16  1  0.21490474  0.03987248  0.45252105  1  0.091179  4.9e-05  0.967283  0.0  0.10294  8e-06  1.026673  0.0  0.105385  7e-06  1.026157  0.0  0.09974  0.100844  6e-06  1.027625  0.0
H  H17  1  0.71490724  0.45252267  0.03986671  1  0.091213  -4.4e-05  0.967292  0.0  0.102994  -7e-06  1.026655  0.0  0.105421  -7e-06  1.026159  0.0  0.099743  0.100897  -6e-06  1.027605  0.0
H  H18  1  0.31001239  0.99541342  0.18916765  1  0.098148  -3e-05  0.951983  0.0  0.106467  -2e-05  1.0153  0.0  0.109663  -1e-06  1.01375  0.0  0.100516  0.103842  -1.1e-05  1.017098  0.0
H  H19  1  0.81001196  0.18916759  0.99540281  1  0.098167  2.7e-05  0.952037  0.0  0.106539  2e-05  1.015278  0.0  0.109737  0.0  1.013725  0.0  0.100515  0.103911  1.1e-05  1.017076  0.0
H  H20  1  0.00330613  0.55672140  0.31158200  1  0.090347  -1e-06  0.965798  0.0  0.096479  3.4e-05  1.033963  0.0  0.098165  3.3e-05  1.034568  0.0  0.098715  0.095186  3.5e-05  1.033609  0.0
H  H21  1  0.50331822  0.31157871  0.55672250  1  0.090311  -1.4e-05  0.96587  0.0  0.096484  -3.4e-05  1.034007  0.0  0.098171  -3.2e-05  1.034611  0.0  0.098691  0.095186  -3.5e-05  1.033649  0.0
C  C22  1  0.43113790  0.00510178  0.50238431  1  -0.125983  0.00174  3.727778  0.002  -0.145148  0.000476  3.976685  0.001  -0.147831  0.00065  3.996483  0.001  -0.087241  -0.143404  0.000328  3.963432  0.0
C  C23  1  0.93113629  0.50238393  0.00509836  1  -0.125989  -0.001687  3.727905  -0.002  -0.14515  -0.000476  3.976814  -0.001  -0.147835  -0.000649  3.996606  -0.001  -0.087277  -0.143408  -0.000328  3.96356  0.0
C  C24  1  0.44007768  0.89832811  0.87106997  1  0.527891  0.004033  3.890166  0.007  0.490783  -7.2e-05  4.193988  0.002  0.522731  0.000129  4.187916  0.001  0.208436  0.468538  0.000272  4.196693  0.003
C  C25  1  0.94006652  0.87107250  0.89832510  1  0.527575  -0.004042  3.890521  -0.007  0.490525  6.8e-05  4.194257  -0.002  0.522472  -0.000128  4.188191  -0.001  0.2083  0.468275  -0.000272  4.196954  -0.003
C  C26  1  0.55347405  0.75295312  0.82728470  1  0.53497  -0.004255  3.888137  -0.007  0.500882  9.2e-05  4.186128  -0.002  0.532927  -8.9e-05  4.180464  -0.001  0.207575  0.478385  -0.000346  4.18822  -0.003
C  C27  1  0.05346237  0.82728527  0.75295628  1  0.534966  0.004259  3.887952  0.007  0.500884  -9.8e-05  4.185909  0.002  0.532929  8.9e-05  4.180242  0.001  0.207548  0.478388  0.000346  4.187999  0.003
C  C28  1  0.00314331  0.32441947  0.35107763  1  -0.060506  -0.002309  3.76718  -0.002  -0.074859  -0.000769  4.019799  -0.001  -0.077176  -0.000863  4.043335  -0.001  -0.090799  -0.073433  -0.000641  4.003684  -0.001
C  C29  1  0.50315043  0.35107666  0.32442030  1  -0.060572  0.002151  3.766971  0.002  -0.07492  0.000772  4.019618  0.001  -0.07724  0.000856  4.043156  0.001  -0.090864  -0.073486  0.000641  4.003493  0.001
C  C30  1  0.54231248  0.95308836  0.19610556  1  -0.142703  -0.00125  3.719206  -0.001  -0.15715  -5.8e-05  3.964532  0.0  -0.160594  -0.00036  3.983766  -0.001  -0.0911  -0.155095  -4e-05  3.952044  0.0
C  C31  1  0.04231707  0.19610581  0.95307365  1  -0.142614  0.001174  3.719082  0.001  -0.157055  6.4e-05  3.964416  0.0  -0.160495  0.000356  3.983648  0.001  -0.091114  -0.155005  4e-05  3.951927  0.0
C  C32  1  0.83206974  0.25292742  0.56370558  1  0.116884  0.001342  3.814728  0.002  0.119247  0.001702  4.062997  0.002  0.12171  0.000648  4.087246  0.001  0.094505  0.117953  0.002534  4.046595  0.003
C  C33  1  0.33206809  0.56370706  0.25293384  1  0.116835  -0.001453  3.814672  -0.002  0.1191  -0.001704  4.063061  -0.002  0.121559  -0.000648  4.087315  -0.001  0.09443  0.117808  -0.002534  4.046679  -0.003
C  C34  1  0.94348431  0.21219051  0.43822380  1  -0.134889  0.001813  3.735119  0.002  -0.153954  0.000479  3.983517  0.001  -0.156977  0.000668  4.004073  0.001  -0.089167  -0.151929  0.000325  3.970238  0.0
C  C35  1  0.44348242  0.43822401  0.21219371  1  -0.134813  -0.001634  3.734917  -0.002  -0.153834  -0.000482  3.983333  -0.001  -0.156851  -0.000658  4.003887  -0.001  -0.089108  -0.151813  -0.000325  3.970064  0.0
C  C36  1  0.84512010  0.51448392  0.50941260  1  -0.138487  -0.001523  3.716706  -0.002  -0.152687  -0.000114  3.961767  0.0  -0.155121  -0.000405  3.979844  -0.001  -0.089595  -0.151584  -6.5e-05  3.951211  0.0
C  C37  1  0.34512566  0.50941117  0.51448617  1  -0.138424  0.001269  3.716556  0.001  -0.152601  0.000121  3.961624  0.0  -0.155033  0.000396  3.979705  0.001  -0.089519  -0.151508  6.5e-05  3.951058  0.0
C  C38  1  0.78487299  0.40103961  0.59819495  1  0.146591  0.004419  3.790291  0.005  0.135868  0.002248  4.028248  0.003  0.140053  0.001951  4.049128  0.002  0.107404  0.132461  0.002372  4.014629  0.003
C  C39  1  0.28486916  0.59819471  0.40104424  1  0.146436  -0.004297  3.790398  -0.005  0.135784  -0.00225  4.028294  -0.003  0.139967  -0.001945  4.049174  -0.002  0.107333  0.132376  -0.002372  4.014678  -0.003
C  C40  1  0.63921595  0.94307085  0.29110324  1  0.136315  0.004267  3.807631  0.005  0.126859  0.002251  4.045982  0.003  0.131165  0.001958  4.066525  0.002  0.10473  0.123685  0.002383  4.032803  0.003
C  C41  1  0.13922026  0.29110497  0.94306050  1  0.136403  -0.004254  3.807427  -0.005  0.126884  -0.002252  4.045844  -0.003  0.131189  -0.001956  4.066383  -0.002  0.104729  0.12371  -0.002382  4.032667  -0.003
C  C42  1  0.33558394  0.01288663  0.40881846  1  -0.058827  -0.002151  3.753162  -0.002  -0.077647  -0.000725  4.011535  -0.001  -0.079149  -0.000812  4.033209  -0.001  -0.090339  -0.076435  -0.000595  3.996413  -0.001
C  C43  1  0.83558547  0.40881393  0.01288820  1  -0.05883  0.002098  3.753328  0.002  -0.077671  0.000728  4.011697  0.001  -0.079162  0.000812  4.033386  0.001  -0.090324  -0.076454  0.000595  3.996566  0.001
C  C44  1  0.38993793  0.98802764  0.25820052  1  -0.048786  0.001877  3.740381  0.002  -0.071038  0.000538  4.002597  0.001  -0.072506  0.000695  4.024659  0.001  -0.089373  -0.069979  0.000323  3.987993  0.0
C  C45  1  0.88993919  0.25819998  0.98801834  1  -0.048894  -0.001814  3.740397  -0.002  -0.071185  -0.000544  4.00259  -0.001  -0.072654  -0.000692  4.024646  -0.001  -0.089364  -0.070118  -0.000323  3.987972  0.0
C  C46  1  0.95430700  0.47273607  0.38555938  1  -0.056244  0.001999  3.763175  0.002  -0.076807  0.000563  4.024034  0.001  -0.078208  0.000719  4.046828  0.001  -0.091694  -0.075613  0.000323  4.008751  0.0
C  C47  1  0.45431160  0.38555377  0.47273698  1  -0.056168  -0.001752  3.76307  -0.002  -0.076769  -0.000569  4.023904  -0.001  -0.078174  -0.000711  4.046706  -0.001  -0.091651  -0.075567  -0.000323  4.00861  0.0
C  C48  1  0.58588735  0.96926581  0.44123607  1  0.115058  0.001252  3.815027  0.002  0.115879  0.001719  4.067246  0.002  0.118676  0.000766  4.090419  0.001  0.094113  0.11409  0.002496  4.051756  0.003
C  C49  1  0.08588635  0.44123370  0.96926017  1  0.115046  -0.001254  3.815173  -0.002  0.115866  -0.001734  4.067438  -0.002  0.118669  -0.000749  4.090609  -0.001  0.094159  0.114077  -0.002496  4.051958  -0.003
N  N50  1  0.83339515  0.91858344  0.39594506  1  0.003809  -0.004007  2.90773  -0.006  -0.001282  -0.000308  3.207009  -0.001  0.007616  -0.001479  3.217169  -0.003  -0.069798  -0.006567  0.000837  3.20025  0.0
N  N51  1  0.33339781  0.39594526  0.91858167  1  0.003819  0.003994  2.907849  0.006  -0.001285  0.000312  3.207128  0.001  0.007613  0.001478  3.21729  0.003  -0.069818  -0.006573  -0.000837  3.200386  0.0
N  N52  1  0.65623704  0.26141659  0.76761186  1  -0.00028  -0.003341  2.89519  -0.005  -0.009724  0.000292  3.198892  -0.001  -0.000242  -0.001084  3.208817  -0.002  -0.075704  -0.015694  0.001479  3.192544  0.001
N  N53  1  0.15623388  0.76761418  0.26142445  1  -0.000162  0.003239  2.895275  0.005  -0.009596  -0.000287  3.198955  0.001  -0.000115  0.001073  3.208881  0.002  -0.075635  -0.015566  -0.001479  3.192616  -0.001
N  N54  1  0.71114460  0.95313353  0.49881868  1  -0.266544  0.068353  3.251007  0.086  -0.245815  0.049193  3.586677  0.066  -0.269871  0.041303  3.602707  0.058  -0.237489  -0.231572  0.05203  3.577631  0.067
N  N55  1  0.21114461  0.49881495  0.95312960  1  -0.26645  -0.068364  3.251036  -0.086  -0.24572  -0.049182  3.586695  -0.066  -0.269788  -0.041307  3.602742  -0.058  -0.23742  -0.231498  -0.052024  3.57766  -0.067
N  N56  1  0.67669676  0.39770237  0.72437706  1  -0.208418  0.000424  3.415004  0.001  -0.148403  0.001685  3.656096  0.003  -0.161981  0.000577  3.668898  0.001  -0.241965  -0.140181  0.002256  3.648293  0.004
N  N57  1  0.17669620  0.72437615  0.39770789  1  -0.208232  -0.000449  3.415327  -0.001  -0.148237  -0.001677  3.656386  -0.003  -0.16181  -0.000583  3.669193  -0.001  -0.241923  -0.140006  -0.002256  3.648574  -0.004
N  N58  1  0.74881295  0.17318110  0.67226077  1  -0.265799  0.072191  3.268435  0.09  -0.246902  0.051445  3.607242  0.069  -0.272072  0.042935  3.62477  0.06  -0.2391  -0.231885  0.054561  3.597194  0.07
N  N59  1  0.24880729  0.67226365  0.17319115  1  -0.265857  -0.072081  3.268176  -0.09  -0.246951  -0.051444  3.607019  -0.069  -0.27213  -0.042918  3.624566  -0.06  -0.239081  -0.231963  -0.054558  3.596985  -0.07
N  N60  1  0.79212961  0.91230231  0.27135358  1  -0.20203  -1.8e-05  3.395911  0.001  -0.143411  0.00136  3.634265  0.002  -0.15628  0.00037  3.645632  0.001  -0.24184  -0.135546  0.001875  3.62795  0.003
N  N61  1  0.29213253  0.27135697  0.91229597  1  -0.202192  4.2e-05  3.395946  -0.001  -0.143515  -0.001354  3.634276  -0.002  -0.156384  -0.000373  3.645645  -0.001  -0.241864  -0.135635  -0.001875  3.627952  -0.003
O  O62  1  0.50649001  0.63537395  0.86427169  1  -0.564825  0.014486  2.065815  0.018  -0.53795  0.007897  2.312031  0.01  -0.565738  0.00474  2.302402  0.006  -0.295095  -0.515906  0.011637  2.317604  0.015
O  O63  1  0.00647078  0.86425806  0.63538572  1  -0.564731  -0.014473  2.065793  -0.018  -0.537898  -0.007896  2.312028  -0.01  -0.565672  -0.004739  2.302393  -0.006  -0.295051  -0.515835  -0.011634  2.317593  -0.015
O  O64  1  0.48795423  0.01593528  0.83715273  1  -0.574245  -0.013116  2.091511  -0.016  -0.544876  -0.007118  2.344689  -0.009  -0.572812  -0.004411  2.334839  -0.005  -0.29627  -0.522573  -0.010233  2.349877  -0.013
O  O65  1  0.98795362  0.83715081  0.01593673  1  -0.57419  0.013125  2.091402  0.016  -0.544809  0.007119  2.344492  0.009  -0.572756  0.00441  2.334654  0.005  -0.29626  -0.522522  0.010235  2.349677  0.013
O  O66  1  0.30671533  0.89251010  0.93790807  1  -0.530162  -0.074007  2.111264  -0.098  -0.51262  -0.045415  2.386433  -0.066  -0.551071  -0.03432  2.381986  -0.052  -0.305093  -0.48363  -0.053259  2.388458  -0.075
O  O67  1  0.80670972  0.93791099  0.89251693  1  -0.529961  0.073997  2.111488  0.098  -0.512448  0.045412  2.386617  0.066  -0.550889  0.034315  2.382166  0.052  -0.304969  -0.483443  0.053256  2.388648  0.074
O  O68  1  0.68587590  0.76073360  0.75742530  1  -0.532259  0.077251  2.071888  0.102  -0.515986  0.047336  2.337302  0.069  -0.554652  0.035669  2.332898  0.054  -0.308886  -0.486758  0.056614  2.339292  0.079
O  O69  1  0.18587315  0.75742920  0.76073798  1  -0.532208  -0.077261  2.071664  -0.102  -0.515948  -0.047337  2.337108  -0.069  -0.554627  -0.035674  2.332721  -0.054  -0.308887  -0.486742  -0.05662  2.339094  -0.079
