# generated using pymatgen
data_AgH21C28SN3(O3F)3
_symmetry_space_group_name_H-M   'P 1'
_cell_length_a   9.12642973
_cell_length_b   13.00310548
_cell_length_c   16.35852209
_cell_angle_alpha   108.24582369
_cell_angle_beta   100.20125044
_cell_angle_gamma   103.49996725
_symmetry_Int_Tables_number   1
_chemical_formula_structural   AgH21C28SN3(O3F)3
_chemical_formula_sum   'Ag2 H42 C56 S2 N6 O18 F6'
_cell_volume   1725.70219984
_cell_formula_units_Z   2
loop_
 _symmetry_equiv_pos_site_id
 _symmetry_equiv_pos_as_xyz
  1  'x, y, z'
loop_
 _atom_site_type_symbol
 _atom_site_label
 _atom_site_symmetry_multiplicity
 _atom_site_fract_x
 _atom_site_fract_y
 _atom_site_fract_z
 _atom_site_occupancy
 _atom_site_pbe_bader_charge
 _atom_site_pbe_bader_spin_density
 _atom_site_pbe_cm5_charge
 _atom_site_pbe_ddec_charge
 _atom_site_pbe_ddec_spin_density
 _atom_site_pbe_ddec_sum_bond_order
 _atom_site_pbe_magmom
Ag  Ag0  1  0.06958945  0.88827369  0.31856300  1  0.594114  0  0.470613  0.313321  0  1.948  0
Ag  Ag1  1  0.93041929  0.11173220  0.68143625  1  0.594045  0  0.47062  0.313353  0  1.948024  0
H  H2  1  0.09931183  0.12271993  0.45692071  1  0.126562  0  0.112326  0.0853  0  1.04264  0
H  H3  1  0.90069240  0.87728849  0.54307932  1  0.126538  0  0.112298  0.085268  0  1.042609  0
H  H4  1  0.98164627  0.27820808  0.48178171  1  0.148324  0  0.115594  0.125231  0  1.012049  0
H  H5  1  0.01835398  0.72179609  0.51821502  1  0.148456  0  0.115616  0.125276  0  1.012114  0
H  H6  1  0.73506263  0.13014275  0.20100421  1  0.10661  0  0.116555  0.127299  0  0.980238  0
H  H7  1  0.26492921  0.86984946  0.79899355  1  0.106574  0  0.116572  0.127383  0  0.980178  0
H  H8  1  0.85968485  0.97396829  0.18773894  1  0.083899  0  0.119206  0.087225  0  0.972603  0
H  H9  1  0.14031877  0.02603076  0.81226113  1  0.083922  0  0.119222  0.087214  0  0.972636  0
H  H10  1  0.61161967  0.43351835  0.42663052  1  0.061787  0  0.108746  0.088144  0  0.997334  0
H  H11  1  0.38837904  0.56648493  0.57337011  1  0.061799  0  0.108742  0.088163  0  0.997349  0
H  H12  1  0.78386128  0.52702291  0.42328992  1  0.140758  0  0.110406  0.100814  0  1.00875  0
H  H13  1  0.21613668  0.47298123  0.57671023  1  0.140831  0  0.110417  0.100854  0  1.008706  0
H  H14  1  0.64674029  0.64334624  0.54034284  1  0.110256  0  0.103087  0.118286  0  1.034958  0
H  H15  1  0.35325919  0.35665620  0.45965704  1  0.110292  0  0.103092  0.118277  0  1.034973  0
H  H16  1  0.24308745  0.05336106  0.52302061  1  0.120861  0  0.113179  0.088908  0  1.040785  0
H  H17  1  0.75692612  0.94664570  0.47697874  1  0.120338  0  0.113169  0.088941  0  1.040746  0
H  H18  1  0.43065215  0.05680882  0.65381764  1  0.123933  0  0.116087  0.132482  0  0.988121  0
H  H19  1  0.56935698  0.94319536  0.34618244  1  0.124155  0  0.116053  0.132432  0  0.988119  0
H  H20  1  0.44830277  0.72967289  0.48831792  1  0.132207  0  0.116629  0.132897  0  1.002029  0
H  H21  1  0.55169743  0.27032869  0.51168427  1  0.132179  0  0.116609  0.132907  0  1.001933  0
H  H22  1  0.25465844  0.73664303  0.36433693  1  0.136203  0  0.117625  0.092732  0  0.996124  0
H  H23  1  0.74534327  0.26335941  0.63566318  1  0.136063  0  0.117612  0.092729  0  0.996136  0
H  H24  1  0.61792737  0.76073820  0.75976239  1  0.099555  0  0.115862  0.10427  0  0.957004  0
H  H25  1  0.38208099  0.23926683  0.24023905  1  0.09945  0  0.11587  0.104242  0  0.957059  0
H  H26  1  0.78671565  0.85899665  0.75550419  1  0.086594  0  0.107381  0.080677  0  0.999397  0
H  H27  1  0.21329089  0.14100667  0.24449541  1  0.086681  0  0.10732  0.080511  0  0.999521  0
H  H28  1  0.88380715  0.70418452  0.81110864  1  0.040118  0  0.09794  0.102813  0  1.013432  0
H  H29  1  0.11619128  0.29581281  0.18889107  1  0.040108  0  0.097931  0.102828  0  1.013417  0
H  H30  1  0.25711655  0.84437521  0.17538730  1  0.128304  0  0.117862  0.101904  0  1.011254  0
H  H31  1  0.74288308  0.15561958  0.82460946  1  0.129399  0  0.11783  0.101869  0  1.011287  0
H  H32  1  0.21438979  0.72945499  0.01330874  1  0.109585  0  0.118091  0.126961  0  0.984336  0
H  H33  1  0.78560909  0.27053809  0.98668996  1  0.109417  0  0.11807  0.12694  0  0.984343  0
H  H34  1  0.74923440  0.55150139  0.00872488  1  0.113502  0  0.116516  0.130407  0  0.980584  0
H  H35  1  0.25076178  0.44849591  0.99127643  1  0.113559  0  0.116531  0.130445  0  0.980521  0
H  H36  1  0.80938509  0.67562104  0.17135117  1  0.12455  0  0.109982  0.085289  0  1.042278  0
H  H37  1  0.19061105  0.32438139  0.82864837  1  0.124574  0  0.11  0.085319  0  1.042282  0
H  H38  1  0.98404058  0.44418625  0.75846989  1  0.128417  0  0.108843  0.091228  0  0.999983  0
H  H39  1  0.01595194  0.55581021  0.24152839  1  0.128481  0  0.108839  0.091222  0  1.000024  0
H  H40  1  0.14306356  0.55477736  0.75989155  1  0.128063  0  0.113667  0.112503  0  0.979173  0
H  H41  1  0.85693305  0.44521826  0.24010755  1  0.128004  0  0.113671  0.112472  0  0.979253  0
H  H42  1  0.92519762  0.43404550  0.59261531  1  0.097717  0  0.103034  0.116833  0  1.027633  0
H  H43  1  0.07479822  0.56595353  0.40738213  1  0.097702  0  0.10309  0.116941  0  1.027575  0
C  C44  1  0.01580313  0.12462766  0.40154915  1  0.483066  0  0.047504  0.093353  0  3.924677  0
C  C45  1  0.98420156  0.87537651  0.59844926  1  0.48298  0  0.04758  0.093462  0  3.924597  0
C  C46  1  0.95077503  0.21321833  0.41527766  1  -0.050968  0  -0.071183  -0.123099  0  3.929788  0
C  C47  1  0.04922266  0.78678242  0.58471917  1  -0.050908  0  -0.071222  -0.123209  0  3.930118  0
C  C48  1  0.84783382  0.21600163  0.34259103  1  0.009119  0  0.00212  -0.005176  0  3.991016  0
C  C49  1  0.15215608  0.78399653  0.65740619  1  0.009071  0  0.002078  -0.005161  0  3.991182  0
C  C50  1  0.81445579  0.12945008  0.25884483  1  -0.014354  0  -0.070542  -0.130576  0  3.936727  0
C  C51  1  0.18553564  0.87054382  0.74115392  1  -0.014674  0  -0.070505  -0.130652  0  3.936643  0
C  C52  1  0.88375037  0.04360444  0.25150260  1  0.479906  0  0.044749  0.083681  0  3.9536  0
C  C53  1  0.11624916  0.95639546  0.74849603  1  0.480335  0  0.044751  0.08374  0  3.953571  0
C  C54  1  0.77230626  0.30769333  0.35148126  1  1.512593  0  0.235781  0.497698  0  4.12961  0
C  C55  1  0.22768661  0.69230656  0.64851486  1  1.512648  0  0.235806  0.497653  0  4.129521  0
C  C56  1  0.73911076  0.46922513  0.45638998  1  0.387199  0  -0.059084  -0.01811  0  3.8472  0
C  C57  1  0.26088873  0.53077732  0.54360868  1  0.38716  0  -0.059127  -0.018251  0  3.847336  0
C  C58  1  0.77951567  0.53032089  0.55603876  1  -0.048014  0  -0.012399  0.10399  0  3.988499  0
C  C59  1  0.22048348  0.46967814  0.44396146  1  -0.047939  0  -0.012398  0.104037  0  3.988487  0
C  C60  1  0.71838849  0.61996560  0.58789374  1  -0.020605  0  -0.101168  -0.204784  0  3.947873  0
C  C61  1  0.28161175  0.38003599  0.41210601  1  -0.020626  0  -0.101192  -0.204842  0  3.947881  0
C  C62  1  0.28887274  0.98207148  0.51734737  1  0.500213  0  0.042974  0.082982  0  3.936821  0
C  C63  1  0.71113457  0.01793100  0.48265088  1  0.50066  0  0.042972  0.082893  0  3.936821  0
C  C64  1  0.39566249  0.98476750  0.59062120  1  -0.031419  0  -0.071803  -0.120244  0  3.913824  0
C  C65  1  0.60433996  0.01523410  0.40937999  1  -0.031606  0  -0.071757  -0.120154  0  3.913807  0
C  C66  1  0.45371762  0.89263119  0.58177864  1  0.033736  0  0.001245  -0.009944  0  3.983368  0
C  C67  1  0.54628371  0.10737040  0.41822244  1  0.033657  0  0.001267  -0.00991  0  3.983334  0
C  C68  1  0.40366055  0.80186423  0.49916313  1  -0.033917  0  -0.072086  -0.122513  0  3.926232  0
C  C69  1  0.59634188  0.19813735  0.50083928  1  -0.033755  0  -0.072091  -0.122533  0  3.926273  0
C  C70  1  0.29623643  0.80593683  0.42947552  1  0.451365  0  0.046357  0.08582  0  3.93512  0
C  C71  1  0.70376713  0.19406476  0.57052579  1  0.45145  0  0.046355  0.085778  0  3.935177  0
C  C72  1  0.56228321  0.89245022  0.66146627  1  1.477565  0  0.238189  0.503943  0  4.126949  0
C  C73  1  0.43771741  0.10754967  0.33853431  1  1.477544  0  0.238131  0.503823  0  4.12696  0
C  C74  1  0.69206923  0.77875169  0.71645381  1  0.367485  0  -0.05507  -0.013179  0  3.863293  0
C  C75  1  0.30793801  0.22125333  0.28354690  1  0.367528  0  -0.05509  -0.012994  0  3.863291  0
C  C76  1  0.75474964  0.68186938  0.67933429  1  0.007651  0  -0.015643  0.098639  0  4.000032  0
C  C77  1  0.24525320  0.31813308  0.32066472  1  0.007769  0  -0.015553  0.098749  0  3.999888  0
C  C78  1  0.85402613  0.65487415  0.73960229  1  -0.0505  0  -0.101885  -0.202055  0  3.9727  0
C  C79  1  0.14597488  0.34512660  0.26039671  1  -0.050616  0  -0.101908  -0.202161  0  3.972729  0
C  C80  1  0.14611655  0.77903246  0.13597601  1  0.517637  0  0.04902  0.093489  0  3.921847  0
C  C81  1  0.85388341  0.22096318  0.86402283  1  0.516242  0  0.049011  0.093473  0  3.921845  0
C  C82  1  0.12174459  0.71549080  0.04599321  1  -0.032301  0  -0.073676  -0.130576  0  3.941194  0
C  C83  1  0.87825428  0.28450228  0.95400609  1  -0.032142  0  -0.073567  -0.130452  0  3.941146  0
C  C84  1  0.97699309  0.63290844  0.99867686  1  -0.037723  0  0.000649  -0.003053  0  4.001221  0
C  C85  1  0.02300504  0.36708549  0.00132197  1  -0.037468  0  0.000583  -0.003155  0  4.00133  0
C  C86  1  0.86243305  0.61626217  0.04394778  1  -0.028514  0  -0.075683  -0.137526  0  3.931399  0
C  C87  1  0.13756316  0.38373516  0.95605110  1  -0.028773  0  -0.075695  -0.137537  0  3.93138  0
C  C88  1  0.89553644  0.68438120  0.13365217  1  0.50346  0  0.042574  0.088056  0  3.935913  0
C  C89  1  0.10446272  0.31561783  0.86634744  1  0.503567  0  0.042562  0.088047  0  3.935951  0
C  C90  1  0.94081468  0.56048268  0.90226619  1  1.495084  0  0.230387  0.49408  0  4.139902  0
C  C91  1  0.05918194  0.43951295  0.09773169  1  1.494971  0  0.230398  0.49412  0  4.139886  0
C  C92  1  0.02587820  0.53524002  0.77032577  1  0.337799  0  -0.061063  -0.017884  0  3.85081  0
C  C93  1  0.97411654  0.46475645  0.22967274  1  0.337822  0  -0.061058  -0.017806  0  3.850861  0
C  C94  1  0.91517302  0.56594927  0.70877524  1  -0.022726  0  -0.014947  0.09912  0  3.996677  0
C  C95  1  0.08482761  0.43405062  0.29122474  1  -0.022742  0  -0.014953  0.099156  0  3.996659  0
C  C96  1  0.87676776  0.50331381  0.61655376  1  -0.05985  0  -0.101058  -0.202369  0  3.935375  0
C  C97  1  0.12323249  0.49668778  0.38344538  1  -0.059887  0  -0.101078  -0.202477  0  3.935337  0
C  C98  1  0.54515553  0.62117780  0.26781834  1  1.648962  0  0.286179  0.511875  0  4.063051  0
C  C99  1  0.45484496  0.37882460  0.73218897  1  1.649423  0  0.286195  0.511854  0  4.062968  0
S  S100  1  0.73679662  0.71278638  0.35054392  1  3.264067  0  0.478822  0.975908  0  6.398839  0
S  S101  1  0.26320391  0.28721347  0.64946275  1  3.264051  0  0.478791  0.975984  0  6.399199  0
N  N102  1  0.98374786  0.04094621  0.32160652  1  -1.198641  0  -0.332616  -0.198063  0  3.547661  0
N  N103  1  0.01625386  0.95905625  0.67839237  1  -1.198712  0  -0.332691  -0.198194  0  3.54771  0
N  N104  1  0.23851295  0.89407494  0.43791646  1  -1.195708  0  -0.338012  -0.209259  0  3.597138  0
N  N105  1  0.76149360  0.10592839  0.56208254  1  -1.195698  0  -0.337993  -0.209182  0  3.597039  0
N  N106  1  0.03457622  0.76505225  0.17911740  1  -1.19969  0  -0.33508  -0.20305  0  3.561708  0
N  N107  1  0.96542331  0.23494765  0.82088124  1  -1.199633  0  -0.335082  -0.203078  0  3.561751  0
O  O108  1  0.68722307  0.31641736  0.28874781  1  -1.132376  0  -0.27425  -0.459322  0  2.137298  0
O  O109  1  0.31276500  0.68357909  0.71124940  1  -1.132401  0  -0.274198  -0.459256  0  2.137271  0
O  O110  1  0.80741331  0.37758287  0.43757619  1  -1.068949  0  -0.155497  -0.224178  0  2.593357  0
O  O111  1  0.19258216  0.62241788  0.56241979  1  -1.069091  0  -0.155551  -0.224146  0  2.593299  0
O  O112  1  0.61168266  0.97109251  0.73433542  1  -1.131556  0  -0.277125  -0.479064  0  2.170264  0
O  O113  1  0.38831721  0.02890822  0.26566530  1  -1.131529  0  -0.277091  -0.478999  0  2.170296  0
O  O114  1  0.59600951  0.79352718  0.64338039  1  -1.060625  0  -0.15091  -0.209567  0  2.57287  0
O  O115  1  0.40399442  0.20647527  0.35662056  1  -1.060645  0  -0.150866  -0.20954  0  2.572781  0
O  O116  1  0.82702961  0.47571572  0.86326708  1  -1.115644  0  -0.272894  -0.461389  0  2.193295  0
O  O117  1  0.17296773  0.52427905  0.13673310  1  -1.115512  0  -0.272877  -0.46137  0  2.193309  0
O  O118  1  0.04974646  0.60062067  0.86399895  1  -1.058079  0  -0.164778  -0.231805  0  2.518285  0
O  O119  1  0.95025160  0.39937836  0.13599993  1  -1.058073  0  -0.164807  -0.231875  0  2.518355  0
O  O120  1  0.83883707  0.64092060  0.34257862  1  -1.323608  0  -0.337438  -0.567454  0  2.252963  0
O  O121  1  0.16115564  0.35907407  0.65743329  1  -1.323511  0  -0.337465  -0.567524  0  2.252838  0
O  O122  1  0.69359549  0.74341476  0.43474149  1  -1.32863  0  -0.336025  -0.559988  0  2.266178  0
O  O123  1  0.30640787  0.25659446  0.56526660  1  -1.328662  0  -0.336072  -0.560051  0  2.266351  0
O  O124  1  0.78054745  0.80707337  0.31952150  1  -1.323237  0  -0.352115  -0.570523  0  2.312773  0
O  O125  1  0.21945622  0.19292057  0.68047973  1  -1.323259  0  -0.351991  -0.570453  0  2.313153  0
F  F126  1  0.48041846  0.53144471  0.28902300  1  -0.617214  0  -0.093658  -0.175101  0  1.369777  0
F  F127  1  0.51957467  0.46855598  0.71098007  1  -0.617412  0  -0.093682  -0.175127  0  1.369694  0
F  F128  1  0.44552500  0.68403046  0.26751654  1  -0.614343  0  -0.093254  -0.1771  0  1.378369  0
F  F129  1  0.55447786  0.31596943  0.73248366  1  -0.61465  0  -0.093232  -0.17708  0  1.378268  0
F  F130  1  0.56085254  0.57966739  0.18332646  1  -0.619587  0  -0.104828  -0.191184  0  1.323625  0
F  F131  1  0.43916357  0.42033250  0.81668365  1  -0.619562  0  -0.104876  -0.191207  0  1.323735  0
