# generated using pymatgen
data_SnH8C6(SN)2
_symmetry_space_group_name_H-M   'P 1'
_cell_length_a   13.16912874
_cell_length_b   13.16922112
_cell_length_c   12.60174561
_cell_angle_alpha   118.24847126
_cell_angle_beta   118.24978483
_cell_angle_gamma   95.34302715
_symmetry_Int_Tables_number   1
_chemical_formula_structural   SnH8C6(SN)2
_chemical_formula_sum   'Sn4 H32 C24 S8 N8'
_cell_volume   1547.79692398
_cell_formula_units_Z   4
loop_
 _symmetry_equiv_pos_site_id
 _symmetry_equiv_pos_as_xyz
  1  'x, y, z'
loop_
 _atom_site_type_symbol
 _atom_site_label
 _atom_site_symmetry_multiplicity
 _atom_site_fract_x
 _atom_site_fract_y
 _atom_site_fract_z
 _atom_site_occupancy
 _atom_site_hle17_bader_spin_density
 _atom_site_hle17_ddec_charge
 _atom_site_hle17_ddec_spin_density
 _atom_site_hle17_ddec_sum_bond_order
 _atom_site_hle17_magmom
 _atom_site_hse06_10hf_bader_spin_density
 _atom_site_hse06_10hf_ddec_charge
 _atom_site_hse06_10hf_ddec_spin_density
 _atom_site_hse06_10hf_ddec_sum_bond_order
 _atom_site_hse06_10hf_magmom
 _atom_site_hse06_bader_spin_density
 _atom_site_hse06_ddec_charge
 _atom_site_hse06_ddec_spin_density
 _atom_site_hse06_ddec_sum_bond_order
 _atom_site_hse06_magmom
 _atom_site_pbe_bader_spin_density
 _atom_site_pbe_cm5_charge
 _atom_site_pbe_ddec_charge
 _atom_site_pbe_ddec_spin_density
 _atom_site_pbe_ddec_sum_bond_order
 _atom_site_pbe_magmom
Sn  Sn0  1  0.60643571  0.17005708  0.70018622  1  0  1.201361  0  3.003463  0  0  1.041572  0  3.50333  0  0  1.079577  0  3.495453  0  0  0.547549  1.014801  0  3.508591  0
Sn  Sn1  1  0.82995177  0.39355653  0.29980582  1  0  1.201116  0  3.003607  0  0  1.041334  0  3.50338  0  0  1.079339  0  3.495505  0  0  0.547462  1.014558  0  3.508652  0
Sn  Sn2  1  0.15601829  0.21967436  0.79959995  1  0  1.201353  0  3.004843  0  0  1.04187  0  3.504094  0  0  1.079855  0  3.496235  0  0  0.547727  1.015088  0  3.509387  0
Sn  Sn3  1  0.78032733  0.84398917  0.20041147  1  0  1.20127  0  3.004642  0  0  1.041793  0  3.503945  0  0  1.079783  0  3.496081  0  0  0.547687  1.014998  0  3.50925  0
H  H4  1  0.85511613  0.07852375  0.70015695  1  0  0.071996  0  0.998325  0  0  0.077413  0  1.074939  0  0  0.079176  0  1.073003  0  0  0.114757  0.076142  0  1.076124  0
H  H5  1  0.92148733  0.14487536  0.29984876  1  0  0.072085  0  0.998268  0  0  0.077436  0  1.074959  0  0  0.0792  0  1.07302  0  0  0.114753  0.076167  0  1.076142  0
H  H6  1  0.40489921  0.12832648  0.79990505  1  0  0.072225  0  0.997631  0  0  0.077557  0  1.074448  0  0  0.079299  0  1.072535  0  0  0.114701  0.076286  0  1.075636  0
H  H7  1  0.87167092  0.59510282  0.20005679  1  0  0.072308  0  0.997439  0  0  0.077613  0  1.074305  0  0  0.079371  0  1.072383  0  0  0.114692  0.076333  0  1.075502  0
H  H8  1  0.08196637  0.46729287  0.96086023  1  0  0.105121  0  0.943144  0  0  0.11387  0  1.006364  0  0  0.116852  0  1.003489  0  0  0.121123  0.111691  0  1.008426  0
H  H9  1  0.53270556  0.91804334  0.03914111  1  0  0.10502  0  0.943243  0  0  0.11382  0  1.006428  0  0  0.116804  0  1.003543  0  0  0.121121  0.111638  0  1.008492  0
H  H10  1  0.37092786  0.25607371  0.53854318  1  0  0.10557  0  0.943907  0  0  0.114202  0  1.007102  0  0  0.117158  0  1.004248  0  0  0.121348  0.112025  0  1.009177  0
H  H11  1  0.74395802  0.62906877  0.46146068  1  0  0.105425  0  0.944051  0  0  0.114123  0  1.007207  0  0  0.117027  0  1.004409  0  0  0.121282  0.111943  0  1.009285  0
H  H12  1  0.54932325  0.19758985  0.48325208  1  0  0.160251  0  0.965088  0  0  0.180144  0  1.014798  0  0  0.182778  0  1.015647  0  0  0.092413  0.178096  0  1.014598  0
H  H13  1  0.80241679  0.45068711  0.51674730  1  0  0.16029  0  0.964939  0  0  0.180136  0  1.014711  0  0  0.182774  0  1.015554  0  0  0.092406  0.178084  0  1.014518  0
H  H14  1  0.31566282  0.46386483  0.01618526  1  0  0.159522  0  0.964639  0  0  0.17916  0  1.014774  0  0  0.181806  0  1.015612  0  0  0.091864  0.177121  0  1.014567  0
H  H15  1  0.53612723  0.68432828  0.98378937  1  0  0.159622  0  0.964648  0  0  0.179219  0  1.014822  0  0  0.181861  0  1.015668  0  0  0.091874  0.177179  0  1.014617  0
H  H16  1  0.43184041  0.05263550  0.40451271  1  0  0.163042  0  0.96496  0  0  0.183465  0  1.013488  0  0  0.186021  0  1.014316  0  0  0.092499  0.1815  0  1.013129  0
H  H17  1  0.94737689  0.56816578  0.59548052  1  0  0.162941  0  0.964902  0  0  0.183353  0  1.013464  0  0  0.185907  0  1.014297  0  0  0.092459  0.181397  0  1.013088  0
H  H18  1  0.27706233  0.39777777  0.09529930  1  0  0.162488  0  0.965727  0  0  0.183047  0  1.014156  0  0  0.185625  0  1.014964  0  0  0.092326  0.181084  0  1.013782  0
H  H19  1  0.60223565  0.72293908  0.90470225  1  0  0.162491  0  0.965665  0  0  0.183009  0  1.014141  0  0  0.185588  0  1.014947  0  0  0.092301  0.181046  0  1.013762  0
H  H20  1  0.58312179  0.06018224  0.44183394  1  0  0.160593  0  1.023382  0  0  0.17182  0  1.091204  0  0  0.175383  0  1.09107  0  0  0.07618  0.169146  0  1.091507  0
H  H21  1  0.93982693  0.41688601  0.55816954  1  0  0.160652  0  1.023346  0  0  0.171886  0  1.091143  0  0  0.175448  0  1.091009  0  0  0.076214  0.169212  0  1.091447  0
H  H22  1  0.39079118  0.36777009  0.05753481  1  0  0.160429  0  1.023598  0  0  0.171326  0  1.091856  0  0  0.174908  0  1.091701  0  0  0.076055  0.168659  0  1.092142  0
H  H23  1  0.63224569  0.60921304  0.94247933  1  0  0.160269  0  1.02351  0  0  0.171208  0  1.091757  0  0  0.174791  0  1.091597  0  0  0.076003  0.168544  0  1.092042  0
H  H24  1  0.63813935  0.13359457  0.90506839  1  0  0.153046  0  1.00799  0  0  0.164669  0  1.077008  0  0  0.166871  0  1.079276  0  0  0.082179  0.163003  0  1.075599  0
H  H25  1  0.86640195  0.36185536  0.09492691  1  0  0.153085  0  1.00802  0  0  0.164686  0  1.077059  0  0  0.166886  0  1.079332  0  0  0.0822  0.163021  0  1.075648  0
H  H26  1  0.98317389  0.97849866  0.59494114  1  0  0.153504  0  1.007363  0  0  0.164959  0  1.076613  0  0  0.167167  0  1.078872  0  0  0.082507  0.163288  0  1.075199  0
H  H27  1  0.02150268  0.01680766  0.40506353  1  0  0.153569  0  1.007395  0  0  0.165009  0  1.076639  0  0  0.167215  0  1.078893  0  0  0.082511  0.163334  0  1.075234  0
H  H28  1  0.69353998  0.03753821  0.80586324  1  0  0.167239  0  0.973946  0  0  0.186095  0  1.025269  0  0  0.189341  0  1.024917  0  0  0.087771  0.18378  0  1.025533  0
H  H29  1  0.96246529  0.30645827  0.19413132  1  0  0.167303  0  0.973841  0  0  0.186162  0  1.025157  0  0  0.18941  0  1.024801  0  0  0.087768  0.183846  0  1.025418  0
H  H30  1  0.13767668  0.98171720  0.69442094  1  0  0.167156  0  0.974036  0  0  0.186155  0  1.025231  0  0  0.189393  0  1.024903  0  0  0.087775  0.183838  0  1.025489  0
H  H31  1  0.01827783  0.86230692  0.30558829  1  0  0.167092  0  0.973882  0  0  0.186091  0  1.025102  0  0  0.189327  0  1.024777  0  0  0.08777  0.183773  0  1.025364  0
H  H32  1  0.52768604  0.98784038  0.72276152  1  0  0.164197  0  0.96142  0  0  0.184756  0  1.009292  0  0  0.187454  0  1.009918  0  0  0.092901  0.182741  0  1.009041  0
H  H33  1  0.01215499  0.47230695  0.27722749  1  0  0.164192  0  0.961472  0  0  0.184733  0  1.009355  0  0  0.187433  0  1.009981  0  0  0.092893  0.182718  0  1.009106  0
H  H34  1  0.05469741  0.01509466  0.77734885  1  0  0.164287  0  0.96145  0  0  0.184781  0  1.009462  0  0  0.187441  0  1.010149  0  0  0.092881  0.182791  0  1.009174  0
H  H35  1  0.98490766  0.94529350  0.22267051  1  0  0.164176  0  0.961703  0  0  0.184699  0  1.009665  0  0  0.187357  0  1.010354  0  0  0.09284  0.182709  0  1.009373  0
C  C36  1  0.83635884  0.46014182  0.92431150  1  0  0.108138  0  3.826036  0  0  0.110794  0  4.11405  0  0  0.12936  0  4.12663  0  0  0.025265  0.098413  0  4.105392  0
C  C37  1  0.53985652  0.16364212  0.07568150  1  0  0.108107  0  3.826382  0  0  0.11071  0  4.114297  0  0  0.129268  0  4.126888  0  0  0.025224  0.098339  0  4.105624  0
C  C38  1  0.16187802  0.28544726  0.57510850  1  0  0.108096  0  3.824014  0  0  0.110572  0  4.112504  0  0  0.129146  0  4.125119  0  0  0.025495  0.098183  0  4.103821  0
C  C39  1  0.71456515  0.83810647  0.42489979  1  0  0.108273  0  3.824537  0  0  0.110792  0  4.112891  0  0  0.129378  0  4.125477  0  0  0.025528  0.098397  0  4.104233  0
C  C40  1  0.88440330  0.36704324  0.87433515  1  0  0.086401  0  3.835367  0  0  0.084616  0  4.085744  0  0  0.078838  0  4.111934  0  0  0.065259  0.087966  0  4.068689  0
C  C41  1  0.63294397  0.11559967  0.12565582  1  0  0.086108  0  3.835844  0  0  0.084601  0  4.085871  0  0  0.078837  0  4.112052  0  0  0.065232  0.087955  0  4.068813  0
C  C42  1  0.25980619  0.24226325  0.62506628  1  0  0.084966  0  3.834427  0  0  0.083411  0  4.084746  0  0  0.077584  0  4.110987  0  0  0.064388  0.086818  0  4.067629  0
C  C43  1  0.75773639  0.74019519  0.37495410  1  0  0.084903  0  3.834717  0  0  0.083324  0  4.085065  0  0  0.077495  0  4.111298  0  0  0.064501  0.086729  0  4.067954  0
C  C44  1  0.88596325  0.18044444  0.76490141  1  0  0.233748  0  3.702155  0  0  0.174055  0  3.968897  0  0  0.1891  0  3.981483  0  0  0.141634  0.164346  0  3.959972  0
C  C45  1  0.81955508  0.11403147  0.23510765  1  0  0.233533  0  3.702097  0  0  0.173955  0  3.968915  0  0  0.189003  0  3.9815  0  0  0.141508  0.164238  0  3.959993  0
C  C46  1  0.37098975  0.16543437  0.73499657  1  0  0.232901  0  3.700924  0  0  0.173209  0  3.968  0  0  0.188298  0  3.980564  0  0  0.14148  0.163485  0  3.959053  0
C  C47  1  0.83455691  0.62898942  0.26499242  1  0  0.232814  0  3.701115  0  0  0.173123  0  3.968141  0  0  0.188191  0  3.980729  0  0  0.141369  0.163405  0  3.959192  0
C  C48  1  0.00143091  0.38122037  0.89921565  1  0  0.022874  0  3.653648  0  0  -0.02313  0  3.914639  0  0  -0.014591  0  3.929535  0  0  0.022291  -0.028501  0  3.904641  0
C  C49  1  0.61877511  0.99857767  0.10078226  1  0  0.023117  0  3.653845  0  0  -0.022961  0  3.914758  0  0  -0.014424  0  3.929646  0  0  0.022374  -0.02834  0  3.904762  0
C  C50  1  0.35198611  0.23163474  0.60021526  1  0  0.022504  0  3.654304  0  0  -0.023406  0  3.915077  0  0  -0.014807  0  3.92995  0  0  0.022145  -0.028817  0  3.905093  0
C  C51  1  0.76838891  0.64800339  0.39978239  1  0  0.022709  0  3.654835  0  0  -0.023333  0  3.91561  0  0  -0.014694  0  3.930513  0  0  0.022195  -0.028734  0  3.905618  0
C  C52  1  0.53315225  0.11224960  0.47927606  1  0  -0.669811  0  3.520937  0  0  -0.708575  0  3.751235  0  0  -0.722177  0  3.758572  0  0  -0.325637  -0.698825  0  3.746414  0
C  C53  1  0.88775646  0.46684517  0.52071614  1  0  -0.669727  0  3.520698  0  0  -0.708454  0  3.751083  0  0  -0.722059  0  3.758418  0  0  -0.325594  -0.69872  0  3.746284  0
C  C54  1  0.30349401  0.38254496  0.02029396  1  0  -0.668206  0  3.521508  0  0  -0.706569  0  3.752511  0  0  -0.72023  0  3.759803  0  0  -0.324702  -0.696833  0  3.747648  0
C  C55  1  0.61745204  0.69650837  0.97970560  1  0  -0.668136  0  3.521222  0  0  -0.706447  0  3.75224  0  0  -0.720122  0  3.759574  0  0  -0.324656  -0.696709  0  3.747371  0
C  C56  1  0.61757791  0.06942910  0.79511314  1  0  -0.666674  0  3.504019  0  0  -0.70455  0  3.733911  0  0  -0.717888  0  3.741403  0  0  -0.325719  -0.695025  0  3.72872  0
C  C57  1  0.93057060  0.38241386  0.20487715  1  0  -0.666668  0  3.504155  0  0  -0.704512  0  3.734036  0  0  -0.717851  0  3.741527  0  0  -0.325672  -0.69498  0  3.728844  0
C  C58  1  0.07239624  0.02426990  0.70498402  1  0  -0.666998  0  3.502477  0  0  -0.705017  0  3.732816  0  0  -0.718297  0  3.740288  0  0  -0.326157  -0.695528  0  3.727651  0
C  C59  1  0.97573219  0.92760462  0.29503359  1  0  -0.666865  0  3.502677  0  0  -0.704871  0  3.732952  0  0  -0.718155  0  3.740456  0  0  -0.326095  -0.695361  0  3.727751  0
S  S60  1  0.68501162  0.40489917  0.87565545  1  0  -0.308009  0  2.152216  0  0  -0.274203  0  2.474577  0  0  -0.289496  0  2.473463  0  0  -0.080402  -0.263063  0  2.475086  0
S  S61  1  0.59509661  0.31498851  0.12433897  1  0  -0.307907  0  2.152034  0  0  -0.274106  0  2.474361  0  0  -0.289403  0  2.473256  0  0  -0.080362  -0.262969  0  2.474867  0
S  S62  1  0.05916463  0.27893763  0.62390042  1  0  -0.308134  0  2.151617  0  0  -0.274324  0  2.474471  0  0  -0.289611  0  2.473339  0  0  -0.080406  -0.26317  0  2.474962  0
S  S63  1  0.72105888  0.94081852  0.37611241  1  0  -0.308188  0  2.151563  0  0  -0.274383  0  2.474386  0  0  -0.289667  0  2.473227  0  0  -0.080407  -0.263224  0  2.474883  0
S  S64  1  0.92090324  0.61447460  0.02751007  1  0  -0.340602  0  1.820173  0  0  -0.324726  0  2.064572  0  0  -0.338076  0  2.064332  0  0  -0.17985  -0.315452  0  2.065032  0
S  S65  1  0.38552439  0.07910765  0.97249031  1  0  -0.340582  0  1.820327  0  0  -0.324728  0  2.064737  0  0  -0.338065  0  2.064498  0  0  -0.17986  -0.315451  0  2.06519  0
S  S66  1  0.14330351  0.33676673  0.47193974  1  0  -0.340476  0  1.819981  0  0  -0.324557  0  2.064373  0  0  -0.337914  0  2.064149  0  0  -0.179919  -0.315286  0  2.064833  0
S  S67  1  0.66326515  0.85668448  0.52808330  1  0  -0.340531  0  1.820041  0  0  -0.324634  0  2.064391  0  0  -0.337987  0  2.064148  0  0  -0.179994  -0.315352  0  2.064854  0
N  N68  1  0.81328209  0.23840890  0.78879909  1  0  -0.418408  0  3.262364  0  0  -0.331458  0  3.507845  0  0  -0.35104  0  3.530624  0  0  -0.324671  -0.318104  0  3.492353  0
N  N69  1  0.76158380  0.18671689  0.21119793  1  0  -0.418314  0  3.262176  0  0  -0.331511  0  3.507621  0  0  -0.351103  0  3.530402  0  0  -0.324632  -0.318153  0  3.492128  0
N  N70  1  0.27427713  0.19930247  0.71088795  1  0  -0.418163  0  3.258966  0  0  -0.331135  0  3.504297  0  0  -0.350748  0  3.527113  0  0  -0.324577  -0.317763  0  3.488763  0
N  N71  1  0.80068179  0.72572154  0.28911268  1  0  -0.418434  0  3.25864  0  0  -0.331422  0  3.503999  0  0  -0.351036  0  3.526823  0  0  -0.324597  -0.318044  0  3.488462  0
N  N72  1  0.00147421  0.26397386  0.83065576  1  0  -0.394462  0  3.25411  0  0  -0.306584  0  3.510487  0  0  -0.327433  0  3.529485  0  0  -0.325457  -0.292617  0  3.497391  0
N  N73  1  0.73601484  0.99853095  0.16934257  1  0  -0.394234  0  3.2543  0  0  -0.306522  0  3.510842  0  0  -0.327365  0  3.529836  0  0  -0.325401  -0.292551  0  3.497749  0
N  N74  1  0.42075385  0.18316306  0.66913213  1  0  -0.393049  0  3.251589  0  0  -0.305253  0  3.507864  0  0  -0.326094  0  3.526872  0  0  -0.324972  -0.291284  0  3.494755  0
N  N75  1  0.81684588  0.57925655  0.33086798  1  0  -0.392895  0  3.252973  0  0  -0.304962  0  3.509073  0  0  -0.325788  0  3.528068  0  0  -0.32494  -0.290996  0  3.495956  0
