# generated using pymatgen
data_CdH22(C13O3)2
_symmetry_space_group_name_H-M   'P 1'
_cell_length_a   6.67353030
_cell_length_b   7.40309481
_cell_length_c   23.03880000
_cell_angle_alpha   90.10908742
_cell_angle_beta   98.15574221
_cell_angle_gamma   90.00033467
_symmetry_Int_Tables_number   1
_chemical_formula_structural   CdH22(C13O3)2
_chemical_formula_sum   'Cd2 H44 C52 O12'
_cell_volume   1126.71279967
_cell_formula_units_Z   2
loop_
 _symmetry_equiv_pos_site_id
 _symmetry_equiv_pos_as_xyz
  1  'x, y, z'
loop_
 _atom_site_type_symbol
 _atom_site_label
 _atom_site_symmetry_multiplicity
 _atom_site_fract_x
 _atom_site_fract_y
 _atom_site_fract_z
 _atom_site_occupancy
 _atom_site_hle17_bader_spin_density
 _atom_site_hle17_ddec_charge
 _atom_site_hle17_ddec_spin_density
 _atom_site_hle17_ddec_sum_bond_order
 _atom_site_hle17_magmom
 _atom_site_hse06_10hf_bader_spin_density
 _atom_site_hse06_10hf_ddec_charge
 _atom_site_hse06_10hf_ddec_spin_density
 _atom_site_hse06_10hf_ddec_sum_bond_order
 _atom_site_hse06_10hf_magmom
 _atom_site_hse06_bader_spin_density
 _atom_site_hse06_ddec_charge
 _atom_site_hse06_ddec_spin_density
 _atom_site_hse06_ddec_sum_bond_order
 _atom_site_hse06_magmom
 _atom_site_pbe_bader_charge
 _atom_site_pbe_bader_spin_density
 _atom_site_pbe_cm5_charge
 _atom_site_pbe_ddec_charge
 _atom_site_pbe_ddec_spin_density
 _atom_site_pbe_ddec_sum_bond_order
 _atom_site_pbe_magmom
Cd  Cd0  1  0.50000493  0.00000405  0.50000012  1  0  1.279345  0  1.624451  0  0  1.110827  0  2.074747  0  0  1.163827  0  2.015313  0  1.344862  0  0.782559  1.072843  0  2.115918  0
Cd  Cd1  1  0.99999651  0.50000128  0.50000044  1  0  1.279071  0  1.620684  0  0  1.110233  0  2.07033  0  0  1.163395  0  2.010802  0  1.345195  0  0.781553  1.072171  0  2.11152  0
H  H2  1  0.28183709  0.81680586  0.36770614  1  0  0.112448  0  0.953471  0  0  0.121864  0  1.014031  0  0  0.125472  0  1.011025  0  0.112971  0  0.105676  0.119223  0  1.016268  0
H  H3  1  0.91442940  0.68449878  0.63247961  1  0  0.111837  0  0.95331  0  0  0.121078  0  1.013919  0  0  0.124556  0  1.011094  0  0.139526  0  0.105589  0.118513  0  1.016075  0
H  H4  1  0.71815061  0.18319129  0.63229340  1  0  0.112303  0  0.953593  0  0  0.121809  0  1.014073  0  0  0.125419  0  1.011068  0  0.11265  0  0.105633  0.11917  0  1.016308  0
H  H5  1  0.08556284  0.31551458  0.36751665  1  0  0.111817  0  0.953369  0  0  0.121033  0  1.014013  0  0  0.124514  0  1.011184  0  0.13958  0  0.105536  0.118468  0  1.016172  0
H  H6  1  0.87466148  0.73862084  0.31907844  1  0  0.099948  0  0.949642  0  0  0.110795  0  1.009988  0  0  0.113727  0  1.008342  0  0.122738  0  0.104362  0.108669  0  1.011174  0
H  H7  1  0.55569475  0.76026183  0.67990920  1  0  0.099269  0  0.950203  0  0  0.109847  0  1.010794  0  0  0.112786  0  1.009125  0  0.091009  0  0.104452  0.107737  0  1.012001  0
H  H8  1  0.12533227  0.26136820  0.68092698  1  0  0.099944  0  0.949583  0  0  0.110819  0  1.009905  0  0  0.113773  0  1.008228  0  0.122718  0  0.104369  0.108693  0  1.011092  0
H  H9  1  0.44430354  0.23972451  0.32008816  1  0  0.099214  0  0.950256  0  0  0.109848  0  1.010796  0  0  0.112789  0  1.009125  0  0.09097  0  0.104419  0.107735  0  1.01201  0
H  H10  1  0.17821379  0.08069343  0.01113898  1  0  0.083704  0  0.960055  0  0  0.095898  0  1.020183  0  0  0.098482  0  1.019582  0  0.073566  0  0.097477  0.094054  0  1.020647  0
H  H11  1  0.16691900  0.41805702  0.98860534  1  0  0.085157  0  0.958612  0  0  0.096748  0  1.019321  0  0  0.099212  0  1.018839  0  0.073899  0  0.097914  0.094978  0  1.019706  0
H  H12  1  0.82178602  0.91929967  0.98886322  1  0  0.083658  0  0.960152  0  0  0.095866  0  1.020256  0  0  0.098435  0  1.019664  0  0.073439  0  0.097437  0.094022  0  1.020722  0
H  H13  1  0.83306870  0.58194959  0.01138986  1  0  0.085207  0  0.958526  0  0  0.096811  0  1.019213  0  0  0.099273  0  1.01874  0  0.073837  0  0.097902  0.09504  0  1.019601  0
H  H14  1  0.14953694  0.89948630  0.26585804  1  0  0.087785  0  0.962434  0  0  0.100417  0  1.022626  0  0  0.103156  0  1.022052  0  0.059757  0  0.099098  0.098499  0  1.023046  0
H  H15  1  0.88393013  0.60248698  0.73455955  1  0  0.089063  0  0.961101  0  0  0.100978  0  1.021988  0  0  0.103697  0  1.021411  0  0.065298  0  0.099408  0.099061  0  1.022425  0
H  H16  1  0.85045984  0.10052031  0.73414144  1  0  0.087846  0  0.962524  0  0  0.100503  0  1.022672  0  0  0.103221  0  1.022122  0  0.059784  0  0.09915  0.098583  0  1.023094  0
H  H17  1  0.11606060  0.39752908  0.26543752  1  0  0.089  0  0.961207  0  0  0.100881  0  1.022123  0  0  0.103632  0  1.021507  0  0.065337  0  0.099398  0.098965  0  1.022558  0
H  H18  1  0.12289090  0.09766339  0.19497334  1  0  0.087815  0  0.966905  0  0  0.096756  0  1.033289  0  0  0.099285  0  1.032787  0  0.056083  0  0.097605  0.094967  0  1.033673  0
H  H19  1  0.92800783  0.40324427  0.80500296  1  0  0.088327  0  0.966238  0  0  0.0979  0  1.031659  0  0  0.100572  0  1.030983  0  0.052922  0  0.097893  0.095999  0  1.032199  0
H  H20  1  0.87712405  0.90232971  0.80503122  1  0  0.087747  0  0.966951  0  0  0.096695  0  1.033339  0  0  0.099231  0  1.032813  0  0.056106  0  0.097614  0.094909  0  1.033718  0
H  H21  1  0.07199198  0.59675829  0.19499187  1  0  0.08829  0  0.966247  0  0  0.097907  0  1.031612  0  0  0.100581  0  1.030933  0  0.053067  0  0.097903  0.096006  0  1.032152  0
H  H22  1  0.74658665  0.83223592  0.21728219  1  0  0.086834  0  0.965734  0  0  0.098608  0  1.027376  0  0  0.101428  0  1.026587  0  0.045056  0  0.098103  0.096581  0  1.028075  0
H  H23  1  0.52932171  0.66760717  0.78196945  1  0  0.086405  0  0.963106  0  0  0.097951  0  1.025267  0  0  0.100767  0  1.024477  0  0.0618  0  0.097774  0.095915  0  1.025964  0
H  H24  1  0.25342073  0.16775583  0.78272163  1  0  0.08677  0  0.965781  0  0  0.098628  0  1.027335  0  0  0.10145  0  1.026537  0  0.044978  0  0.098074  0.096611  0  1.028009  0
H  H25  1  0.47066295  0.33237242  0.21802604  1  0  0.086403  0  0.963012  0  0  0.097921  0  1.025195  0  0  0.100734  0  1.02441  0  0.061644  0  0.097746  0.095887  0  1.025892  0
H  H26  1  0.58462691  0.76842060  0.13349689  1  0  0.089478  0  0.985099  0  0  0.098142  0  1.050776  0  0  0.100022  0  1.051867  0  0.088246  0  0.096359  0.096792  0  1.050099  0
H  H27  1  0.45094527  0.73178990  0.86604470  1  0  0.088398  0  0.984774  0  0  0.09729  0  1.050379  0  0  0.099241  0  1.051421  0  0.093417  0  0.096236  0.095882  0  1.049751  0
H  H28  1  0.41539713  0.23159141  0.86650588  1  0  0.089472  0  0.985087  0  0  0.098168  0  1.050738  0  0  0.100053  0  1.051812  0  0.088324  0  0.096387  0.096818  0  1.050061  0
H  H29  1  0.54905303  0.26820590  0.13394919  1  0  0.088334  0  0.984708  0  0  0.097243  0  1.050312  0  0  0.099194  0  1.051353  0  0.09339  0  0.096221  0.095835  0  1.049683  0
H  H30  1  0.47069752  0.86945015  0.03260982  1  0  0.080348  0  0.970978  0  0  0.091326  0  1.034305  0  0  0.093521  0  1.033964  0  0.059151  0  0.095951  0.089727  0  1.03464  0
H  H31  1  0.43771937  0.62968647  0.96695315  1  0  0.080013  0  0.971663  0  0  0.090979  0  1.034832  0  0  0.093155  0  1.034482  0  0.067744  0  0.095831  0.089427  0  1.035131  0
H  H32  1  0.52930834  0.13054835  0.96739306  1  0  0.080302  0  0.971087  0  0  0.091296  0  1.034394  0  0  0.093505  0  1.034037  0  0.059158  0  0.095927  0.089681  0  1.034746  0
H  H33  1  0.56228498  0.37030393  0.03304143  1  0  0.079982  0  0.971697  0  0  0.090913  0  1.034894  0  0  0.093087  0  1.034548  0  0.067689  0  0.095838  0.089364  0  1.035185  0
H  H34  1  0.00511787  0.19326818  0.09352785  1  0  0.084276  0  0.990361  0  0  0.09353  0  1.053204  0  0  0.094939  0  1.055161  0  0.106307  0  0.093404  0.092484  0  1.051962  0
H  H35  1  0.91151085  0.30648996  0.90645564  1  0  0.085303  0  0.990003  0  0  0.095275  0  1.051988  0  0  0.096687  0  1.053951  0  0.112932  0  0.094183  0.094215  0  1.05077  0
H  H36  1  0.99488799  0.80673302  0.90647634  1  0  0.084287  0  0.99048  0  0  0.093612  0  1.053246  0  0  0.095022  0  1.055203  0  0.106484  0  0.093413  0.092564  0  1.052007  0
H  H37  1  0.08848443  0.69351665  0.09353857  1  0  0.085274  0  0.989918  0  0  0.095294  0  1.051878  0  0  0.096698  0  1.053849  0  0.112889  0  0.094172  0.09423  0  1.050667  0
H  H38  1  0.91321392  0.92699376  0.55244320  1  0  0.429812  0  0.870391  0  0  0.400568  0  0.929945  0  0  0.411077  0  0.914874  0  0.642108  0  0.29371  0.393127  0  0.940604  0
H  H39  1  0.36032212  0.57203750  0.44745485  1  0  0.430211  0  0.869679  0  0  0.400424  0  0.930347  0  0  0.410995  0  0.915192  0  0.649026  0  0.293722  0.392945  0  0.941047  0
H  H40  1  0.08679952  0.07300339  0.44755609  1  0  0.429827  0  0.870365  0  0  0.400582  0  0.929924  0  0  0.411087  0  0.914857  0  0.642141  0  0.293702  0.393146  0  0.940575  0
H  H41  1  0.63967769  0.42796235  0.55254953  1  0  0.430138  0  0.869709  0  0  0.400332  0  0.930419  0  0  0.410904  0  0.915263  0  0.649091  0  0.293683  0.39285  0  0.941121  0
H  H42  1  0.87372827  0.11118479  0.51734496  1  0  0.40372  0  0.90828  0  0  0.369267  0  0.98205  0  0  0.380734  0  0.965234  0  0.63124  0  0.285161  0.361155  0  0.993917  0
H  H43  1  0.35659538  0.38841395  0.48293949  1  0  0.402219  0  0.911657  0  0  0.368205  0  0.984016  0  0  0.379712  0  0.967099  0  0.623843  0  0.284664  0.360045  0  0.995981  0
H  H44  1  0.12628366  0.88881776  0.48265340  1  0  0.403764  0  0.908279  0  0  0.369323  0  0.98198  0  0  0.380789  0  0.965165  0  0.630912  0  0.285229  0.361213  0  0.993844  0
H  H45  1  0.64340746  0.61159265  0.51706458  1  0  0.4023  0  0.911526  0  0  0.368289  0  0.983886  0  0  0.379795  0  0.966971  0  0.623494  0  0.284744  0.360133  0  0.995844  0
C  C46  1  0.38257803  0.81593325  0.33436772  1  0  -0.045976  0  3.705448  0  0  -0.071401  0  3.955226  0  0  -0.069347  0  3.974494  0  -0.132357  0  -0.079708  -0.072502  0  3.942106  0
C  C47  1  0.04837142  0.68482297  0.66562137  1  0  -0.044984  0  3.708026  0  0  -0.070486  0  3.957384  0  0  -0.068313  0  3.976699  0  -0.052945  0  -0.079153  -0.071672  0  3.944227  0
C  C48  1  0.61740816  0.18406525  0.66563306  1  0  -0.045758  0  3.705665  0  0  -0.071296  0  3.955429  0  0  -0.069241  0  3.974687  0  -0.132052  0  -0.079647  -0.072394  0  3.942303  0
C  C49  1  0.95162840  0.31519174  0.33437390  1  0  -0.045116  0  3.708495  0  0  -0.070601  0  3.957843  0  0  -0.068436  0  3.977174  0  -0.053253  0  -0.07925  -0.071789  0  3.944689  0
C  C50  1  0.67077230  0.71487397  0.41072237  1  0  0.670099  0  3.857859  0  0  0.613014  0  4.155232  0  0  0.648581  0  4.147317  0  1.527908  0  0.216456  0.588805  0  4.159878  0
C  C51  1  0.26058891  0.78474083  0.58887528  1  0  0.670607  0  3.86304  0  0  0.61329  0  4.15995  0  0  0.648974  0  4.151931  0  1.5165  0  0.216938  0.589004  0  4.164652  0
C  C52  1  0.32922448  0.28512183  0.58927885  1  0  0.67011  0  3.857819  0  0  0.61308  0  4.15508  0  0  0.648649  0  4.147159  0  1.528451  0  0.216546  0.588875  0  4.15972  0
C  C53  1  0.73940939  0.21526578  0.41112253  1  0  0.670645  0  3.86269  0  0  0.613273  0  4.159704  0  0  0.648954  0  4.151685  0  1.516452  0  0.216876  0.588989  0  4.164407  0
C  C54  1  0.36357678  0.92596716  0.17238323  1  0  0.044922  0  3.775371  0  0  0.06033  0  4.005598  0  0  0.060219  0  4.028574  0  -0.046354  0  -0.007703  0.060381  0  3.989911  0
C  C55  1  0.19111404  0.57472017  0.82741485  1  0  0.043656  0  3.776889  0  0  0.060193  0  4.005916  0  0  0.06007  0  4.028965  0  -0.04182  0  -0.007449  0.060218  0  3.990231  0
C  C56  1  0.63643060  0.07403134  0.82761842  1  0  0.044811  0  3.775367  0  0  0.06029  0  4.005613  0  0  0.060179  0  4.028591  0  -0.046316  0  -0.007739  0.060338  0  3.989933  0
C  C57  1  0.80887669  0.42528644  0.17258221  1  0  0.043508  0  3.777289  0  0  0.060264  0  4.006046  0  0  0.06012  0  4.02912  0  -0.041941  0  -0.007417  0.060296  0  3.990352  0
C  C58  1  0.43759010  0.87003099  0.23331186  1  0  0.06162  0  3.773247  0  0  0.075361  0  4.003525  0  0  0.077524  0  4.027234  0  -0.008787  0  -0.00272  0.074054  0  3.987368  0
C  C59  1  0.20435735  0.63079682  0.76646238  1  0  0.062538  0  3.772839  0  0  0.075555  0  4.003108  0  0  0.077731  0  4.026775  0  -0.060874  0  -0.002759  0.074253  0  3.986971  0
C  C60  1  0.56240820  0.12996481  0.76669114  1  0  0.061747  0  3.772828  0  0  0.075316  0  4.003346  0  0  0.077476  0  4.027057  0  -0.008752  0  -0.00268  0.07401  0  3.987188  0
C  C61  1  0.79563339  0.36921384  0.23353468  1  0  0.062554  0  3.772875  0  0  0.07544  0  4.003185  0  0  0.077621  0  4.026865  0  -0.060906  0  -0.002826  0.074136  0  3.987047  0
C  C62  1  0.58712795  0.76937560  0.34978426  1  0  -0.080913  0  3.749774  0  0  -0.060466  0  3.991291  0  0  -0.070905  0  4.016156  0  0.028907  0  -0.024125  -0.053675  0  3.974515  0
C  C63  1  0.23755967  0.73048774  0.64985731  1  0  -0.080703  0  3.755131  0  0  -0.059148  0  3.995108  0  0  -0.069722  0  4.02007  0  0.002878  0  -0.023136  -0.052266  0  3.978269  0
C  C64  1  0.41286883  0.23061749  0.65022043  1  0  -0.080941  0  3.750154  0  0  -0.060435  0  3.991546  0  0  -0.070876  0  4.016415  0  0.029045  0  -0.024079  -0.053646  0  3.974767  0
C  C65  1  0.76244166  0.26952156  0.35014236  1  0  -0.080634  0  3.755014  0  0  -0.059083  0  3.995051  0  0  -0.069656  0  4.020015  0  0.003044  0  -0.02306  -0.052201  0  3.978214  0
C  C66  1  0.71615707  0.77465449  0.30675297  1  0  -0.047941  0  3.72952  0  0  -0.073825  0  3.979938  0  0  -0.07208  0  4.000779  0  -0.017261  0  -0.078994  -0.07469  0  3.96567  0
C  C67  1  0.40960970  0.72491439  0.69258555  1  0  -0.046079  0  3.730527  0  0  -0.07215  0  3.98059  0  0  -0.070366  0  4.001439  0  -0.002508  0  -0.079181  -0.073082  0  3.966339  0
C  C68  1  0.28384728  0.22533726  0.69324985  1  0  -0.04802  0  3.7299  0  0  -0.073944  0  3.980287  0  0  -0.072211  0  4.001128  0  -0.017443  0  -0.07911  -0.074811  0  3.966019  0
C  C69  1  0.59038557  0.27508411  0.30741517  1  0  -0.045949  0  3.730325  0  0  -0.072066  0  3.980347  0  0  -0.070281  0  4.001192  0  -0.002459  0  -0.079133  -0.072998  0  3.966096  0
C  C70  1  0.23025599  0.03833404  0.05609372  1  0  -0.086865  0  3.786528  0  0  -0.099936  0  4.032439  0  0  -0.102293  0  4.053474  0  -0.06998  0  -0.09745  -0.098215  0  4.018027  0
C  C71  1  0.17399719  0.46107289  0.94366800  1  0  -0.089244  0  3.786081  0  0  -0.101952  0  4.032477  0  0  -0.104193  0  4.05342  0  -0.083116  0  -0.09829  -0.100302  0  4.018114  0
C  C72  1  0.76974988  0.96166176  0.94391177  1  0  -0.08673  0  3.786456  0  0  -0.099809  0  4.032373  0  0  -0.102148  0  4.053414  0  -0.070593  0  -0.097349  -0.098089  0  4.017957  0
C  C73  1  0.82599505  0.53892426  0.05632869  1  0  -0.089387  0  3.785984  0  0  -0.102107  0  4.032378  0  0  -0.10435  0  4.053317  0  -0.083177  0  -0.098306  -0.100456  0  4.018015  0
C  C74  1  0.30926627  0.86437524  0.27688625  1  0  -0.128053  0  3.738013  0  0  -0.144898  0  3.9871  0  0  -0.150339  0  4.008643  0  -0.04472  0  -0.091614  -0.141295  0  3.972445  0
C  C75  1  0.03254665  0.63688212  0.72320433  1  0  -0.1305  0  3.737176  0  0  -0.146828  0  3.986757  0  0  -0.152226  0  4.008165  0  -0.082857  0  -0.09253  -0.143243  0  3.972179  0
C  C76  1  0.69074111  0.13561786  0.72311583  1  0  -0.128145  0  3.737862  0  0  -0.144964  0  3.987047  0  0  -0.150388  0  4.008597  0  -0.044696  0  -0.091673  -0.141363  0  3.972394  0
C  C77  1  0.96743500  0.36312854  0.27679279  1  0  -0.13028  0  3.737626  0  0  -0.146548  0  3.987201  0  0  -0.151968  0  4.008601  0  -0.082663  0  -0.092362  -0.142962  0  3.972618  0
C  C78  1  0.19860366  0.04494075  0.15952865  1  0  -0.116591  0  3.730677  0  0  -0.134983  0  3.977445  0  0  -0.137485  0  3.997488  0  -0.08166  0  -0.090927  -0.133162  0  3.963768  0
C  C79  1  0.03897956  0.45564947  0.84037041  1  0  -0.117092  0  3.730978  0  0  -0.136089  0  3.977378  0  0  -0.138702  0  3.997451  0  -0.017248  0  -0.091292  -0.134189  0  3.963694  0
C  C80  1  0.80140674  0.95505100  0.84047529  1  0  -0.116474  0  3.730534  0  0  -0.134885  0  3.97731  0  0  -0.137382  0  3.997359  0  -0.081599  0  -0.090989  -0.133064  0  3.963634  0
C  C81  1  0.96100966  0.54434633  0.15962659  1  0  -0.116954  0  3.731311  0  0  -0.136046  0  3.977655  0  0  -0.138652  0  3.997731  0  -0.017243  0  -0.091261  -0.134146  0  3.963964  0
C  C82  1  0.64273236  0.82493896  0.24968468  1  0  -0.116214  0  3.738806  0  0  -0.134276  0  3.987394  0  0  -0.139569  0  4.009505  0  -0.019249  0  -0.09075  -0.130826  0  3.972421  0
C  C83  1  0.39316373  0.67517564  0.74975775  1  0  -0.115039  0  3.736104  0  0  -0.132706  0  3.984902  0  0  -0.138004  0  4.00701  0  -0.019402  0  -0.08945  -0.129233  0  3.969941  0
C  C84  1  0.35725685  0.17505144  0.75031622  1  0  -0.116129  0  3.738567  0  0  -0.134215  0  3.987179  0  0  -0.139511  0  4.009302  0  -0.019252  0  -0.090678  -0.130764  0  3.97221  0
C  C85  1  0.60683154  0.32482286  0.25023993  1  0  -0.11512  0  3.735957  0  0  -0.132722  0  3.984777  0  0  -0.138018  0  4.006881  0  -0.019292  0  -0.089435  -0.129251  0  3.969817  0
C  C86  1  0.45948179  0.86388085  0.12541644  1  0  -0.114154  0  3.73007  0  0  -0.129689  0  3.969508  0  0  -0.131969  0  3.990079  0  -0.092125  0  -0.089959  -0.128039  0  3.955523  0
C  C87  1  0.33388609  0.63631614  0.87424088  1  0  -0.111504  0  3.727969  0  0  -0.127483  0  3.96681  0  0  -0.129825  0  3.987369  0  -0.040582  0  -0.089457  -0.125782  0  3.952851  0
C  C88  1  0.54053315  0.13611765  0.87458595  1  0  -0.114128  0  3.730122  0  0  -0.129706  0  3.969575  0  0  -0.131987  0  3.990157  0  -0.092048  0  -0.089921  -0.128056  0  3.955587  0
C  C89  1  0.66611675  0.36368371  0.12575711  1  0  -0.111363  0  3.728023  0  0  -0.127439  0  3.966804  0  0  -0.129773  0  3.987365  0  -0.041045  0  -0.089402  -0.125741  0  3.952845  0
C  C90  1  0.39392742  0.91984809  0.06811946  1  0  -0.07848  0  3.800129  0  0  -0.089472  0  4.045478  0  0  -0.091294  0  4.06705  0  -0.01952  0  -0.096305  -0.088132  0  4.030761  0
C  C91  1  0.32558961  0.57972349  0.93152545  1  0  -0.077484  0  3.803171  0  0  -0.088271  0  4.048197  0  0  -0.090046  0  4.069698  0  -0.090122  0  -0.09597  -0.086989  0  4.033518  0
C  C92  1  0.60607996  0.08015446  0.93188436  1  0  -0.078486  0  3.800214  0  0  -0.089492  0  4.045574  0  0  -0.091324  0  4.067136  0  -0.019357  0  -0.09636  -0.088142  0  4.030871  0
C  C93  1  0.67440111  0.42026961  0.06847073  1  0  -0.077342  0  3.80331  0  0  -0.088081  0  4.048317  0  0  -0.089854  0  4.069816  0  -0.089815  0  -0.095949  -0.0868  0  4.033637  0
C  C94  1  0.13256170  0.10040819  0.10212625  1  0  -0.073417  0  3.790319  0  0  -0.083016  0  4.033961  0  0  -0.084504  0  4.055967  0  -0.087115  0  -0.094943  -0.081945  0  4.018986  0
C  C95  1  0.03031538  0.39949448  0.89777382  1  0  -0.074506  0  3.788937  0  0  -0.084883  0  4.032809  0  0  -0.086387  0  4.054793  0  -0.134132  0  -0.095776  -0.083799  0  4.017845  0
C  C96  1  0.86744719  0.89958625  0.89787980  1  0  -0.073549  0  3.790347  0  0  -0.083215  0  4.033991  0  0  -0.084706  0  4.055992  0  -0.087167  0  -0.094982  -0.082142  0  4.019017  0
C  C97  1  0.96967838  0.60050943  0.10222467  1  0  -0.074575  0  3.788685  0  0  -0.085005  0  4.032605  0  0  -0.086501  0  4.054592  0  -0.133933  0  -0.095836  -0.083919  0  4.017639  0
O  O98  1  0.55353356  0.72298546  0.45126094  1  0  -0.730493  0  2.111371  0  0  -0.6462  0  2.350631  0  0  -0.675101  0  2.335941  0  -1.217032  0  -0.334474  -0.625968  0  2.360254  0
O  O99  1  0.10343758  0.77640646  0.54844660  1  0  -0.730406  0  2.115005  0  0  -0.646053  0  2.354379  0  0  -0.674995  0  2.339666  0  -1.201421  0  -0.334243  -0.625833  0  2.364065  0
O  O100  1  0.44647231  0.27701169  0.54874368  1  0  -0.730498  0  2.111448  0  0  -0.646226  0  2.350695  0  0  -0.675138  0  2.33602  0  -1.217167  0  -0.334534  -0.625993  0  2.360316  0
O  O101  1  0.89656526  0.22360825  0.45155140  1  0  -0.73048  0  2.114774  0  0  -0.646095  0  2.354187  0  0  -0.675027  0  2.339461  0  -1.20122  0  -0.334228  -0.625876  0  2.363868  0
O  O102  1  0.82150927  0.03341041  0.54703298  1  0  -0.824231  0  1.88371  0  0  -0.759613  0  2.080636  0  0  -0.782985  0  2.04631  0  -1.237967  0  -0.585661  -0.742985  0  2.104391  0
O  O103  1  0.27460046  0.46529005  0.45309185  1  0  -0.821941  0  1.887783  0  0  -0.757264  0  2.083009  0  0  -0.780789  0  2.048759  0  -1.237298  0  -0.584403  -0.740532  0  2.106764  0
O  O104  1  0.17849660  0.96659079  0.45296688  1  0  -0.82432  0  1.883721  0  0  -0.759702  0  2.080603  0  0  -0.78307  0  2.046277  0  -1.237608  0  -0.585741  -0.743055  0  2.104305  0
O  O105  1  0.72540693  0.53471925  0.54691328  1  0  -0.82197  0  1.887666  0  0  -0.757287  0  2.082896  0  0  -0.780809  0  2.048648  0  -1.236986  0  -0.584473  -0.740545  0  2.106656  0
O  O106  1  0.85238671  0.66209730  0.42048490  1  0  -0.621293  0  2.021851  0  0  -0.555675  0  2.275237  0  0  -0.584392  0  2.265095  0  -1.153463  0  -0.310762  -0.535616  0  2.281431  0
O  O107  1  0.43249833  0.83785250  0.57907318  1  0  -0.620899  0  2.029364  0  0  -0.555336  0  2.284269  0  0  -0.584095  0  2.273904  0  -1.157995  0  -0.310808  -0.535254  0  2.290649  0
O  O108  1  0.14762068  0.33791066  0.57951502  1  0  -0.621247  0  2.021865  0  0  -0.555679  0  2.275264  0  0  -0.584403  0  2.265134  0  -1.153687  0  -0.310769  -0.535617  0  2.281454  0
O  O109  1  0.56749846  0.16215005  0.42092629  1  0  -0.620892  0  2.029117  0  0  -0.555332  0  2.28408  0  0  -0.584093  0  2.273718  0  -1.157979  0  -0.310815  -0.535242  0  2.290441  0
