# generated using pymatgen
data_NiH14C20N2O5
_symmetry_space_group_name_H-M   'P 1'
_cell_length_a   7.95170929
_cell_length_b   10.47684756
_cell_length_c   11.18408950
_cell_angle_alpha   112.38821019
_cell_angle_beta   92.85511097
_cell_angle_gamma   89.28676719
_symmetry_Int_Tables_number   1
_chemical_formula_structural   NiH14C20N2O5
_chemical_formula_sum   'Ni2 H28 C40 N4 O10'
_cell_volume   860.41277192
_cell_formula_units_Z   2
loop_
 _symmetry_equiv_pos_site_id
 _symmetry_equiv_pos_as_xyz
  1  'x, y, z'
loop_
 _atom_site_type_symbol
 _atom_site_label
 _atom_site_symmetry_multiplicity
 _atom_site_fract_x
 _atom_site_fract_y
 _atom_site_fract_z
 _atom_site_occupancy
 _atom_site_hle17_bader_spin_density
 _atom_site_hle17_ddec_charge
 _atom_site_hle17_ddec_spin_density
 _atom_site_hle17_ddec_sum_bond_order
 _atom_site_hle17_magmom
 _atom_site_hse06_10hf_bader_spin_density
 _atom_site_hse06_10hf_ddec_charge
 _atom_site_hse06_10hf_ddec_spin_density
 _atom_site_hse06_10hf_ddec_sum_bond_order
 _atom_site_hse06_10hf_magmom
 _atom_site_hse06_bader_spin_density
 _atom_site_hse06_ddec_charge
 _atom_site_hse06_ddec_spin_density
 _atom_site_hse06_ddec_sum_bond_order
 _atom_site_hse06_magmom
 _atom_site_pbe_bader_spin_density
 _atom_site_pbe_cm5_charge
 _atom_site_pbe_ddec_charge
 _atom_site_pbe_ddec_spin_density
 _atom_site_pbe_ddec_sum_bond_order
 _atom_site_pbe_magmom
Ni  Ni0  1  0.24990197  0.77309080  0.99554524  1  0  0.650542  0  2.323618  0  0  0.61605  0  2.795526  0  0  0.681069  0  2.719244  0  0  0.63677  0.586553  0  2.838869  0
Ni  Ni1  1  0.75014035  0.22690419  0.00449790  1  0  0.650451  0  2.323286  0  0  0.616192  0  2.795186  0  0  0.681181  0  2.718892  0  0  0.636708  0.586643  0  2.838524  0
H  H2  1  0.14417252  0.46916758  0.88420739  1  0  0.099004  0  0.927618  0  0  0.107137  0  0.987988  0  0  0.109883  0  0.984933  0  0  0.127465  0.104975  0  0.99037  0
H  H3  1  0.85582406  0.53084624  0.11579287  1  0  0.09893  0  0.927655  0  0  0.107134  0  0.987984  0  0  0.10986  0  0.98494  0  0  0.127503  0.104972  0  0.990362  0
H  H4  1  0.19618328  0.28138190  0.96552976  1  0  0.138714  0  0.965968  0  0  0.147838  0  1.02024  0  0  0.151927  0  1.018708  0  0  0.113695  0.144343  0  1.022585  0
H  H5  1  0.80381727  0.71861436  0.03445433  1  0  0.13884  0  0.966006  0  0  0.147922  0  1.020283  0  0  0.152024  0  1.018748  0  0  0.113674  0.144425  0  1.022637  0
H  H6  1  0.38601609  0.32685453  0.16674176  1  0  0.117528  0  0.927918  0  0  0.128499  0  0.986987  0  0  0.132529  0  0.981474  0  0  0.116935  0.125719  0  0.990802  0
H  H7  1  0.61398676  0.67313737  0.83325064  1  0  0.117529  0  0.927949  0  0  0.128478  0  0.987044  0  0  0.132507  0  0.98153  0  0  0.11695  0.125709  0  0.990854  0
H  H8  1  0.65944308  0.75050707  0.46484843  1  0  0.105087  0  0.943746  0  0  0.117663  0  1.000292  0  0  0.120156  0  1.000542  0  0  0.108135  0.115656  0  1.000514  0
H  H9  1  0.34055892  0.24949089  0.53515690  1  0  0.105111  0  0.943795  0  0  0.117712  0  1.000298  0  0  0.120201  0  1.000549  0  0  0.10816  0.115707  0  1.000522  0
H  H10  1  0.54943635  0.51091307  0.35997556  1  0  0.108191  0  0.974507  0  0  0.118963  0  1.033671  0  0  0.121888  0  1.03291  0  0  0.107432  0.116925  0  1.034119  0
H  H11  1  0.45055438  0.48908633  0.64002902  1  0  0.108227  0  0.974582  0  0  0.118924  0  1.033829  0  0  0.121848  0  1.033068  0  0  0.107429  0.11689  0  1.034276  0
H  H12  1  0.68290957  0.99652857  0.45848231  1  0  0.099404  0  0.963223  0  0  0.10838  0  1.02683  0  0  0.110121  0  1.026928  0  0  0.10639  0.107007  0  1.026848  0
H  H13  1  0.31709940  0.00348043  0.54153358  1  0  0.099436  0  0.963268  0  0  0.108351  0  1.026922  0  0  0.110116  0  1.026996  0  0  0.1064  0.106978  0  1.026941  0
H  H14  1  0.60523342  0.14867218  0.33597349  1  0  0.128986  0  0.979223  0  0  0.137173  0  1.037869  0  0  0.141222  0  1.036323  0  0  0.110828  0.134272  0  1.039209  0
H  H15  1  0.39476874  0.85134948  0.66404505  1  0  0.128972  0  0.979447  0  0  0.137211  0  1.038031  0  0  0.141255  0  1.036476  0  0  0.11085  0.134315  0  1.039372  0
H  H16  1  0.42152048  0.05752458  0.13619200  1  0  0.102826  0  0.918915  0  0  0.11278  0  0.976699  0  0  0.115417  0  0.972732  0  0  0.131491  0.111018  0  0.979116  0
H  H17  1  0.57849459  0.94248117  0.86381931  1  0  0.1028  0  0.918903  0  0  0.112779  0  0.976662  0  0  0.115412  0  0.972703  0  0  0.131462  0.111017  0  0.979081  0
H  H18  1  0.86827256  0.56153959  0.71147169  1  0  0.095174  0  0.98387  0  0  0.102882  0  1.050058  0  0  0.105162  0  1.049764  0  0  0.098773  0.101385  0  1.05034  0
H  H19  1  0.13173052  0.43843473  0.28851512  1  0  0.09521  0  0.983638  0  0  0.102902  0  1.049841  0  0  0.105183  0  1.049546  0  0  0.098788  0.101404  0  1.05012  0
H  H20  1  0.29326368  0.57629249  0.49540312  1  0  0.090521  0  0.972557  0  0  0.098709  0  1.038751  0  0  0.101735  0  1.037494  0  0  0.098833  0.096711  0  1.039467  0
H  H21  1  0.70670808  0.42368494  0.50458469  1  0  0.090454  0  0.972222  0  0  0.098551  0  1.038567  0  0  0.101646  0  1.037238  0  0  0.098687  0.096548  0  1.03928  0
H  H22  1  0.00469069  0.19739159  0.42818283  1  0  0.097888  0  0.974373  0  0  0.103672  0  1.042584  0  0  0.106893  0  1.041735  0  0  0.097456  0.100809  0  1.044257  0
H  H23  1  0.99533799  0.80261079  0.57181518  1  0  0.097897  0  0.974345  0  0  0.103646  0  1.042588  0  0  0.106868  0  1.04174  0  0  0.097455  0.100786  0  1.04426  0
H  H24  1  0.01779402  0.76080027  0.33625046  1  0  0.099508  0  0.949876  0  0  0.108694  0  1.011381  0  0  0.112505  0  1.00952  0  0  0.099767  0.105626  0  1.013426  0
H  H25  1  0.98222057  0.23919849  0.66374395  1  0  0.099574  0  0.950028  0  0  0.108734  0  1.011549  0  0  0.112546  0  1.009689  0  0  0.099785  0.105668  0  1.013591  0
H  H26  1  0.13537654  0.99439678  0.06231587  1  0  0.398406  0  0.89575  0  0  0.367252  0  0.975443  0  0  0.379488  0  0.963468  0  0  0.290108  0.358348  0  0.984466  0
H  H27  1  0.86462377  0.00559404  0.93768498  1  0  0.398355  0  0.895773  0  0  0.367207  0  0.975472  0  0  0.379444  0  0.963498  0  0  0.290087  0.358297  0  0.984503  0
H  H28  1  0.11832380  0.93599048  0.90619837  1  0  0.418756  0  0.873632  0  0  0.391897  0  0.94325  0  0  0.403656  0  0.927024  0  0  0.296534  0.383212  0  0.951942  0
H  H29  1  0.88167694  0.06400881  0.09379131  1  0  0.418722  0  0.873733  0  0  0.391822  0  0.943383  0  0  0.403576  0  0.927135  0  0  0.296549  0.38314  0  0.952055  0
C  C30  1  0.22223252  0.48711076  0.97189690  1  0  0.150307  0  3.610471  0  0  0.116996  0  3.870769  0  0  0.131835  0  3.882072  0  0  0.063285  0.107114  0  3.863771  0
C  C31  1  0.77775934  0.51290837  0.02810605  1  0  0.15039  0  3.610322  0  0  0.11695  0  3.870776  0  0  0.1318  0  3.882074  0  0  0.06329  0.107073  0  3.863763  0
C  C32  1  0.25479549  0.38191834  0.01895328  1  0  -0.104093  0  3.669533  0  0  -0.122689  0  3.93186  0  0  -0.129653  0  3.946164  0  0  -0.0772  -0.118287  0  3.923596  0
C  C33  1  0.74520348  0.61809337  0.98104359  1  0  -0.104282  0  3.669825  0  0  -0.122786  0  3.932122  0  0  -0.129755  0  3.946416  0  0  -0.077263  -0.118392  0  3.923878  0
C  C34  1  0.35510605  0.40787130  0.13075638  1  0  -0.038351  0  3.649678  0  0  -0.06985  0  3.913984  0  0  -0.059983  0  3.920186  0  0  -0.057541  -0.077949  0  3.911488  0
C  C35  1  0.64489173  0.59214140  0.86924619  1  0  -0.038358  0  3.649681  0  0  -0.069832  0  3.914013  0  0  -0.059961  0  3.920212  0  0  -0.05764  -0.07794  0  3.911528  0
C  C36  1  0.41903589  0.54289324  0.19911583  1  0  0.034329  0  3.785203  0  0  0.050581  0  4.016697  0  0  0.047267  0  4.039286  0  0  0.001953  0.052307  0  4.002539  0
C  C37  1  0.58094458  0.45712526  0.80088472  1  0  0.034392  0  3.785222  0  0  0.050445  0  4.016746  0  0  0.047154  0  4.039355  0  0  0.001984  0.052163  0  4.002589  0
C  C38  1  0.38101934  0.64163575  0.14477594  1  0  0.114571  0  3.781865  0  0  0.107854  0  4.017974  0  0  0.113423  0  4.03939  0  0  0.111995  0.103464  0  4.005188  0
C  C39  1  0.61896339  0.35837859  0.85522047  1  0  0.114644  0  3.781663  0  0  0.108311  0  4.017277  0  0  0.113798  0  4.038809  0  0  0.112219  0.10395  0  4.004443  0
C  C40  1  0.44219134  0.77839647  0.20473335  1  0  0.118452  0  3.780581  0  0  0.111364  0  4.017913  0  0  0.117043  0  4.039392  0  0  0.113133  0.107229  0  4.004643  0
C  C41  1  0.55779110  0.22161268  0.79526293  1  0  0.11809  0  3.780691  0  0  0.111053  0  4.017761  0  0  0.116756  0  4.03926  0  0  0.11296  0.106927  0  4.004492  0
C  C42  1  0.54474334  0.82016685  0.31979365  1  0  0.032984  0  3.796813  0  0  0.049234  0  4.027134  0  0  0.045962  0  4.049942  0  0  0.002119  0.051649  0  4.011039  0
C  C43  1  0.45524107  0.17983291  0.68020102  1  0  0.032974  0  3.797328  0  0  0.049174  0  4.027612  0  0  0.045904  0  4.050421  0  0  0.00214  0.051592  0  4.011515  0
C  C44  1  0.58090304  0.71956535  0.37551093  1  0  -0.096683  0  3.720773  0  0  -0.117867  0  3.970702  0  0  -0.121269  0  3.993859  0  0  -0.078988  -0.115351  0  3.954626  0
C  C45  1  0.41909032  0.28043609  0.62449003  1  0  -0.096511  0  3.720907  0  0  -0.117687  0  3.97077  0  0  -0.121087  0  3.993928  0  0  -0.078959  -0.115172  0  3.954694  0
C  C46  1  0.51968633  0.58727680  0.31813067  1  0  -0.09792  0  3.719481  0  0  -0.118855  0  3.968706  0  0  -0.122096  0  3.991772  0  0  -0.079946  -0.116469  0  3.95286  0
C  C47  1  0.48029703  0.41272602  0.68187045  1  0  -0.098141  0  3.719666  0  0  -0.119  0  3.968939  0  0  -0.122243  0  3.992015  0  0  -0.080041  -0.116616  0  3.953098  0
C  C48  1  0.60308184  0.95820579  0.36991147  1  0  -0.043955  0  3.689415  0  0  -0.069563  0  3.938812  0  0  -0.062875  0  3.953707  0  0  -0.061523  -0.073884  0  3.928768  0
C  C49  1  0.39691430  0.04179958  0.63009817  1  0  -0.043977  0  3.689628  0  0  -0.069546  0  3.939091  0  0  -0.062889  0  3.95398  0  0  -0.061586  -0.07386  0  3.929048  0
C  C50  1  0.55938927  0.04276020  0.30387357  1  0  -0.111129  0  3.684802  0  0  -0.124693  0  3.936188  0  0  -0.132486  0  3.952292  0  0  -0.080075  -0.120713  0  3.927171  0
C  C51  1  0.44060169  0.95724338  0.69612899  1  0  -0.111078  0  3.685075  0  0  -0.124667  0  3.936435  0  0  -0.132448  0  3.952541  0  0  -0.080071  -0.12069  0  3.927423  0
C  C52  1  0.45613906  0.99267469  0.18967750  1  0  0.16669  0  3.596512  0  0  0.133215  0  3.852286  0  0  0.149087  0  3.862385  0  0  0.067458  0.121767  0  3.847615  0
C  C53  1  0.54385147  0.00732171  0.81031971  1  0  0.166726  0  3.596289  0  0  0.133219  0  3.852114  0  0  0.149088  0  3.862222  0  0  0.067532  0.121798  0  3.84745  0
C  C54  1  0.19180619  0.65745254  0.73778723  1  0  0.613845  0  3.889436  0  0  0.566998  0  4.196917  0  0  0.604166  0  4.190775  0  0  0.207011  0.541656  0  4.200766  0
C  C55  1  0.80818035  0.34252057  0.26217891  1  0  0.613454  0  3.890096  0  0  0.566612  0  4.197586  0  0  0.603782  0  4.191447  0  0  0.206714  0.541257  0  4.201416  0
C  C56  1  0.09096155  0.57597416  0.61590473  1  0  -0.052684  0  3.752044  0  0  -0.03148  0  3.982856  0  0  -0.037937  0  4.004585  0  0  -0.013892  -0.026984  0  3.968462  0
C  C57  1  0.90904439  0.42400633  0.38407998  1  0  -0.052938  0  3.751596  0  0  -0.031668  0  3.982329  0  0  -0.038132  0  4.004089  0  0  -0.013786  -0.027136  0  3.967882  0
C  C58  1  0.92511492  0.53377738  0.61850129  1  0  -0.069864  0  3.724799  0  0  -0.090355  0  3.9672  0  0  -0.09078  0  3.988073  0  0  -0.084785  -0.090332  0  3.953726  0
C  C59  1  0.07491861  0.46622041  0.38151487  1  0  -0.069874  0  3.724573  0  0  -0.090378  0  3.967017  0  0  -0.090804  0  3.987876  0  0  -0.084793  -0.090356  0  3.953516  0
C  C60  1  0.16489361  0.54163578  0.49641170  1  0  -0.081824  0  3.742091  0  0  -0.102284  0  3.986491  0  0  -0.105218  0  4.009349  0  0  -0.085899  -0.100125  0  3.971073  0
C  C61  1  0.83512064  0.45835544  0.50360050  1  0  -0.081604  0  3.74133  0  0  -0.102008  0  3.98571  0  0  -0.105  0  4.008556  0  0  -0.085671  -0.099851  0  3.970276  0
C  C62  1  0.00306543  0.11176472  0.46067860  1  0  -0.088479  0  3.751437  0  0  -0.107746  0  4.000034  0  0  -0.108449  0  4.01936  0  0  -0.091114  -0.106851  0  3.987229  0
C  C63  1  0.99694686  0.88823709  0.53932491  1  0  -0.088538  0  3.751462  0  0  -0.107776  0  4.000025  0  0  -0.108484  0  4.019357  0  0  -0.09115  -0.106884  0  3.98723  0
C  C64  1  0.01065496  0.86517724  0.40916247  1  0  -0.086432  0  3.753456  0  0  -0.107373  0  4.001215  0  0  -0.10902  0  4.021238  0  0  -0.090032  -0.105754  0  3.987328  0
C  C65  1  0.98935635  0.13482987  0.59083582  1  0  -0.086557  0  3.753577  0  0  -0.107501  0  4.001362  0  0  -0.109153  0  4.021386  0  0  -0.090087  -0.105881  0  3.98748  0
C  C66  1  0.01321505  0.97656300  0.36861952  1  0  -0.064244  0  3.763472  0  0  -0.043263  0  3.99766  0  0  -0.049373  0  4.020348  0  0  -0.021297  -0.039049  0  3.981885  0
C  C67  1  0.98679166  0.02342973  0.63137778  1  0  -0.064202  0  3.763342  0  0  -0.043158  0  3.997378  0  0  -0.049262  0  4.020061  0  0  -0.021214  -0.038956  0  3.981628  0
C  C68  1  0.01867688  0.94827703  0.22674036  1  0  0.627489  0  3.920879  0  0  0.577338  0  4.220369  0  0  0.609514  0  4.214739  0  0  0.197515  0.554815  0  4.224219  0
C  C69  1  0.98133001  0.05171878  0.77325897  1  0  0.627621  0  3.920566  0  0  0.577567  0  4.219945  0  0  0.609736  0  4.214321  0  0  0.197646  0.555045  0  4.223794  0
N  N70  1  0.28700094  0.61426203  0.03191920  1  0  -0.264805  0  3.379658  0  0  -0.219383  0  3.677082  0  0  -0.245908  0  3.690516  0  0  -0.333795  -0.204616  0  3.668893  0
N  N71  1  0.71299166  0.38574766  0.96808745  1  0  -0.26472  0  3.378611  0  0  -0.219489  0  3.676054  0  0  -0.24598  0  3.689503  0  0  -0.333702  -0.204709  0  3.667818  0
N  N72  1  0.39639162  0.86314521  0.14148794  1  0  -0.275585  0  3.365949  0  0  -0.230451  0  3.66416  0  0  -0.256785  0  3.676911  0  0  -0.335689  -0.216584  0  3.657248  0
N  N73  1  0.60359952  0.13686148  0.85851399  1  0  -0.275493  0  3.36502  0  0  -0.230446  0  3.663254  0  0  -0.256775  0  3.675994  0  0  -0.335562  -0.216625  0  3.656382  0
O  O74  1  0.33531032  0.70152909  0.73240083  1  0  -0.603021  0  1.970353  0  0  -0.568222  0  2.211302  0  0  -0.593133  0  2.200115  0  0  -0.309193  -0.550951  0  2.218168  0
O  O75  1  0.66467644  0.29846739  0.26759897  1  0  -0.602746  0  1.970721  0  0  -0.56787  0  2.211567  0  0  -0.592785  0  2.200397  0  0  -0.308963  -0.550604  0  2.218422  0
O  O76  1  0.11947549  0.67405054  0.84505668  1  0  -0.527988  0  2.094558  0  0  -0.497073  0  2.380903  0  0  -0.541896  0  2.375453  0  0  -0.30246  -0.467425  0  2.383257  0
O  O77  1  0.88053387  0.32594534  0.15493293  1  0  -0.527654  0  2.095354  0  0  -0.496872  0  2.381784  0  0  -0.541673  0  2.376303  0  0  -0.302474  -0.467229  0  2.384136  0
O  O78  1  0.00881100  0.82496523  0.14803204  1  0  -0.610781  0  1.98744  0  0  -0.571265  0  2.229751  0  0  -0.5948  0  2.218626  0  0  -0.31571  -0.555713  0  2.237969  0
O  O79  1  0.99118567  0.17502769  0.85197483  1  0  -0.610782  0  1.987433  0  0  -0.571329  0  2.229725  0  0  -0.594854  0  2.218597  0  0  -0.315713  -0.555774  0  2.237934  0
O  O80  1  0.03504458  0.05366815  0.19374119  1  0  -0.663514  0  1.972292  0  0  -0.599045  0  2.186067  0  0  -0.623091  0  2.175715  0  0  -0.33669  -0.580771  0  2.192549  0
O  O81  1  0.96495269  0.94631465  0.80624766  1  0  -0.663508  0  1.971955  0  0  -0.599173  0  2.185771  0  0  -0.623214  0  2.175423  0  0  -0.336795  -0.580895  0  2.192259  0
O  O82  1  0.20172325  0.94503582  0.98068582  1  0  -0.727922  0  2.020448  0  0  -0.689788  0  2.2618  0  0  -0.727277  0  2.23338  0  0  -0.549375  -0.664821  0  2.278799  0
O  O83  1  0.79828417  0.05496933  0.01931340  1  0  -0.727761  0  2.020918  0  0  -0.689633  0  2.262411  0  0  -0.727108  0  2.233958  0  0  -0.549381  -0.664665  0  2.279408  0
