# generated using pymatgen
data_CdH22C26S4N2(OF)2
_symmetry_space_group_name_H-M   'P 1'
_cell_length_a   8.06859962
_cell_length_b   10.96935397
_cell_length_c   16.01639810
_cell_angle_alpha   110.07400195
_cell_angle_beta   101.02562916
_cell_angle_gamma   90.00184144
_symmetry_Int_Tables_number   1
_chemical_formula_structural   CdH22C26S4N2(OF)2
_chemical_formula_sum   'Cd2 H44 C52 S8 N4 O4 F4'
_cell_volume   1303.55483137
_cell_formula_units_Z   2
loop_
 _symmetry_equiv_pos_site_id
 _symmetry_equiv_pos_as_xyz
  1  'x, y, z'
loop_
 _atom_site_type_symbol
 _atom_site_label
 _atom_site_symmetry_multiplicity
 _atom_site_fract_x
 _atom_site_fract_y
 _atom_site_fract_z
 _atom_site_occupancy
 _atom_site_hle17_bader_spin_density
 _atom_site_hle17_ddec_charge
 _atom_site_hle17_ddec_spin_density
 _atom_site_hle17_ddec_sum_bond_order
 _atom_site_hle17_magmom
 _atom_site_hse06_10hf_bader_spin_density
 _atom_site_hse06_10hf_ddec_charge
 _atom_site_hse06_10hf_ddec_spin_density
 _atom_site_hse06_10hf_ddec_sum_bond_order
 _atom_site_hse06_10hf_magmom
 _atom_site_hse06_bader_spin_density
 _atom_site_hse06_ddec_charge
 _atom_site_hse06_ddec_spin_density
 _atom_site_hse06_ddec_sum_bond_order
 _atom_site_hse06_magmom
 _atom_site_pbe_bader_spin_density
 _atom_site_pbe_cm5_charge
 _atom_site_pbe_ddec_charge
 _atom_site_pbe_ddec_spin_density
 _atom_site_pbe_ddec_sum_bond_order
 _atom_site_pbe_magmom
Cd  Cd0  1  0.75013062  0.98895780  0.00008690  1  0  0.649663  0  2.260908  0  0  0.518159  0  2.711314  0  0  0.553607  0  2.690805  0  0  0.476108  0.493286  0  2.724646  0
Cd  Cd1  1  0.24986268  0.01104445  0.99991453  1  0  0.649662  0  2.260924  0  0  0.518139  0  2.711373  0  0  0.553588  0  2.690859  0  0  0.476123  0.49327  0  2.724694  0
H  H2  1  0.10582392  0.63615842  0.75372321  1  0  0.096872  0  0.905195  0  0  0.111853  0  0.965472  0  0  0.11341  0  0.964159  0  0  0.114798  0.110846  0  0.965957  0
H  H3  1  0.39381549  0.88189414  0.24621606  1  0  0.097136  0  0.906048  0  0  0.111737  0  0.966676  0  0  0.113321  0  0.965332  0  0  0.114844  0.110701  0  0.967183  0
H  H4  1  0.89417310  0.36384284  0.24627648  1  0  0.096867  0  0.905219  0  0  0.111902  0  0.965474  0  0  0.11344  0  0.96415  0  0  0.114806  0.110894  0  0.96596  0
H  H5  1  0.60618634  0.11810418  0.75377968  1  0  0.097231  0  0.906031  0  0  0.111828  0  0.966612  0  0  0.113409  0  0.965271  0  0  0.114872  0.110794  0  0.96712  0
H  H6  1  0.18571972  0.70526833  0.87298760  1  0  0.096573  0  0.965697  0  0  0.109495  0  1.033987  0  0  0.110504  0  1.033265  0  0  0.102228  0.108844  0  1.034109  0
H  H7  1  0.31380667  0.83155965  0.12699836  1  0  0.096411  0  0.965329  0  0  0.109407  0  1.033638  0  0  0.110463  0  1.032849  0  0  0.102481  0.108698  0  1.033813  0
H  H8  1  0.81427476  0.29473295  0.12701372  1  0  0.096573  0  0.965682  0  0  0.10949  0  1.034034  0  0  0.110483  0  1.03329  0  0  0.102247  0.108839  0  1.034152  0
H  H9  1  0.68619275  0.16843964  0.87299675  1  0  0.096546  0  0.965308  0  0  0.109441  0  1.033708  0  0  0.110504  0  1.032896  0  0  0.102496  0.108733  0  1.033885  0
H  H10  1  0.20079114  0.20357191  0.69493035  1  0  0.090054  0  0.981708  0  0  0.092819  0  1.054185  0  0  0.095409  0  1.051429  0  0  0.10969  0.091032  0  1.055915  0
H  H11  1  0.29836157  0.50869590  0.30531910  1  0  0.090239  0  0.981504  0  0  0.092987  0  1.053673  0  0  0.095729  0  1.050731  0  0  0.109702  0.090719  0  1.056091  0
H  H12  1  0.79920715  0.79642935  0.30506947  1  0  0.090086  0  0.981778  0  0  0.092851  0  1.054246  0  0  0.09544  0  1.051491  0  0  0.109703  0.091062  0  1.055976  0
H  H13  1  0.70163304  0.49130633  0.69467870  1  0  0.090223  0  0.981563  0  0  0.092962  0  1.053741  0  0  0.095701  0  1.050803  0  0  0.109672  0.090697  0  1.056155  0
H  H14  1  0.33336629  0.25705645  0.87774783  1  0  0.118165  0  0.974782  0  0  0.127682  0  1.036948  0  0  0.130159  0  1.036782  0  0  0.095593  0.126046  0  1.036691  0
H  H15  1  0.16612876  0.37860507  0.12248349  1  0  0.118373  0  0.974345  0  0  0.126706  0  1.038031  0  0  0.129235  0  1.037806  0  0  0.095166  0.125042  0  1.037774  0
H  H16  1  0.66663861  0.74294772  0.12225145  1  0  0.118276  0  0.974867  0  0  0.127773  0  1.037063  0  0  0.130252  0  1.036898  0  0  0.095675  0.126133  0  1.036802  0
H  H17  1  0.83386196  0.62139620  0.87751495  1  0  0.118319  0  0.974395  0  0  0.126686  0  1.038043  0  0  0.129215  0  1.037821  0  0  0.095165  0.125026  0  1.037782  0
H  H18  1  0.34946356  0.52392691  0.95247693  1  0  0.12575  0  0.96279  0  0  0.137416  0  1.021438  0  0  0.14034  0  1.020193  0  0  0.104967  0.135303  0  1.022306  0
H  H19  1  0.15010810  0.57036086  0.04752146  1  0  0.125322  0  0.962655  0  0  0.136686  0  1.021795  0  0  0.139558  0  1.0206  0  0  0.104674  0.134601  0  1.022655  0
H  H20  1  0.65053860  0.47607532  0.04752350  1  0  0.125709  0  0.962776  0  0  0.137433  0  1.021364  0  0  0.140358  0  1.020118  0  0  0.104965  0.135319  0  1.022234  0
H  H21  1  0.84988640  0.42964041  0.95247798  1  0  0.125335  0  0.962667  0  0  0.136703  0  1.021796  0  0  0.139572  0  1.020607  0  0  0.104682  0.134618  0  1.022654  0
H  H22  1  0.35464524  0.54370945  0.67215553  1  0  0.088171  0  0.942169  0  0  0.094885  0  1.015532  0  0  0.097389  0  1.012531  0  0  0.107492  0.09258  0  1.018471  0
H  H23  1  0.14511427  0.87162817  0.32789322  1  0  0.088215  0  0.943207  0  0  0.095  0  1.016723  0  0  0.097579  0  1.013663  0  0  0.107576  0.093073  0  1.019007  0
H  H24  1  0.64535446  0.45629377  0.32784738  1  0  0.08825  0  0.942226  0  0  0.094956  0  1.015567  0  0  0.097462  0  1.012563  0  0  0.10752  0.092646  0  1.018515  0
H  H25  1  0.85488545  0.12836140  0.67210213  1  0  0.088192  0  0.943287  0  0  0.095024  0  1.016769  0  0  0.097604  0  1.013705  0  0  0.107567  0.093095  0  1.019057  0
H  H26  1  0.51922502  0.66629582  0.69882168  1  0  0.081226  0  0.98067  0  0  0.093613  0  1.051638  0  0  0.094443  0  1.05176  0  0  0.100707  0.092961  0  1.051572  0
H  H27  1  0.98060614  0.96749613  0.30122674  1  0  0.080632  0  0.981468  0  0  0.092689  0  1.053187  0  0  0.093458  0  1.05341  0  0  0.100511  0.092183  0  1.05277  0
H  H28  1  0.48077981  0.33370835  0.30118321  1  0  0.081293  0  0.980632  0  0  0.093658  0  1.051608  0  0  0.094489  0  1.05173  0  0  0.10076  0.093019  0  1.051532  0
H  H29  1  0.01939916  0.03249928  0.69877241  1  0  0.080602  0  0.981457  0  0  0.09265  0  1.053222  0  0  0.093417  0  1.053447  0  0  0.100497  0.092145  0  1.052804  0
H  H30  1  0.38445770  0.90402384  0.70807318  1  0  0.09156  0  0.975814  0  0  0.100548  0  1.041488  0  0  0.103599  0  1.039539  0  0  0.090544  0.098361  0  1.042735  0
H  H31  1  0.11552830  0.19619605  0.29218288  1  0  0.090999  0  0.97605  0  0  0.099706  0  1.04223  0  0  0.102771  0  1.040247  0  0  0.090197  0.097613  0  1.043359  0
H  H32  1  0.61554718  0.09598033  0.29192735  1  0  0.091574  0  0.975729  0  0  0.100569  0  1.041415  0  0  0.103634  0  1.039447  0  0  0.09056  0.098383  0  1.042663  0
H  H33  1  0.88447511  0.80379353  0.70781909  1  0  0.091015  0  0.975966  0  0  0.099721  0  1.042147  0  0  0.102786  0  1.040161  0  0  0.090196  0.097627  0  1.043274  0
H  H34  1  0.22032064  0.99532039  0.59592586  1  0  0.116168  0  0.950758  0  0  0.125212  0  1.013372  0  0  0.128628  0  1.011384  0  0  0.104294  0.122761  0  1.014918  0
H  H35  1  0.28001105  0.39965968  0.40442947  1  0  0.116241  0  0.951733  0  0  0.125628  0  1.013528  0  0  0.128974  0  1.011648  0  0  0.104299  0.122776  0  1.015943  0
H  H36  1  0.77968561  0.00468475  0.40407440  1  0  0.116219  0  0.950698  0  0  0.125267  0  1.013298  0  0  0.12867  0  1.011344  0  0  0.104308  0.122815  0  1.014845  0
H  H37  1  0.71998365  0.60033089  0.59557000  1  0  0.116308  0  0.951687  0  0  0.125734  0  1.013437  0  0  0.129092  0  1.01154  0  0  0.104335  0.122874  0  1.015851  0
H  H38  1  0.99985284  0.61396434  0.42741748  1  0  0.119704  0  0.955651  0  0  0.125527  0  1.023613  0  0  0.129802  0  1.020471  0  0  0.104413  0.122406  0  1.02599  0
H  H39  1  0.50040806  0.18660424  0.57249833  1  0  0.119718  0  0.955538  0  0  0.125145  0  1.023627  0  0  0.129485  0  1.02034  0  0  0.104366  0.1219  0  1.026476  0
H  H40  1  0.00015071  0.38603885  0.57258144  1  0  0.119864  0  0.955667  0  0  0.125607  0  1.023685  0  0  0.129868  0  1.020557  0  0  0.104462  0.122488  0  1.026065  0
H  H41  1  0.49959235  0.81339313  0.42750266  1  0  0.11966  0  0.955494  0  0  0.125059  0  1.023618  0  0  0.1294  0  1.020329  0  0  0.104301  0.121815  0  1.026459  0
H  H42  1  0.16094306  0.52166279  0.54022716  1  0  0.087396  0  0.976991  0  0  0.096942  0  1.043417  0  0  0.099153  0  1.042711  0  0  0.096892  0.095279  0  1.044198  0
H  H43  1  0.33896522  0.98147469  0.45962919  1  0  0.087704  0  0.976288  0  0  0.097062  0  1.042965  0  0  0.099251  0  1.0423  0  0  0.097178  0.09553  0  1.043411  0
H  H44  1  0.83905921  0.47834041  0.45977289  1  0  0.087379  0  0.977059  0  0  0.096932  0  1.043467  0  0  0.099143  0  1.042763  0  0  0.096885  0.095269  0  1.044246  0
H  H45  1  0.66104540  0.01852363  0.54037117  1  0  0.087683  0  0.976247  0  0  0.097127  0  1.042855  0  0  0.099317  0  1.04219  0  0  0.097208  0.095597  0  1.043302  0
C  C46  1  0.47757619  0.78322872  0.85839956  1  0  0.258198  0  3.7477  0  0  0.22921  0  4.047519  0  0  0.254534  0  4.05631  0  0  0.12683  0.212349  0  4.040619  0
C  C47  1  0.02253337  0.92478968  0.14169125  1  0  0.257642  0  3.747345  0  0  0.228741  0  4.047209  0  0  0.254037  0  4.056  0  0  0.126668  0.211889  0  4.040404  0
C  C48  1  0.52241827  0.21677256  0.14160301  1  0  0.258202  0  3.747657  0  0  0.229132  0  4.047518  0  0  0.254457  0  4.056313  0  0  0.126748  0.21227  0  4.040619  0
C  C49  1  0.97746697  0.07520671  0.85830764  1  0  0.257578  0  3.747396  0  0  0.22868  0  4.047252  0  0  0.253973  0  4.056049  0  0  0.126615  0.211825  0  4.040448  0
C  C50  1  0.21338221  0.64037559  0.80871081  1  0  -0.074972  0  3.699023  0  0  -0.144507  0  3.95396  0  0  -0.139879  0  3.962703  0  0  -0.059393  -0.14738  0  3.94748  0
C  C51  1  0.28614673  0.83109286  0.19127147  1  0  -0.074532  0  3.700108  0  0  -0.144122  0  3.956046  0  0  -0.139516  0  3.964686  0  0  -0.059294  -0.146883  0  3.949559  0
C  C52  1  0.78661128  0.35962860  0.19129108  1  0  -0.074938  0  3.699132  0  0  -0.144624  0  3.954264  0  0  -0.139891  0  3.962877  0  0  -0.059457  -0.147493  0  3.94777  0
C  C53  1  0.71385779  0.16890741  0.80872686  1  0  -0.074924  0  3.700292  0  0  -0.144424  0  3.956113  0  0  -0.139807  0  3.964745  0  0  -0.059376  -0.147191  0  3.949632  0
C  C54  1  0.23965149  0.50854387  0.81322270  1  0  0.193942  0  3.684636  0  0  0.18964  0  3.953573  0  0  0.196345  0  3.971728  0  0  0.056692  0.184859  0  3.941747  0
C  C55  1  0.25960211  0.69474976  0.18677619  1  0  0.193318  0  3.6857  0  0  0.18909  0  3.955727  0  0  0.195737  0  3.973887  0  0  0.056234  0.184318  0  3.94389  0
C  C56  1  0.76034562  0.49145837  0.18677722  1  0  0.193836  0  3.684654  0  0  0.189439  0  3.95375  0  0  0.196113  0  3.971888  0  0  0.056606  0.184662  0  3.941924  0
C  C57  1  0.74039990  0.30525052  0.81322127  1  0  0.193554  0  3.685597  0  0  0.189383  0  3.955473  0  0  0.196023  0  3.973635  0  0  0.056312  0.184615  0  3.943638  0
C  C58  1  0.23095555  0.29370107  0.75221730  1  0  0.067551  0  3.641767  0  0  0.027546  0  3.916901  0  0  0.036319  0  3.92801  0  0  -0.02267  0.021337  0  3.90961  0
C  C59  1  0.26821213  0.54124393  0.24795952  1  0  0.067811  0  3.639686  0  0  0.028985  0  3.913448  0  0  0.037492  0  3.924699  0  0  -0.022654  0.022664  0  3.906858  0
C  C60  1  0.76904058  0.70630409  0.24778384  1  0  0.067591  0  3.641716  0  0  0.02753  0  3.916857  0  0  0.036319  0  3.927939  0  0  -0.02268  0.021329  0  3.909561  0
C  C61  1  0.73178115  0.45875733  0.75203668  1  0  0.067674  0  3.639787  0  0  0.028843  0  3.913575  0  0  0.037359  0  3.924801  0  0  -0.022713  0.022521  0  3.906988  0
C  C62  1  0.29661325  0.32480869  0.84269162  1  0  -0.1525  0  3.808908  0  0  -0.170136  0  4.066  0  0  -0.174896  0  4.08774  0  0  -0.124702  -0.166679  0  4.050575  0
C  C63  1  0.20276668  0.48150548  0.15746511  1  0  -0.151482  0  3.808342  0  0  -0.168063  0  4.065167  0  0  -0.172822  0  4.086856  0  0  -0.124154  -0.164583  0  4.049701  0
C  C64  1  0.70338903  0.67519450  0.15730718  1  0  -0.152637  0  3.80892  0  0  -0.170259  0  4.066057  0  0  -0.175024  0  4.087797  0  0  -0.124779  -0.166794  0  4.050627  0
C  C65  1  0.79722125  0.51849288  0.84253113  1  0  -0.151273  0  3.808256  0  0  -0.167888  0  4.065094  0  0  -0.17265  0  4.086787  0  0  -0.124048  -0.16441  0  4.04963  0
C  C66  1  0.30315514  0.46377318  0.88201432  1  0  -0.19514  0  3.757237  0  0  -0.219464  0  4.005848  0  0  -0.223576  0  4.026039  0  0  -0.118123  -0.216528  0  3.992066  0
C  C67  1  0.19626872  0.58092945  0.11803407  1  0  -0.196196  0  3.757462  0  0  -0.220121  0  4.006571  0  0  -0.224202  0  4.026763  0  0  -0.118185  -0.217208  0  3.992772  0
C  C68  1  0.69684972  0.53623099  0.11798808  1  0  -0.195033  0  3.757284  0  0  -0.219376  0  4.005898  0  0  -0.223492  0  4.026097  0  0  -0.118089  -0.216444  0  3.992118  0
C  C69  1  0.80372822  0.41907084  0.88196414  1  0  -0.196282  0  3.757477  0  0  -0.220237  0  4.006568  0  0  -0.224324  0  4.026769  0  0  -0.118234  -0.217322  0  3.992766  0
C  C70  1  0.38423962  0.64922331  0.69675603  1  0  -0.052044  0  3.653958  0  0  -0.117915  0  3.904717  0  0  -0.113085  0  3.914396  0  0  -0.061086  -0.121377  0  3.899218  0
C  C71  1  0.11555864  0.95247358  0.30327627  1  0  -0.051459  0  3.654135  0  0  -0.11838  0  3.907405  0  0  -0.113684  0  3.917198  0  0  -0.060661  -0.121385  0  3.900884  0
C  C72  1  0.61576154  0.35078185  0.30324686  1  0  -0.052208  0  3.654088  0  0  -0.118114  0  3.904795  0  0  -0.113289  0  3.914488  0  0  -0.061189  -0.121586  0  3.899294  0
C  C73  1  0.88444512  0.04751891  0.69672142  1  0  -0.051366  0  3.654159  0  0  -0.118301  0  3.90738  0  0  -0.113597  0  3.91716  0  0  -0.060608  -0.121309  0  3.900862  0
C  C74  1  0.28018839  0.70709919  0.63270470  1  0  0.058144  0  3.731856  0  0  0.073443  0  3.976186  0  0  0.071352  0  4.000352  0  0  -0.02067  0.074471  0  3.960376  0
C  C75  1  0.21971051  0.07448860  0.36731174  1  0  0.057416  0  3.729985  0  0  0.073124  0  3.974616  0  0  0.071075  0  3.998785  0  0  -0.02133  0.07422  0  3.958435  0
C  C76  1  0.71981775  0.29290498  0.36729657  1  0  0.058048  0  3.732045  0  0  0.073461  0  3.976221  0  0  0.071369  0  4.000393  0  0  -0.02069  0.07449  0  3.960415  0
C  C77  1  0.78029693  0.92550291  0.63268733  1  0  0.057489  0  3.729716  0  0  0.073177  0  3.974416  0  0  0.071123  0  3.998585  0  0  -0.021289  0.074272  0  3.958231  0
C  C78  1  0.29766281  0.84058698  0.64776877  1  0  -0.071191  0  3.74207  0  0  -0.089894  0  3.988939  0  0  -0.090219  0  4.009917  0  0  -0.088351  -0.08961  0  3.975066  0
C  C79  1  0.20235260  0.19301958  0.35242655  1  0  -0.070633  0  3.738994  0  0  -0.088984  0  3.985755  0  0  -0.089304  0  4.006638  0  0  -0.087965  -0.088764  0  3.971846  0
C  C80  1  0.70234217  0.15941815  0.35223200  1  0  -0.071134  0  3.742005  0  0  -0.089875  0  3.988831  0  0  -0.09021  0  4.009812  0  0  -0.088325  -0.089585  0  3.974948  0
C  C81  1  0.79764830  0.80697001  0.64757455  1  0  -0.070708  0  3.738782  0  0  -0.089044  0  3.985536  0  0  -0.089364  0  4.006428  0  0  -0.088014  -0.088824  0  3.97162  0
C  C82  1  0.20808507  0.89214936  0.58572246  1  0  -0.193066  0  3.776338  0  0  -0.216477  0  4.036056  0  0  -0.221952  0  4.055748  0  0  -0.104513  -0.212868  0  4.022965  0
C  C83  1  0.29223502  0.30664282  0.41449579  1  0  -0.193084  0  3.776894  0  0  -0.215996  0  4.035123  0  0  -0.221351  0  4.054634  0  0  -0.104822  -0.213186  0  4.024217  0
C  C84  1  0.79192108  0.10785480  0.41427757  1  0  -0.193136  0  3.776237  0  0  -0.216564  0  4.035968  0  0  -0.222044  0  4.055654  0  0  -0.10455  -0.212953  0  4.022879  0
C  C85  1  0.70776102  0.69334872  0.58550528  1  0  -0.193293  0  3.776882  0  0  -0.216239  0  4.035086  0  0  -0.221605  0  4.054593  0  0  -0.104893  -0.213418  0  4.024194  0
C  C86  1  0.10148876  0.80818804  0.50849073  1  0  0.316864  0  3.778462  0  0  0.299627  0  4.062106  0  0  0.310453  0  4.073664  0  0  0.09425  0.29209  0  4.054318  0
C  C87  1  0.39889610  0.29984448  0.49162247  1  0  0.317781  0  3.778249  0  0  0.301448  0  4.06058  0  0  0.312498  0  4.0719  0  0  0.094588  0.292035  0  4.055092  0
C  C88  1  0.89851992  0.19181612  0.49150954  1  0  0.316857  0  3.778488  0  0  0.299681  0  4.062063  0  0  0.310508  0  4.073614  0  0  0.094306  0.292144  0  4.054276  0
C  C89  1  0.60110295  0.70015192  0.50837879  1  0  0.317984  0  3.778092  0  0  0.30165  0  4.060407  0  0  0.312699  0  4.071732  0  0  0.094646  0.292226  0  4.054927  0
C  C90  1  0.08282235  0.67536361  0.48998129  1  0  -0.192499  0  3.776419  0  0  -0.219486  0  4.03894  0  0  -0.224691  0  4.057957  0  0  -0.108261  -0.215954  0  4.02631  0
C  C91  1  0.41738349  0.18548180  0.51000377  1  0  -0.191818  0  3.77672  0  0  -0.217972  0  4.037924  0  0  -0.223119  0  4.056761  0  0  -0.10785  -0.214914  0  4.026563  0
C  C92  1  0.91718652  0.32464249  0.51001883  1  0  -0.192676  0  3.776614  0  0  -0.219609  0  4.039137  0  0  -0.224801  0  4.058164  0  0  -0.108342  -0.216078  0  4.026502  0
C  C93  1  0.58261935  0.81451460  0.48999786  1  0  -0.191788  0  3.776582  0  0  -0.217886  0  4.037797  0  0  -0.223038  0  4.056637  0  0  -0.10778  -0.214824  0  4.026428  0
C  C94  1  0.17276464  0.62590662  0.55344193  1  0  -0.089021  0  3.745472  0  0  -0.110735  0  3.998706  0  0  -0.111187  0  4.01983  0  0  -0.090699  -0.110609  0  3.984993  0
C  C95  1  0.32724107  0.07253611  0.44648712  1  0  -0.090117  0  3.745716  0  0  -0.111587  0  3.998748  0  0  -0.112115  0  4.020007  0  0  -0.091097  -0.111131  0  3.984276  0
C  C96  1  0.82724296  0.37409948  0.44655870  1  0  -0.088989  0  3.745619  0  0  -0.110734  0  3.998781  0  0  -0.111183  0  4.019897  0  0  -0.090694  -0.110608  0  3.985075  0
C  C97  1  0.67276537  0.92745833  0.55351380  1  0  -0.090177  0  3.74561  0  0  -0.111749  0  3.998673  0  0  -0.112278  0  4.019932  0  0  -0.09115  -0.111293  0  3.9842  0
S  S98  1  0.46855116  0.81541049  0.97102808  1  0  -0.402338  0  2.168139  0  0  -0.358403  0  2.515012  0  0  -0.376623  0  2.509127  0  0  -0.191405  -0.345814  0  2.51841  0
S  S99  1  0.03156101  0.84424850  0.02903667  1  0  -0.402798  0  2.16799  0  0  -0.358541  0  2.51439  0  0  -0.376693  0  2.508351  0  0  -0.19166  -0.345994  0  2.517857  0
S  S100  1  0.53144221  0.18459273  0.02897545  1  0  -0.402347  0  2.168079  0  0  -0.358399  0  2.514999  0  0  -0.376625  0  2.509118  0  0  -0.19138  -0.345813  0  2.518399  0
S  S101  1  0.96843447  0.15574985  0.97096219  1  0  -0.402792  0  2.168005  0  0  -0.358532  0  2.514417  0  0  -0.376685  0  2.508376  0  0  -0.191644  -0.345983  0  2.517881  0
S  S102  1  0.63785261  0.85585838  0.83134474  1  0  -0.350451  0  2.162564  0  0  -0.323136  0  2.515477  0  0  -0.342295  0  2.51423  0  0  -0.168914  -0.309625  0  2.514041  0
S  S103  1  0.86248742  0.02475305  0.16880518  1  0  -0.350091  0  2.162673  0  0  -0.322735  0  2.515713  0  0  -0.341896  0  2.514484  0  0  -0.168628  -0.309297  0  2.514289  0
S  S104  1  0.36214054  0.14414291  0.16866082  1  0  -0.350396  0  2.162523  0  0  -0.323074  0  2.515477  0  0  -0.342232  0  2.514232  0  0  -0.168881  -0.309564  0  2.514043  0
S  S105  1  0.13751173  0.97524432  0.83119569  1  0  -0.35009  0  2.162731  0  0  -0.322735  0  2.51577  0  0  -0.341891  0  2.51453  0  0  -0.168627  -0.309297  0  2.514347  0
N  N106  1  0.36108686  0.70007455  0.79117835  1  0  -0.112579  0  3.395702  0  0  -0.015325  0  3.616057  0  0  -0.034184  0  3.639254  0  0  -0.256594  -0.002904  0  3.600199  0
N  N107  1  0.13869702  0.90862725  0.20885104  1  0  -0.111336  0  3.394602  0  0  -0.01383  0  3.615632  0  0  -0.032654  0  3.638822  0  0  -0.256486  -0.001447  0  3.599704  0
N  N108  1  0.63890907  0.29992867  0.20882294  1  0  -0.112597  0  3.395684  0  0  -0.015179  0  3.61593  0  0  -0.034066  0  3.639107  0  0  -0.256522  -0.002759  0  3.600075  0
N  N109  1  0.86130597  0.09137010  0.79114646  1  0  -0.111223  0  3.394516  0  0  -0.013729  0  3.615514  0  0  -0.032558  0  3.638704  0  0  -0.256437  -0.001344  0  3.599591  0
O  O110  1  0.19507265  0.40445286  0.73244781  1  0  -0.216595  0  2.386527  0  0  -0.14698  0  2.61835  0  0  -0.163376  0  2.623431  0  0  -0.140046  -0.135972  0  2.614934  0
O  O111  1  0.30398897  0.67180428  0.26762256  1  0  -0.216475  0  2.385916  0  0  -0.147613  0  2.618369  0  0  -0.163873  0  2.623404  0  0  -0.139655  -0.136749  0  2.61522  0
O  O112  1  0.80492348  0.59555230  0.26755332  1  0  -0.216636  0  2.386451  0  0  -0.146894  0  2.618241  0  0  -0.163295  0  2.623332  0  0  -0.140002  -0.135902  0  2.614831  0
O  O113  1  0.69600926  0.32819600  0.73237390  1  0  -0.216553  0  2.385825  0  0  -0.147703  0  2.618263  0  0  -0.163955  0  2.623295  0  0  -0.139688  -0.136839  0  2.615118  0
F  F114  1  0.01178635  0.85851373  0.44764311  1  0  -0.229105  0  1.232161  0  0  -0.160826  0  1.391241  0  0  -0.171302  0  1.382694  0  0  -0.092159  -0.15322  0  1.396864  0
F  F115  1  0.48872123  0.41104458  0.55256661  1  0  -0.229433  0  1.232408  0  0  -0.166503  0  1.39855  0  0  -0.17759  0  1.390493  0  0  -0.091989  -0.152688  0  1.396968  0
F  F116  1  0.98821609  0.14149141  0.55235803  1  0  -0.229019  0  1.23218  0  0  -0.160786  0  1.391264  0  0  -0.171263  0  1.382716  0  0  -0.092135  -0.153178  0  1.396886  0
F  F117  1  0.51126929  0.58895474  0.44743199  1  0  -0.22947  0  1.232379  0  0  -0.166557  0  1.39854  0  0  -0.177641  0  1.390482  0  0  -0.091982  -0.152707  0  1.396923  0
