# generated using pymatgen
data_Zn4H31C42SN9O19
_symmetry_space_group_name_H-M   'P 1'
_cell_length_a   9.65667178
_cell_length_b   11.04773752
_cell_length_c   22.12545283
_cell_angle_alpha   92.33725048
_cell_angle_beta   89.08124951
_cell_angle_gamma   88.91172011
_symmetry_Int_Tables_number   1
_chemical_formula_structural   Zn4H31C42SN9O19
_chemical_formula_sum   'Zn4 H31 C42 S1 N9 O19'
_cell_volume   2357.71718813
_cell_formula_units_Z   1
loop_
 _symmetry_equiv_pos_site_id
 _symmetry_equiv_pos_as_xyz
  1  'x, y, z'
loop_
 _atom_site_type_symbol
 _atom_site_label
 _atom_site_symmetry_multiplicity
 _atom_site_fract_x
 _atom_site_fract_y
 _atom_site_fract_z
 _atom_site_occupancy
 _atom_site_pbe_bader_charge
 _atom_site_pbe_bader_spin_density
 _atom_site_pbe_cm5_charge
 _atom_site_pbe_ddec_charge
 _atom_site_pbe_ddec_spin_density
 _atom_site_pbe_ddec_sum_bond_order
 _atom_site_pbe_magmom
Zn  Zn0  1  0.64143535  0.50782903  0.50078263  1  1.27088  0  0.671505  0.817994  0  2.393344  0
Zn  Zn1  1  0.35403406  0.51577730  0.49549939  1  1.292983  0  0.676268  0.816321  0  2.417116  0
Zn  Zn2  1  0.35690765  0.50770111  0.00330847  1  1.273339  0  0.667456  0.820197  0  2.414641  0
Zn  Zn3  1  0.64436433  0.50459344  0.99864065  1  1.287253  0  0.668214  0.809558  0  2.448761  0
H  H4  1  0.11653240  0.68105718  0.54417272  1  0.137685  0  0.131338  0.118495  0  0.978478  0
H  H5  1  0.14673641  0.35044516  0.44765239  1  0.106061  0  0.133331  0.119304  0  0.985441  0
H  H6  1  0.85412378  0.66549890  0.54697479  1  0.129067  0  0.135086  0.116602  0  0.97524  0
H  H7  1  0.71932890  0.89829127  0.50073358  1  0.075075  0  0.097073  0.102907  0  1.017249  0
H  H8  1  0.27499472  0.89414191  0.50730224  1  0.073128  0  0.101839  0.112736  0  1.012311  0
H  H9  1  0.70892232  0.12457277  0.49937807  1  0.032736  0  0.097476  0.095148  0  1.023166  0
H  H10  1  0.27779846  0.47632374  0.81208851  1  0.139223  0  0.110842  0.126598  0  1.012759  0
H  H11  1  0.81324373  0.59044954  0.79966062  1  0.070368  0  0.098697  0.11035  0  0.979051  0
H  H12  1  0.83007275  0.42987658  0.79626957  1  0.076732  0  0.101881  0.120107  0  0.973441  0
H  H13  1  0.81467153  0.42839531  0.68324583  1  0.068278  0  0.100388  0.117583  0  0.977326  0
H  H14  1  0.80092087  0.58922259  0.68636873  1  0.063888  0  0.096962  0.109102  0  0.981697  0
H  H15  1  0.28435522  0.49711904  0.19557028  1  0.084443  0  0.094607  0.103087  0  1.023683  0
H  H16  1  0.72796103  0.50881623  0.18913616  1  0.087798  0  0.099746  0.112134  0  1.01231  0
H  H17  1  0.29192746  0.49096839  0.30921432  1  0.084006  0  0.09833  0.102237  0  1.009836  0
H  H18  1  0.87574691  0.63042708  0.93281510  1  0.156246  0  0.133335  0.119827  0  0.977745  0
H  H19  1  0.85707964  0.37355389  0.06456764  1  0.134517  0  0.132009  0.121048  0  0.982724  0
H  H20  1  0.13986441  0.62653432  0.93834000  1  0.135269  0  0.137446  0.118993  0  0.962991  0
H  H21  1  0.27189617  0.90152521  0.00293547  1  0.065771  0  0.096933  0.104173  0  1.017515  0
H  H22  1  0.71561665  0.87625996  0.00194678  1  0.078482  0  0.101449  0.114149  0  1.012987  0
H  H23  1  0.28594255  0.12843955  0.00399923  1  0.08496  0  0.096106  0.094673  0  1.022182  0
H  H24  1  0.76816289  0.29968469  0.45272869  1  0.526393  0  0.308043  0.334718  0  0.984109  0
H  H25  1  0.93184902  0.24718403  0.42476015  1  0.46316  0  0.331407  0.327618  0  0.908308  0
H  H26  1  0.23632545  0.21897643  0.52824464  1  0.505141  0  0.296417  0.312507  0  0.98204  0
H  H27  1  0.15674225  0.08090584  0.53037370  1  0.427052  0  0.307651  0.301466  0  0.936834  0
H  H28  1  0.76396793  0.52509817  0.35215426  1  0.477056  0  0.291116  0.304616  0  1.004597  0
H  H29  1  0.84799586  0.53224515  0.28190850  1  0.442051  0  0.30684  0.301581  0  0.943433  0
H  H30  1  0.23821423  0.32018137  0.06207659  1  0.53443  0  0.310264  0.335581  0  0.971232  0
H  H31  1  0.07855795  0.27951205  0.09368014  1  0.469253  0  0.330541  0.325345  0  0.908743  0
H  H32  1  0.76121666  0.19880139  0.98849962  1  0.476899  0  0.290578  0.298832  0  1.012897  0
H  H33  1  0.84187003  0.05651515  0.98773944  1  0.432318  0  0.305269  0.299252  0  0.945784  0
H  H34  1  0.25638831  0.58571000  0.62724493  1  0.642344  0  0.298654  0.359757  0  0.990176  0
C  C35  1  0.49827657  0.74751380  0.50220799  1  1.519512  0  0.218696  0.598819  0  4.146041  0
C  C36  1  0.48895219  0.50793779  0.61788029  1  1.547481  0  0.228132  0.608871  0  4.125333  0
C  C37  1  0.49030363  0.27236564  0.50117664  1  1.545141  0  0.219607  0.612264  0  4.128494  0
C  C38  1  0.50673740  0.50026485  0.38027341  1  1.451656  0  0.212417  0.60578  0  4.145817  0
C  C39  1  0.49023770  0.74141354  0.00170142  1  1.530872  0  0.217521  0.596773  0  4.152512  0
C  C40  1  0.50401588  0.49504510  0.88317753  1  1.596038  0  0.217063  0.598866  0  4.171729  0
C  C41  1  0.50740424  0.26481090  0.00256532  1  1.48295  0  0.216156  0.610061  0  4.141942  0
C  C42  1  0.50579861  0.50627842  0.11877069  1  1.564809  0  0.215861  0.595933  0  4.152232  0
C  C43  1  0.93389461  0.40999601  0.47123796  1  1.063802  0  0.249323  0.419034  0  4.069936  0
C  C44  1  0.06315834  0.60471317  0.52343175  1  0.424451  0  0.034707  -0.009334  0  3.948237  0
C  C45  1  0.08038816  0.42085859  0.46958632  1  0.602179  0  0.065598  -0.041957  0  3.829692  0
C  C46  1  0.92071063  0.59540940  0.52510987  1  0.54401  0  0.067137  0.079825  0  3.932304  0
C  C47  1  0.48740879  0.13841568  0.50343533  1  -0.030774  0  -0.029234  -0.158529  0  3.917927  0
C  C48  1  0.49639613  0.88343900  0.50350463  1  0.040853  0  -0.013225  0.003093  0  3.99305  0
C  C49  1  0.36166068  0.07365804  0.50823227  1  0.462414  0  0.109561  0.30876  0  4.046579  0
C  C50  1  0.62064899  0.94768909  0.50187170  1  -0.02872  0  -0.108315  -0.145203  0  4.034772  0
C  C51  1  0.36995812  0.94596923  0.50629506  1  -0.058945  0  -0.098263  -0.217564  0  3.925646  0
C  C52  1  0.61405537  0.07291353  0.50096443  1  0.002151  0  -0.089914  -0.075811  0  4.034783  0
C  C53  1  0.49970558  0.49161599  0.81564074  1  -0.036343  0  -0.005155  -0.052411  0  3.945004  0
C  C54  1  0.48441900  0.49544164  0.68481406  1  0.001872  0  -0.008754  -0.090997  0  3.933718  0
C  C55  1  0.61721705  0.49785820  0.77892749  1  0.016525  0  0.004865  0.072842  0  3.867671  0
C  C56  1  0.36410749  0.48590919  0.72258596  1  -0.158829  0  -0.014465  -0.113416  0  3.936206  0
C  C57  1  0.60898444  0.49836168  0.71578480  1  -0.015389  0  0.001725  0.072155  0  3.86586  0
C  C58  1  0.37267092  0.48364711  0.78539044  1  -0.002399  0  -0.077005  -0.107845  0  3.957712  0
C  C59  1  0.77335319  0.50706483  0.77829154  1  -0.033415  0  -0.149865  -0.195763  0  3.879993  0
C  C60  1  0.76465244  0.50679943  0.70715490  1  -0.006561  0  -0.151782  -0.197659  0  3.878797  0
C  C61  1  0.51249796  0.49902360  0.31330818  1  0.058523  0  -0.034786  -0.1638  0  3.926069  0
C  C62  1  0.50698067  0.50331633  0.18644865  1  0.005361  0  -0.015318  0.004128  0  4.002342  0
C  C63  1  0.63932108  0.50465968  0.27970149  1  0.401505  0  0.106811  0.307271  0  4.06889  0
C  C64  1  0.38182553  0.49825199  0.21961863  1  -0.063191  0  -0.111399  -0.149623  0  4.040125  0
C  C65  1  0.63263188  0.50559245  0.21611110  1  -0.044459  0  -0.102852  -0.225796  0  3.940421  0
C  C66  1  0.38662978  0.49516950  0.28202150  1  -0.002302  0  -0.091557  -0.077014  0  4.037908  0
C  C67  1  0.06873005  0.41941980  0.03663046  1  1.021684  0  0.248259  0.416354  0  4.073187  0
C  C68  1  0.93247712  0.57291809  0.96300615  1  0.426434  0  0.037752  -0.014534  0  3.938406  0
C  C69  1  0.92174976  0.42809108  0.03573030  1  0.6109  0  0.061919  -0.052989  0  3.839654  0
C  C70  1  0.07548602  0.56903817  0.96560841  1  0.482719  0  0.06849  0.080791  0  3.931691  0
C  C71  1  0.50762726  0.13074372  0.00313853  1  0.022955  0  -0.032894  -0.160706  0  3.929665  0
C  C72  1  0.49420449  0.87699106  0.00247180  1  -0.082349  0  -0.015491  0.001096  0  4.000249  0
C  C73  1  0.63251076  0.05984891  0.00163919  1  0.364554  0  0.105412  0.305034  0  4.064504  0
C  C74  1  0.37097116  0.94685559  0.00319118  1  0.005018  0  -0.109555  -0.14574  0  4.040938  0
C  C75  1  0.62192826  0.93298048  0.00215481  1  0.08109  0  -0.099449  -0.219002  0  3.932877  0
C  C76  1  0.37960979  0.07184970  0.00398302  1  -0.035532  0  -0.093365  -0.081648  0  4.044547  0
S  S77  1  0.19210407  0.47137948  0.69378577  1  3.066892  0  0.52187  1.157631  0  6.052774  0
N  N78  1  0.85585584  0.49990710  0.49938347  1  -1.222913  0  -0.316542  -0.28333  0  3.41707  0
N  N79  1  0.14124463  0.51554813  0.49541394  1  -1.24911  0  -0.304559  -0.136344  0  3.589489  0
N  N80  1  0.14328245  0.49439721  0.00215912  1  -1.207214  0  -0.314772  -0.275944  0  3.417008  0
N  N81  1  0.85769120  0.50242047  0.99938230  1  -1.226087  0  -0.303012  -0.128514  0  3.583296  0
N  N82  1  0.87247885  0.31349952  0.44539252  1  -1.277767  0  -0.558166  -0.611311  0  3.317352  0
N  N83  1  0.23349074  0.13080955  0.51281342  1  -1.256886  0  -0.598966  -0.632814  0  3.3075  0
N  N84  1  0.76622500  0.50524500  0.30678597  1  -1.257612  0  -0.602792  -0.631221  0  3.34376  0
N  N85  1  0.13491866  0.33965821  0.07095975  1  -1.292957  0  -0.55923  -0.60994  0  3.307016  0
N  N86  1  0.76127247  0.11132249  0.00157735  1  -1.221907  0  -0.603811  -0.633531  0  3.333345  0
O  O87  1  0.61230588  0.69308344  0.51323860  1  -1.168989  0  -0.316619  -0.552671  0  2.315128  0
O  O88  1  0.38455514  0.69585087  0.48978534  1  -1.163328  0  -0.318918  -0.545682  0  2.33611  0
O  O89  1  0.38171149  0.54830138  0.59050503  1  -1.177696  0  -0.304814  -0.548253  0  2.411711  0
O  O90  1  0.60286206  0.48131920  0.59101979  1  -1.150413  0  -0.295117  -0.507325  0  2.313154  0
O  O91  1  0.37889434  0.33413809  0.51293268  1  -1.16325  0  -0.303295  -0.537904  0  2.353116  0
O  O92  1  0.60509590  0.32162670  0.48730638  1  -1.187753  0  -0.315152  -0.566466  0  2.380993  0
O  O93  1  0.61836107  0.52267044  0.40945640  1  -1.169934  0  -0.318071  -0.555732  0  2.354259  0
O  O94  1  0.39051904  0.48024499  0.40604534  1  -1.169702  0  -0.325145  -0.554523  0  2.331881  0
O  O95  1  0.37306528  0.69163571  0.99503917  1  -1.164475  0  -0.318264  -0.546417  0  2.302956  0
O  O96  1  0.60573655  0.68572810  0.00777284  1  -1.169982  0  -0.32029  -0.551349  0  2.347557  0
O  O97  1  0.62183507  0.51256056  0.90671280  1  -1.154286  0  -0.311996  -0.535518  0  2.304064  0
O  O98  1  0.39018420  0.48092984  0.91178189  1  -1.168095  0  -0.317075  -0.547911  0  2.319332  0
O  O99  1  0.62023274  0.31776536  0.98953306  1  -1.165498  0  -0.308863  -0.541865  0  2.342797  0
O  O100  1  0.39313769  0.32215012  0.01472094  1  -1.189197  0  -0.316505  -0.569879  0  2.380643  0
O  O101  1  0.38974409  0.52814079  0.09441157  1  -1.165395  0  -0.31942  -0.544496  0  2.321426  0
O  O102  1  0.62066635  0.48647427  0.09049075  1  -1.171933  0  -0.32169  -0.558144  0  2.336072  0
O  O103  1  0.17392787  0.59200417  0.65835826  1  -1.246673  0  -0.380737  -0.561637  0  2.19799  0
O  O104  1  0.09444043  0.47908061  0.74367478  1  -1.30006  0  -0.31315  -0.530119  0  2.15325  0
O  O105  1  0.19058352  0.36801906  0.65157288  1  -1.290315  0  -0.344366  -0.563799  0  2.10395  0
