# generated using pymatgen
data_TiH28C11NO4
_symmetry_space_group_name_H-M   'P 1'
_cell_length_a   8.78265285
_cell_length_b   8.92795625
_cell_length_c   11.37604321
_cell_angle_alpha   100.85814996
_cell_angle_beta   101.64244853
_cell_angle_gamma   115.20870915
_symmetry_Int_Tables_number   1
_chemical_formula_structural   TiH28C11NO4
_chemical_formula_sum   'Ti2 H56 C22 N2 O8'
_cell_volume   751.62029721
_cell_formula_units_Z   2
loop_
 _symmetry_equiv_pos_site_id
 _symmetry_equiv_pos_as_xyz
  1  'x, y, z'
loop_
 _atom_site_type_symbol
 _atom_site_label
 _atom_site_symmetry_multiplicity
 _atom_site_fract_x
 _atom_site_fract_y
 _atom_site_fract_z
 _atom_site_occupancy
 _atom_site_hle17_bader_spin_density
 _atom_site_hle17_ddec_charge
 _atom_site_hle17_ddec_spin_density
 _atom_site_hle17_ddec_sum_bond_order
 _atom_site_hle17_magmom
 _atom_site_hse06_10hf_bader_spin_density
 _atom_site_hse06_10hf_ddec_charge
 _atom_site_hse06_10hf_ddec_spin_density
 _atom_site_hse06_10hf_ddec_sum_bond_order
 _atom_site_hse06_10hf_magmom
 _atom_site_hse06_bader_spin_density
 _atom_site_hse06_ddec_charge
 _atom_site_hse06_ddec_spin_density
 _atom_site_hse06_ddec_sum_bond_order
 _atom_site_hse06_magmom
 _atom_site_pbe_bader_spin_density
 _atom_site_pbe_cm5_charge
 _atom_site_pbe_ddec_charge
 _atom_site_pbe_ddec_spin_density
 _atom_site_pbe_ddec_sum_bond_order
 _atom_site_pbe_magmom
Ti  Ti0  1  0.67725402  0.65541059  0.61630807  1  0  1.999625  0  2.300674  0  0  1.943997  0  2.769019  0  0  2.136812  0  2.563872  0  0  1.452189  1.875126  0  2.787482  0
Ti  Ti1  1  0.32274881  0.34458908  0.38369346  1  0  1.999578  0  2.300739  0  0  1.943926  0  2.769068  0  0  2.136761  0  2.563906  0  0  1.452191  1.87512  0  2.787435  0
H  H2  1  0.70279431  0.42525732  0.42632416  1  0  0.298808  0  0.939098  0  0  0.28932  0  0.996911  0  0  0.297809  0  0.991672  0  0  0.287604  0.28322  0  1.001902  0
H  H3  1  0.29720969  0.57474237  0.57367580  1  0  0.298775  0  0.939138  0  0  0.289346  0  0.996884  0  0  0.297818  0  0.991667  0  0  0.28763  0.283256  0  1.001845  0
H  H4  1  0.83112313  0.62976507  0.43761426  1  0  0.293834  0  0.899986  0  0  0.29091  0  0.950615  0  0  0.297474  0  0.94781  0  0  0.298757  0.286156  0  0.953761  0
H  H5  1  0.16887854  0.37023462  0.56238533  1  0  0.293837  0  0.900003  0  0  0.290916  0  0.950631  0  0  0.297483  0  0.947822  0  0  0.298764  0.286162  0  0.953779  0
H  H6  1  0.93207326  0.45455145  0.60954884  1  0  0.05212  0  0.947633  0  0  0.070486  0  1.013923  0  0  0.070836  0  1.014018  0  0  0.101962  0.070088  0  1.013799  0
H  H7  1  0.06793137  0.54544954  0.39045141  1  0  0.052144  0  0.947676  0  0  0.07049  0  1.013959  0  0  0.070839  0  1.014055  0  0  0.10197  0.070092  0  1.013832  0
H  H8  1  0.06449629  0.66806694  0.60782532  1  0  0.058914  0  0.918594  0  0  0.078103  0  0.979529  0  0  0.079177  0  0.978402  0  0  0.104924  0.07709  0  0.980575  0
H  H9  1  0.93550782  0.33193537  0.39217329  1  0  0.058921  0  0.918596  0  0  0.078118  0  0.979484  0  0  0.079197  0  0.978352  0  0  0.104915  0.077106  0  0.980529  0
H  H10  1  0.14672550  0.83639990  0.87370115  1  0  0.106021  0  0.960444  0  0  0.126745  0  1.022715  0  0  0.127702  0  1.02345  0  0  0.089788  0.126136  0  1.021862  0
H  H11  1  0.85327035  0.16359974  0.12630017  1  0  0.106003  0  0.96041  0  0  0.126735  0  1.022673  0  0  0.127691  0  1.02341  0  0  0.089767  0.126125  0  1.021821  0
H  H12  1  0.15015109  0.77267951  0.01301717  1  0  0.10288  0  0.963005  0  0  0.12589  0  1.023044  0  0  0.126191  0  1.024974  0  0  0.089075  0.125632  0  1.021652  0
H  H13  1  0.84984487  0.22732273  0.98698457  1  0  0.102967  0  0.962921  0  0  0.125959  0  1.022958  0  0  0.126259  0  1.02489  0  0  0.089115  0.125701  0  1.021567  0
H  H14  1  0.03512240  0.88930719  0.97544470  1  0  0.09811  0  0.964187  0  0  0.115689  0  1.035578  0  0  0.117786  0  1.03362  0  0  0.086188  0.114394  0  1.036361  0
H  H15  1  0.96487164  0.11069116  0.02455528  1  0  0.098101  0  0.964157  0  0  0.115696  0  1.035536  0  0  0.117793  0  1.033576  0  0  0.086193  0.114401  0  1.036321  0
H  H16  1  0.93559918  0.52001713  0.82318187  1  0  -0.007091  0  0.920971  0  0  0.007854  0  0.984111  0  0  0.006275  0  0.983261  0  0  0.091358  0.009  0  0.984126  0
H  H17  1  0.06440068  0.47998121  0.17682076  1  0  -0.007086  0  0.920956  0  0  0.007855  0  0.98412  0  0  0.006276  0  0.98327  0  0  0.091345  0.009001  0  0.984133  0
H  H18  1  0.74795104  0.64649570  0.98553510  1  0  0.107557  0  0.951257  0  0  0.131758  0  1.007714  0  0  0.132885  0  1.008105  0  0  0.091552  0.131108  0  1.006922  0
H  H19  1  0.25204481  0.35350396  0.01446448  1  0  0.107592  0  0.951234  0  0  0.131766  0  1.007729  0  0  0.132893  0  1.008119  0  0  0.091555  0.131116  0  1.006937  0
H  H20  1  0.86040897  0.52777820  0.02285643  1  0  0.098243  0  0.969224  0  0  0.120487  0  1.032522  0  0  0.121054  0  1.033961  0  0  0.087246  0.119802  0  1.031898  0
H  H21  1  0.13958984  0.47222276  0.97714468  1  0  0.098194  0  0.969257  0  0  0.12047  0  1.03252  0  0  0.121038  0  1.033956  0  0  0.087244  0.119785  0  1.031896  0
H  H22  1  0.66439191  0.42845611  0.89035261  1  0  0.104745  0  0.956563  0  0  0.125137  0  1.018289  0  0  0.12679  0  1.017518  0  0  0.089613  0.124114  0  1.018553  0
H  H23  1  0.33560499  0.57154095  0.10964760  1  0  0.104716  0  0.956488  0  0  0.125098  0  1.018239  0  0  0.126752  0  1.017467  0  0  0.089591  0.124077  0  1.0185  0
H  H24  1  0.68489294  0.86043568  0.87629101  1  0  -0.001708  0  0.923587  0  0  0.012952  0  0.987348  0  0  0.01199  0  0.98774  0  0  0.092374  0.013574  0  0.987385  0
H  H25  1  0.31510260  0.13957045  0.12371302  1  0  -0.001753  0  0.923551  0  0  0.012907  0  0.987321  0  0  0.011949  0  0.987714  0  0  0.092357  0.013531  0  0.987354  0
H  H26  1  0.28241392  0.61941904  0.79776497  1  0  0.097157  0  0.954866  0  0  0.119314  0  1.01792  0  0  0.12056  0  1.017955  0  0  0.084261  0.118403  0  1.017567  0
H  H27  1  0.71757781  0.38057936  0.20222938  1  0  0.097209  0  0.954841  0  0  0.119361  0  1.017896  0  0  0.120594  0  1.017945  0  0  0.08429  0.118451  0  1.01754  0
H  H28  1  0.43587330  0.71362345  0.95330125  1  0  0.095698  0  0.968689  0  0  0.118552  0  1.030129  0  0  0.119442  0  1.031012  0  0  0.085884  0.117973  0  1.029365  0
H  H29  1  0.56411598  0.28637230  0.04669583  1  0  0.095736  0  0.968702  0  0  0.118579  0  1.030138  0  0  0.119471  0  1.03102  0  0  0.08589  0.118001  0  1.029375  0
H  H30  1  0.44679341  0.55474957  0.83932712  1  0  0.110269  0  0.954973  0  0  0.130088  0  1.017244  0  0  0.131733  0  1.017049  0  0  0.092146  0.128902  0  1.017392  0
H  H31  1  0.55320372  0.44525273  0.16067041  1  0  0.110294  0  0.95493  0  0  0.130094  0  1.017215  0  0  0.131739  0  1.017019  0  0  0.092141  0.128908  0  1.017362  0
H  H32  1  0.60137495  0.06178326  0.79060942  1  0  0.102921  0  0.966044  0  0  0.12503  0  1.027182  0  0  0.126376  0  1.027125  0  0  0.088128  0.124074  0  1.026868  0
H  H33  1  0.39862388  0.93821776  0.20938642  1  0  0.102954  0  0.965995  0  0  0.125043  0  1.027148  0  0  0.12638  0  1.0271  0  0  0.088135  0.124094  0  1.026826  0
H  H34  1  0.50551015  0.01419446  0.91159626  1  0  0.092869  0  0.985008  0  0  0.115836  0  1.046269  0  0  0.116696  0  1.047205  0  0  0.084383  0.115071  0  1.045572  0
H  H35  1  0.49448477  0.98581046  0.08839782  1  0  0.092901  0  0.984964  0  0  0.115867  0  1.046199  0  0  0.116728  0  1.047134  0  0  0.084378  0.115105  0  1.045501  0
H  H36  1  0.37302661  0.90960199  0.74984188  1  0  0.097258  0  0.964523  0  0  0.117216  0  1.030204  0  0  0.118879  0  1.029055  0  0  0.084563  0.115824  0  1.031099  0
H  H37  1  0.62697053  0.09040033  0.25015214  1  0  0.097259  0  0.964471  0  0  0.1172  0  1.030182  0  0  0.118868  0  1.029027  0  0  0.084556  0.115809  0  1.031075  0
H  H38  1  0.41268460  0.78184446  0.47679732  1  0  0.065453  0  0.94645  0  0  0.084416  0  1.011673  0  0  0.085046  0  1.010399  0  0  0.090991  0.084048  0  1.012399  0
H  H39  1  0.58731538  0.21815655  0.52319958  1  0  0.0655  0  0.946442  0  0  0.084452  0  1.01166  0  0  0.085083  0  1.010385  0  0  0.091008  0.084084  0  1.012386  0
H  H40  1  0.38989195  0.69347586  0.31525125  1  0  0.061635  0  0.967893  0  0  0.080143  0  1.035222  0  0  0.080822  0  1.03442  0  0  0.089601  0.079544  0  1.036139  0
H  H41  1  0.61010623  0.30652382  0.68474780  1  0  0.061587  0  0.967928  0  0  0.080112  0  1.035239  0  0  0.08079  0  1.034437  0  0  0.08959  0.079513  0  1.036157  0
H  H42  1  0.60255026  0.85457925  0.42554442  1  0  0.071565  0  0.959253  0  0  0.090133  0  1.025151  0  0  0.090646  0  1.024305  0  0  0.094245  0.089855  0  1.025824  0
H  H43  1  0.39744559  0.14542043  0.57445340  1  0  0.071566  0  0.959228  0  0  0.090112  0  1.025154  0  0  0.090623  0  1.024308  0  0  0.094239  0.089836  0  1.02582  0
H  H44  1  0.19251571  0.01704624  0.74375286  1  0  0.093881  0  0.980804  0  0  0.112568  0  1.049005  0  0  0.114032  0  1.048555  0  0  0.082171  0.111392  0  1.04935  0
H  H45  1  0.80748765  0.98295214  0.25624768  1  0  0.09384  0  0.980853  0  0  0.112538  0  1.049048  0  0  0.114003  0  1.048602  0  0  0.082139  0.111359  0  1.049395  0
H  H46  1  0.22036133  0.23134114  0.78885554  1  0  0.094341  0  0.962224  0  0  0.116173  0  1.024049  0  0  0.117052  0  1.024723  0  0  0.082777  0.115387  0  1.023613  0
H  H47  1  0.77964086  0.76865724  0.21114481  1  0  0.094334  0  0.962202  0  0  0.116146  0  1.024057  0  0  0.117025  0  1.024733  0  0  0.082749  0.115361  0  1.023618  0
H  H48  1  0.16696113  0.11895961  0.62618731  1  0  0.119528  0  0.960601  0  0  0.139605  0  1.020764  0  0  0.14251  0  1.01837  0  0  0.090248  0.137851  0  1.021551  0
H  H49  1  0.83303926  0.88103747  0.37381257  1  0  0.119504  0  0.960616  0  0  0.139601  0  1.02076  0  0  0.142509  0  1.018361  0  0  0.090246  0.137847  0  1.021544  0
H  H50  1  0.92453789  0.01171496  0.78916803  1  0  -0.008846  0  0.926051  0  0  0.006089  0  0.989817  0  0  0.004399  0  0.991778  0  0  0.090333  0.005839  0  0.990445  0
H  H51  1  0.07546599  0.98828211  0.21083327  1  0  -0.00884  0  0.926104  0  0  0.006092  0  0.989855  0  0  0.0044  0  0.991818  0  0  0.090331  0.005841  0  0.990485  0
H  H52  1  0.89641328  0.16400075  0.57056747  1  0  0.107385  0  0.947095  0  0  0.13118  0  1.004904  0  0  0.132633  0  1.004375  0  0  0.090146  0.130025  0  1.005311  0
H  H53  1  0.10359135  0.83600022  0.42943542  1  0  0.107358  0  0.947134  0  0  0.131147  0  1.004955  0  0  0.1326  0  1.004427  0  0  0.090119  0.129992  0  1.00536  0
H  H54  1  0.94167858  0.27316180  0.73283353  1  0  0.086774  0  0.973203  0  0  0.105022  0  1.044325  0  0  0.106405  0  1.043907  0  0  0.079733  0.103966  0  1.044794  0
H  H55  1  0.05832837  0.72683916  0.26717147  1  0  0.086808  0  0.973163  0  0  0.105061  0  1.044275  0  0  0.106444  0  1.043858  0  0  0.07975  0.104005  0  1.044742  0
H  H56  1  0.73171556  0.08646804  0.64535693  1  0  0.105198  0  0.973287  0  0  0.125556  0  1.037068  0  0  0.126807  0  1.037392  0  0  0.090679  0.124899  0  1.036614  0
H  H57  1  0.26828843  0.91353162  0.35464566  1  0  0.105151  0  0.973282  0  0  0.125526  0  1.037056  0  0  0.126776  0  1.037383  0  0  0.090663  0.124868  0  1.036602  0
C  C58  1  0.96322448  0.53573778  0.54714811  1  0  0.06008  0  3.667611  0  0  0.004964  0  3.940509  0  0  0.010522  0  3.952342  0  0  -0.074351  0.002081  0  3.932875  0
C  C59  1  0.03677899  0.46426321  0.45285196  1  0  0.059987  0  3.667662  0  0  0.004965  0  3.940477  0  0  0.010522  0  3.952303  0  0  -0.074341  0.002082  0  3.932843  0
C  C60  1  0.06828657  0.78948550  0.93539632  1  0  -0.35671  0  3.66634  0  0  -0.43669  0  3.90237  0  0  -0.440034  0  3.910733  0  0  -0.246209  -0.434002  0  3.895443  0
C  C61  1  0.93170928  0.21051415  0.06460413  1  0  -0.356781  0  3.666112  0  0  -0.436741  0  3.902187  0  0  -0.440085  0  3.910549  0  0  -0.246224  -0.434055  0  3.895261  0
C  C62  1  0.89865749  0.61886768  0.86155505  1  0  0.382828  0  3.681084  0  0  0.378108  0  3.92612  0  0  0.392132  0  3.936039  0  0  2.2e-05  0.368924  0  3.919808  0
C  C63  1  0.10134121  0.38113067  0.13844652  1  0  0.382799  0  3.680853  0  0  0.378039  0  3.925958  0  0  0.392063  0  3.935875  0  0  1.1e-05  0.368856  0  3.919645  0
C  C64  1  0.78602684  0.55110221  0.94497099  1  0  -0.363522  0  3.672031  0  0  -0.443721  0  3.905249  0  0  -0.44716  0  3.913619  0  0  -0.246994  -0.44095  0  3.898633  0
C  C65  1  0.21396953  0.44889614  0.05503022  1  0  -0.363487  0  3.671883  0  0  -0.443676  0  3.905127  0  0  -0.447113  0  3.91349  0  0  -0.24696  -0.440904  0  3.898507  0
C  C66  1  0.54886190  0.80909905  0.81203073  1  0  0.360761  0  3.682604  0  0  0.351475  0  3.935766  0  0  0.362664  0  3.949627  0  0  -0.009997  0.343607  0  3.928747  0
C  C67  1  0.45113586  0.19090451  0.18797062  1  0  0.36088  0  3.682625  0  0  0.351565  0  3.935819  0  0  0.362752  0  3.949686  0  0  -0.010008  0.3437  0  3.928795  0
C  C68  1  0.42084992  0.66560992  0.85311527  1  0  -0.360143  0  3.675728  0  0  -0.439159  0  3.913081  0  0  -0.442721  0  3.921891  0  0  -0.249826  -0.436475  0  3.906736  0
C  C69  1  0.57914308  0.33439107  0.14688055  1  0  -0.360265  0  3.675756  0  0  -0.439247  0  3.91315  0  0  -0.442801  0  3.921965  0  0  -0.249842  -0.436561  0  3.906793  0
C  C70  1  0.50520862  0.95785943  0.81695813  1  0  -0.357379  0  3.679916  0  0  -0.437022  0  3.915963  0  0  -0.439846  0  3.923394  0  0  -0.250395  -0.434121  0  3.909899  0
C  C71  1  0.49478682  0.04214418  0.18303759  1  0  -0.35744  0  3.67979  0  0  -0.437033  0  3.915866  0  0  -0.439858  0  3.9233  0  0  -0.250373  -0.434143  0  3.909797  0
C  C72  1  0.47661404  0.74001800  0.41324026  1  0  -3.5e-05  0  3.744174  0  0  -0.088263  0  4.015127  0  0  -0.07729  0  4.027721  0  0  -0.1606  -0.096212  0  4.012464  0
C  C73  1  0.52338403  0.25997908  0.58675838  1  0  -4.1e-05  0  3.744147  0  0  -0.088248  0  4.015104  0  0  -0.077275  0  4.027702  0  0  -0.160598  -0.096195  0  4.012438  0
C  C74  1  0.14359303  0.10355471  0.71560151  1  0  -0.358384  0  3.665465  0  0  -0.433489  0  3.897515  0  0  -0.436348  0  3.904054  0  0  -0.252884  -0.430635  0  3.891832  0
C  C75  1  0.85641032  0.89644367  0.28439903  1  0  -0.358243  0  3.665483  0  0  -0.433372  0  3.897524  0  0  -0.436232  0  3.904054  0  0  -0.252774  -0.430511  0  3.891835  0
C  C76  1  0.94578675  0.02700009  0.69836615  1  0  0.359045  0  3.692812  0  0  0.351749  0  3.944473  0  0  0.362136  0  3.961253  0  0  -0.013853  0.344448  0  3.93709  0
C  C77  1  0.05421544  0.97299828  0.30163420  1  0  0.358937  0  3.693001  0  0  0.351664  0  3.944621  0  0  0.362054  0  3.961406  0  0  -0.01388  0.344366  0  3.937239  0
C  C78  1  0.87467728  0.14536698  0.65985622  1  0  -0.360599  0  3.680198  0  0  -0.440857  0  3.921475  0  0  -0.444076  0  3.929636  0  0  -0.249242  -0.438722  0  3.916312  0
C  C79  1  0.12532491  0.85463138  0.34014589  1  0  -0.360567  0  3.68022  0  0  -0.440834  0  3.921465  0  0  -0.444043  0  3.929606  0  0  -0.249224  -0.438701  0  3.916308  0
N  N80  1  0.80322987  0.54364933  0.48817800  1  0  -0.705754  0  3.144006  0  0  -0.681572  0  3.395926  0  0  -0.714004  0  3.397947  0  0  -0.671243  -0.667216  0  3.393721  0
N  N81  1  0.19677232  0.45634905  0.51182235  1  0  -0.705754  0  3.144071  0  0  -0.681641  0  3.395909  0  0  -0.714068  0  3.397967  0  0  -0.671303  -0.667292  0  3.393719  0
O  O82  1  0.50936598  0.60677760  0.44204077  1  0  -0.777929  0  2.213021  0  0  -0.726374  0  2.516565  0  0  -0.794787  0  2.521502  0  0  -0.506471  -0.698397  0  2.507395  0
O  O83  1  0.49063568  0.39322207  0.55796058  1  0  -0.777939  0  2.213067  0  0  -0.726357  0  2.516538  0  0  -0.794767  0  2.521474  0  0  -0.506477  -0.69838  0  2.507369  0
O  O84  1  0.80092179  0.64147071  0.75890369  1  0  -0.741907  0  2.015535  0  0  -0.70388  0  2.31407  0  0  -0.76334  0  2.304781  0  0  -0.481756  -0.676482  0  2.310407  0
O  O85  1  0.19907912  0.35852505  0.24109783  1  0  -0.741857  0  2.015494  0  0  -0.703805  0  2.314033  0  0  -0.763281  0  2.304767  0  0  -0.48177  -0.676423  0  2.310356  0
O  O86  1  0.54234995  0.74047218  0.68704657  1  0  -0.745941  0  1.979297  0  0  -0.704536  0  2.262852  0  0  -0.756103  0  2.254766  0  0  -0.470601  -0.680597  0  2.262207  0
O  O87  1  0.45766114  0.25953009  0.31295839  1  0  -0.746021  0  1.979339  0  0  -0.704548  0  2.262858  0  0  -0.756115  0  2.254757  0  0  -0.470597  -0.68063  0  2.262219  0
O  O88  1  0.85186893  0.86188412  0.60405019  1  0  -0.739479  0  1.931409  0  0  -0.706975  0  2.22053  0  0  -0.758567  0  2.214337  0  0  -0.478507  -0.683755  0  2.219075  0
O  O89  1  0.14813443  0.13811428  0.39594859  1  0  -0.739434  0  1.931413  0  0  -0.706946  0  2.220553  0  0  -0.758534  0  2.21434  0  0  -0.478512  -0.683743  0  2.219095  0
