# generated using pymatgen
data_Zn4H57C84S3(N7O3)3
_symmetry_space_group_name_H-M   'P 1'
_cell_length_a   18.74911850
_cell_length_b   19.33227506
_cell_length_c   19.97029050
_cell_angle_alpha   103.27950169
_cell_angle_beta   103.70921376
_cell_angle_gamma   114.00966270
_symmetry_Int_Tables_number   1
_chemical_formula_structural   Zn4H57C84S3(N7O3)3
_chemical_formula_sum   'Zn4 H57 C84 S3 N21 O9'
_cell_volume   5974.32403028
_cell_formula_units_Z   1
loop_
 _symmetry_equiv_pos_site_id
 _symmetry_equiv_pos_as_xyz
  1  'x, y, z'
loop_
 _atom_site_type_symbol
 _atom_site_label
 _atom_site_symmetry_multiplicity
 _atom_site_fract_x
 _atom_site_fract_y
 _atom_site_fract_z
 _atom_site_occupancy
 _atom_site_pbe_bader_charge
 _atom_site_pbe_bader_spin_density
 _atom_site_pbe_cm5_charge
 _atom_site_pbe_ddec_charge
 _atom_site_pbe_ddec_spin_density
 _atom_site_pbe_ddec_sum_bond_order
 _atom_site_pbe_magmom
Zn  Zn0  1  0.87903289  0.88518349  0.50384529  1  1.230976  0  0.732786  0.649645  0  2.47479  0
Zn  Zn1  1  0.11440038  0.11048793  0.48717602  1  1.187614  0  0.744837  0.626148  0  2.413584  0
Zn  Zn2  1  0.08271755  0.99985329  0.58680400  1  1.182617  0  0.741533  0.6109  0  2.492669  0
Zn  Zn3  1  0.90998689  0.00994246  0.39896904  1  1.190995  0  0.74784  0.605067  0  2.484755  0
H  H4  1  0.84862662  0.78756536  0.62337342  1  0.091635  0  0.117846  0.112012  0  0.999227  0
H  H5  1  0.62771188  0.30868759  0.62083712  1  0.057237  0  0.104789  0.106004  0  0.987295  0
H  H6  1  0.14872018  0.29093703  0.47846399  1  0.098426  0  0.118702  0.11048  0  0.989266  0
H  H7  1  0.75923078  0.31209384  0.62380162  1  0.110205  0  0.104971  0.120839  0  1.020038  0
H  H8  1  0.73646105  0.99190579  0.61708460  1  0.059342  0  0.10351  0.106988  0  1.012407  0
H  H9  1  0.60851168  0.93327975  0.64062638  1  0.050442  0  0.105428  0.107826  0  0.98752  0
H  H10  1  0.47459312  0.93116546  0.63767926  1  0.066422  0  0.1079  0.112513  0  0.982493  0
H  H11  1  0.94110352  0.63634166  0.31453872  1  0.062582  0  0.097279  0.101248  0  1.008863  0
H  H12  1  0.09515663  0.75195284  0.54632547  1  0.07737  0  0.097669  0.108315  0  1.041349  0
H  H13  1  0.13042163  0.54299083  0.61588366  1  0.09425  0  0.108188  0.114546  0  1.015459  0
H  H14  1  0.15154014  0.13625282  0.74144319  1  0.093751  0  0.119347  0.109715  0  0.991598  0
H  H15  1  0.32625735  0.17396201  0.52590709  1  0.092194  0  0.116117  0.104741  0  0.997078  0
H  H16  1  0.94534927  0.28850555  0.31109788  1  0.050754  0  0.101968  0.103819  0  1.000697  0
H  H17  1  0.89944374  0.36559427  0.24454706  1  0.057483  0  0.100141  0.101358  0  0.994989  0
H  H18  1  0.90086088  0.49461808  0.24569006  1  0.045096  0  0.099482  0.102735  0  0.999477  0
H  H19  1  0.67859936  0.76772249  0.13570183  1  0.025147  0  0.099423  0.096443  0  1.00959  0
H  H20  1  0.31734377  0.22264402  0.77342241  1  0.0544  0  0.097622  0.110177  0  1.012757  0
H  H21  1  0.50338802  0.55231165  0.94159105  1  0.029647  0  0.095666  0.087124  0  1.020529  0
H  H22  1  0.61594827  0.49218848  0.13312231  1  0.071838  0  0.099943  0.101717  0  0.993927  0
H  H23  1  0.68754526  0.60714116  0.25207676  1  0.066584  0  0.094077  0.110479  0  1.056017  0
H  H24  1  0.87062867  0.13652252  0.49362855  1  0.144962  0  0.115008  0.108977  0  1.037976  0
H  H25  1  0.54301735  0.43360419  0.00083241  1  0.071966  0  0.095542  0.097747  0  1.03577  0
H  H26  1  0.13785687  0.88321291  0.50780431  1  0.053879  0  0.116656  0.106899  0  1.004722  0
H  H27  1  0.61229276  0.65460183  0.01793388  1  0.054793  0  0.100061  0.100333  0  1.005446  0
H  H28  1  0.38215668  0.50952237  0.85488592  1  0.036863  0  0.097382  0.106248  0  1.004873  0
H  H29  1  0.11994914  0.86073839  0.80109812  1  0.050737  0  0.096905  0.09915  0  1.009114  0
H  H30  1  0.17522502  0.95336367  0.26826835  1  0.03237  0  0.097086  0.096864  0  1.007912  0
H  H31  1  0.12320674  0.83049213  0.02077308  1  0.023803  0  0.096114  0.093583  0  1.010241  0
H  H32  1  0.85701032  0.72104500  0.84415943  1  0.052276  0  0.097765  0.096212  0  1.001487  0
H  H33  1  0.92966067  0.71263975  0.06311761  1  0.060949  0  0.096854  0.106502  0  1.012172  0
H  H34  1  0.85156084  0.76167826  0.73578695  1  0.054767  0  0.09801  0.097926  0  1.007243  0
H  H35  1  0.17739201  0.27798338  0.60085222  1  0.069338  0  0.111338  0.093724  0  1.032172  0
H  H36  1  0.92991470  0.73222211  0.96023072  1  0.042558  0  0.094393  0.091372  0  1.016226  0
H  H37  1  0.89726018  0.86602406  0.26455357  1  0.10573  0  0.108777  0.091844  0  1.070771  0
H  H38  1  0.12567520  0.82164827  0.90977585  1  0.032291  0  0.099693  0.100591  0  1.002068  0
H  H39  1  0.18754014  0.90407694  0.14860142  1  0.037779  0  0.094374  0.096589  0  1.012602  0
H  H40  1  0.86368969  0.99686802  0.63572296  1  0.099013  0  0.12178  0.11183  0  0.991974  0
H  H41  1  0.87859289  0.15646229  0.36526961  1  0.091271  0  0.122611  0.114666  0  0.98307  0
H  H42  1  0.11754937  0.94897116  0.73435812  1  0.07551  0  0.114858  0.102347  0  1.0091  0
H  H43  1  0.22046561  0.95740713  0.65091878  1  0.43358  0  0.304118  0.299559  0  0.953879  0
H  H44  1  0.32576342  0.00817819  0.68356730  1  0.436023  0  0.302837  0.3026  0  0.959345  0
H  H45  1  0.98185662  0.28380076  0.70858405  1  0.634821  0  0.35531  0.405272  0  0.831832  0
H  H46  1  0.07332897  0.70318410  0.69493942  1  0.629234  0  0.349568  0.403008  0  0.842017  0
H  H47  1  0.05204960  0.32822172  0.55739306  1  0.459684  0  0.297467  0.291025  0  0.973016  0
H  H48  1  0.16659305  0.99517346  0.38621521  1  0.057003  0  0.117927  0.106646  0  1.002342  0
H  H49  1  0.07582958  0.42264932  0.60748513  1  0.456022  0  0.305555  0.300023  0  0.941146  0
H  H50  1  0.25701438  0.46830826  0.75076403  1  0.418128  0  0.300461  0.295699  0  0.947337  0
H  H51  1  0.18696024  0.36993460  0.69887741  1  0.426804  0  0.284073  0.273309  0  1.014105  0
H  H52  1  0.45383046  0.26473203  0.84947399  1  0.417338  0  0.301666  0.292474  0  0.946151  0
H  H53  1  0.52728186  0.36256821  0.89806913  1  0.441995  0  0.296833  0.284556  0  0.966948  0
H  H54  1  0.90613291  0.75256344  0.23775978  1  0.436617  0  0.297687  0.285464  0  0.972823  0
H  H55  1  0.86157018  0.69312982  0.14678067  1  0.44314  0  0.30246  0.294673  0  0.947261  0
H  H56  1  0.57920536  0.64516875  0.34488724  1  0.6337  0  0.362849  0.411193  0  0.823763  0
H  H57  1  0.86951279  0.72589303  0.39102396  1  0.101668  0  0.109451  0.099515  0  1.038981  0
H  H58  1  0.76862760  0.87170456  0.23352185  1  0.074927  0  0.124738  0.113797  0  0.987172  0
H  H59  1  0.38374895  0.99068247  0.61610264  1  0.05761  0  0.101456  0.099911  0  1.022411  0
H  H60  1  0.48018247  0.23431435  0.61439193  1  0.057223  0  0.100486  0.10476  0  1.003296  0
C  C61  1  0.91427249  0.83331059  0.64247559  1  0.406899  0  0.005718  -0.051077  0  3.975034  0
C  C62  1  0.93298435  0.77638208  0.42193001  1  0.355951  0  0.001693  -0.05455  0  3.970002  0
C  C63  1  0.76374601  0.84884083  0.27799098  1  0.457768  0  0.013484  -0.052589  0  3.958428  0
C  C64  1  0.08264884  0.24534069  0.45061679  1  0.378805  0  0.005147  -0.061564  0  3.998497  0
C  C65  1  0.27113782  0.05292135  0.61755607  1  0.896985  0  0.18818  0.332711  0  4.118415  0
C  C66  1  0.72530813  0.76748716  0.27339270  1  0.013129  0  -0.019529  -0.019566  0  4.024543  0
C  C67  1  0.33719431  0.10289012  0.59907704  1  0.011552  0  -0.053407  -0.168179  0  4.071515  0
C  C68  1  0.00913971  0.77481607  0.43935377  1  0.004596  0  -0.035462  -0.034604  0  4.069284  0
C  C69  1  0.03582721  0.90696646  0.29928425  1  -0.040085  0  -0.034472  -0.022802  0  4.053847  0
C  C70  1  0.43572518  0.04783137  0.62219186  1  -0.084698  0  -0.095138  -0.199098  0  3.94522  0
C  C71  1  0.42150374  0.11230474  0.61492663  1  0.028172  0  -0.01181  0.112757  0  4.08842  0
C  C72  1  0.01300880  0.25634718  0.42464507  1  -0.016461  0  -0.037227  -0.025622  0  4.090147  0
C  C73  1  0.48910371  0.18276424  0.61834455  1  -0.020762  0  -0.091777  -0.191364  0  3.923667  0
C  C74  1  0.56756226  0.18784550  0.62488040  1  -0.027371  0  -0.010908  0.078789  0  4.071656  0
C  C75  1  0.58043490  0.12123505  0.63039491  1  -0.038304  0  -0.002148  -0.007936  0  3.929279  0
C  C76  1  0.14688972  0.15926611  0.69668696  1  0.35305  0  0.006635  -0.052549  0  3.957781  0
C  C77  1  0.51340737  0.05109886  0.63081174  1  -0.014592  0  -0.010481  0.081355  0  4.068279  0
C  C78  1  0.63597867  0.25665063  0.62411093  1  -0.047323  0  -0.087038  -0.121265  0  4.003953  0
C  C79  1  0.71010367  0.25845446  0.62553871  1  -0.006951  0  -0.095699  -0.138758  0  3.98515  0
C  C80  1  0.72364912  0.19068123  0.62751929  1  0.002734  0  0.000393  0.083164  0  3.980733  0
C  C81  1  0.65711438  0.12252998  0.63158101  1  0.01445  0  0.001586  0.001887  0  3.910769  0
C  C82  1  0.66570829  0.05287532  0.63343960  1  -0.017631  0  -0.005675  0.090933  0  4.065452  0
C  C83  1  0.19377079  0.23849968  0.69884027  1  0.002575  0  -0.03391  -0.014448  0  4.063922  0
C  C84  1  0.59944493  0.98505499  0.63805154  1  -0.029696  0  -0.089786  -0.134108  0  4.016341  0
C  C85  1  0.52589154  0.98389504  0.63632421  1  -0.034294  0  -0.085934  -0.125916  0  4.011628  0
C  C86  1  0.79533921  0.18435633  0.62108711  1  -0.155943  0  -0.025679  -0.222555  0  3.879855  0
C  C87  1  0.79811427  0.11058397  0.61227321  1  -0.024854  0  -0.002212  0.090842  0  4.041277  0
C  C88  1  0.87368719  0.09506099  0.52125524  1  0.407003  0  0.01274  -0.02661  0  3.919261  0
C  C89  1  0.73504696  0.04878232  0.62334273  1  0.00483  0  -0.089673  -0.181431  0  3.946916  0
C  C90  1  0.97596550  0.63366155  0.36523145  1  -0.09588  0  -0.092969  -0.190934  0  3.946502  0
C  C91  1  0.01832629  0.70194751  0.43093371  1  0.049831  0  -0.007548  0.10465  0  4.074341  0
C  C92  1  0.06401359  0.69853203  0.49565445  1  -0.010281  0  -0.098728  -0.192342  0  3.941847  0
C  C93  1  0.06443073  0.62682392  0.49723582  1  -0.00775  0  -0.00794  0.074208  0  4.032576  0
C  C94  1  0.85202946  0.08540034  0.58266340  1  0.027294  0  -0.040109  -0.042325  0  4.045799  0
C  C95  1  0.01951589  0.55598074  0.43037843  1  0.028588  0  0.003737  0.006644  0  3.883836  0
C  C96  1  0.97640946  0.56075380  0.36334889  1  -0.013908  0  -0.00849  0.086581  0  4.042276  0
C  C97  1  0.10425477  0.61798445  0.56360114  1  -0.164589  0  -0.025837  -0.159724  0  3.987689  0
C  C98  1  0.09820474  0.54484954  0.56374893  1  -0.019893  0  -0.079752  -0.110358  0  3.992777  0
C  C99  1  0.05428530  0.47417286  0.49754589  1  -0.023863  0  -0.021035  -0.037145  0  4.007452  0
C  C100  1  0.15936184  0.23217886  0.62567577  1  0.398222  0  -0.005576  -0.074723  0  3.99182  0
C  C101  1  0.01598799  0.48096581  0.43004541  1  -0.010123  0  0.004257  0.018833  0  3.94218  0
C  C102  1  0.97307731  0.41222985  0.36223206  1  -0.020891  0  -0.021955  0.05288  0  4.090106  0
C  C103  1  0.93210186  0.41899013  0.29585770  1  0.00074  0  -0.094917  -0.13096  0  4.044147  0
C  C104  1  0.93314412  0.49019326  0.29641905  1  -0.058908  0  -0.10236  -0.153839  0  4.041115  0
C  C105  1  0.74148425  0.77831718  0.34948894  1  0.2746  0  0.062003  -0.113569  0  4.022247  0
C  C106  1  0.04811789  0.39818070  0.49697040  1  0.430195  0  0.107195  0.223002  0  4.01166  0
C  C107  1  0.01207991  0.33262861  0.42804879  1  0.075053  0  -0.017369  -0.015504  0  4.030926  0
C  C108  1  0.97437484  0.34039024  0.36321039  1  -0.067331  0  -0.084043  -0.160426  0  3.98446  0
C  C109  1  0.68529244  0.69659774  0.20441616  1  -0.085467  0  -0.023057  0.063586  0  4.062645  0
C  C110  1  0.66491575  0.70742277  0.13615466  1  -0.025283  0  -0.095111  -0.127482  0  4.014266  0
C  C111  1  0.62649982  0.64294189  0.06903231  1  -0.035014  0  -0.094801  -0.132172  0  3.991107  0
C  C112  1  0.86935427  0.02365773  0.59374405  1  0.399816  0  0.013001  -0.040539  0  3.964743  0
C  C113  1  0.60384012  0.56268142  0.06570322  1  -0.01988  0  -0.01669  0.113177  0  4.059716  0
C  C114  1  0.62976292  0.55293221  0.13354275  1  -0.004984  0  -0.0976  -0.134587  0  3.99109  0
C  C115  1  0.66921552  0.61790448  0.20121047  1  -0.045952  0  -0.108814  -0.156202  0  4.013147  0
C  C116  1  0.29899327  0.13400176  0.55380872  1  0.413623  0  0.003876  -0.046024  0  4.047983  0
C  C117  1  0.40878902  0.34424223  0.84952778  1  0.392791  0  0.080648  0.238675  0  4.077267  0
C  C118  1  0.33113142  0.28597962  0.79350494  1  -0.088177  0  -0.10967  -0.251516  0  3.992004  0
C  C119  1  0.29034583  0.38779325  0.78001497  1  0.379604  0  0.072687  0.223931  0  4.124694  0
C  C120  1  0.36747720  0.44585207  0.83635019  1  -0.030185  0  -0.111149  -0.245278  0  3.983581  0
C  C121  1  0.42663578  0.42672787  0.87393448  1  0.028343  0  -0.029465  0.010201  0  4.050635  0
C  C122  1  0.54948711  0.49142439  0.99772117  1  -0.082584  0  -0.110749  -0.175943  0  4.009371  0
C  C123  1  0.49767558  0.49278850  0.93797154  1  -0.040144  0  -0.093218  -0.104468  0  4.017571  0
C  C124  1  0.94506922  0.17678666  0.39179927  1  0.413116  0  0.008491  -0.056882  0  3.994673  0
C  C125  1  0.27108203  0.30518216  0.75909030  1  0.063881  0  -0.019402  0.005384  0  4.017226  0
C  C126  1  0.98564891  0.81724954  0.76134454  1  0.029638  0  -0.015042  0.08147  0  4.059182  0
C  C127  1  0.06987682  0.85605316  0.48340699  1  0.448894  0  0.006104  -0.052864  0  3.959738  0
C  C128  1  0.06191261  0.83055840  0.81054098  1  -0.061533  0  -0.101788  -0.148533  0  4.02007  0
C  C129  1  0.06506113  0.80809534  0.87196164  1  -7.5e-05  0  -0.095464  -0.130187  0  3.992607  0
C  C130  1  0.99191761  0.77108013  0.88749135  1  -0.015168  0  -0.019031  0.104091  0  4.065792  0
C  C131  1  0.91492938  0.75128638  0.83449877  1  -0.075459  0  -0.096448  -0.134471  0  4.007266  0
C  C132  1  0.91179460  0.77411240  0.77328768  1  -0.109422  0  -0.100859  -0.141074  0  4.0236  0
C  C133  1  0.98444722  0.76538801  0.10825759  1  -0.058228  0  -0.113878  -0.263576  0  3.949651  0
C  C134  1  0.97750351  0.79118635  0.17670641  1  0.382104  0  0.088733  0.254412  0  4.078192  0
C  C135  1  0.12175903  0.89907610  0.22374180  1  -0.018551  0  -0.101218  -0.124039  0  4.059575  0
C  C136  1  0.05150786  0.91471994  0.69826275  1  0.396333  0  0.002782  -0.057945  0  3.995746  0
C  C137  1  0.12881036  0.87174807  0.15627353  1  0.040569  0  -0.112795  -0.171424  0  4.041607  0
C  C138  1  0.96135717  0.90560568  0.30366209  1  0.418997  0  0.001304  -0.053364  0  3.963569  0
C  C139  1  0.05771860  0.80765585  0.09529035  1  -0.053122  0  -0.020875  0.122561  0  4.102363  0
C  C140  1  0.99242782  0.76185801  0.95777943  1  -0.040552  0  -0.101169  -0.143974  0  4.021201  0
C  C141  1  0.06045910  0.79699470  0.02156824  1  -0.022686  0  -0.096713  -0.133278  0  4.005418  0
C  C142  1  0.04571112  0.86361456  0.23475473  1  -0.001058  0  -0.020904  -0.020586  0  3.99482  0
C  C143  1  0.98386208  0.85125027  0.70332480  1  0.048901  0  -0.040486  -0.043706  0  4.098476  0
C  C144  1  0.09910792  0.97198105  0.36470106  1  0.456335  0  0.009251  -0.045849  0  3.951869  0
S  S145  1  0.88070648  0.27032992  0.62007917  1  2.999053  0  0.536059  1.159779  0  5.973489  0
S  S146  1  0.16642903  0.70260932  0.64877737  1  3.007114  0  0.529747  1.160965  0  5.989883  0
S  S147  1  0.71278084  0.71481410  0.39895611  1  3.029562  0  0.555968  1.158237  0  5.973873  0
N  N148  1  0.93877474  0.88202536  0.60463302  1  -0.806287  0  -0.26622  -0.176934  0  3.522966  0
N  N149  1  0.09139867  0.10954012  0.62710326  1  -0.769701  0  -0.284099  -0.18052  0  3.5752  0
N  N150  1  0.89897527  0.04149568  0.49710674  1  -0.790586  0  -0.27675  -0.16902  0  3.61082  0
N  N151  1  0.09937705  0.15436573  0.58287361  1  -0.764721  0  -0.287001  -0.195031  0  3.551925  0
N  N152  1  0.89656640  0.99763273  0.54185372  1  -0.784535  0  -0.28183  -0.192477  0  3.645688  0
N  N153  1  0.97221081  0.12297823  0.39802556  1  -0.776552  0  -0.277847  -0.180192  0  3.562746  0
N  N154  1  0.02393140  0.93271527  0.63949281  1  -0.793388  0  -0.280736  -0.179834  0  3.59281  0
N  N155  1  0.78664392  0.85839643  0.39363818  1  -0.674732  0  -0.243754  -0.195531  0  3.457208  0
N  N156  1  0.27262565  0.01213655  0.66647468  1  -1.219511  0  -0.603536  -0.650957  0  3.281455  0
N  N157  1  0.07792203  0.38765683  0.56229896  1  -1.24802  0  -0.597192  -0.614866  0  3.322635  0
N  N158  1  0.23176932  0.41021385  0.74913346  1  -1.214072  0  -0.615701  -0.635111  0  3.313088  0
N  N159  1  0.21768618  0.10464369  0.54473728  1  -0.805431  0  -0.276558  -0.184878  0  3.559751  0
N  N160  1  0.46567356  0.32043827  0.88102462  1  -1.216212  0  -0.602009  -0.615436  0  3.299118  0
N  N161  1  0.90172197  0.74987852  0.18543891  1  -1.248184  0  -0.599755  -0.621413  0  3.337907  0
N  N162  1  0.03195448  0.90184631  0.49224035  1  -0.767287  0  -0.280031  -0.182922  0  3.609684  0
N  N163  1  0.97973270  0.96578648  0.36542650  1  -0.8102  0  -0.286591  -0.17711  0  3.647136  0
N  N164  1  0.06417635  0.00651693  0.40281426  1  -0.78585  0  -0.285409  -0.184282  0  3.671101  0
N  N165  1  0.94761061  0.85264299  0.45487400  1  -0.793258  0  -0.28789  -0.195337  0  3.62277  0
N  N166  1  0.80031656  0.90126058  0.34907283  1  -0.765889  0  -0.254808  -0.136266  0  3.547419  0
N  N167  1  0.20051131  0.05441943  0.58488316  1  -0.816349  0  -0.285578  -0.280408  0  3.481463  0
N  N168  1  0.05809870  0.16564325  0.43437340  1  -0.795803  0  -0.270446  -0.180532  0  3.53409  0
O  O169  1  0.87431917  0.26236851  0.54512462  1  -1.281886  0  -0.307694  -0.519411  0  2.124291  0
O  O170  1  0.89318404  0.34432661  0.67101823  1  -1.298837  0  -0.322424  -0.547053  0  2.122962  0
O  O171  1  0.96231303  0.26084703  0.65443474  1  -1.185939  0  -0.357266  -0.539277  0  2.180504  0
O  O172  1  0.19331748  0.67489846  0.70616085  1  -1.299722  0  -0.33101  -0.554241  0  2.101913  0
O  O173  1  0.22584191  0.76990791  0.63715870  1  -1.298539  0  -0.326204  -0.533089  0  2.096449  0
O  O174  1  0.10109331  0.73235641  0.66649320  1  -1.179158  0  -0.362531  -0.549153  0  2.174531  0
O  O175  1  0.71286457  0.63969621  0.36916822  1  -1.290047  0  -0.298047  -0.520428  0  2.155926  0
O  O176  1  0.76059481  0.76526510  0.47700856  1  -1.306381  0  -0.293663  -0.499369  0  2.237715  0
O  O177  1  0.61772744  0.69383682  0.38966227  1  -1.172086  0  -0.35307  -0.517951  0  2.112563  0
