# generated using pymatgen
data_La2B5H7(C2O7)2
_symmetry_space_group_name_H-M   'P 1'
_cell_length_a   6.46551914
_cell_length_b   10.99399359
_cell_length_c   11.53609311
_cell_angle_alpha   61.56317392
_cell_angle_beta   89.66706713
_cell_angle_gamma   89.29887194
_symmetry_Int_Tables_number   1
_chemical_formula_structural   La2B5H7(C2O7)2
_chemical_formula_sum   'La4 B10 H14 C8 O28'
_cell_volume   721.01329641
_cell_formula_units_Z   2
loop_
 _symmetry_equiv_pos_site_id
 _symmetry_equiv_pos_as_xyz
  1  'x, y, z'
loop_
 _atom_site_type_symbol
 _atom_site_label
 _atom_site_symmetry_multiplicity
 _atom_site_fract_x
 _atom_site_fract_y
 _atom_site_fract_z
 _atom_site_occupancy
 _atom_site_hle17_bader_spin_density
 _atom_site_hle17_ddec_charge
 _atom_site_hle17_ddec_spin_density
 _atom_site_hle17_ddec_sum_bond_order
 _atom_site_hle17_magmom
 _atom_site_hse06_10hf_bader_spin_density
 _atom_site_hse06_10hf_ddec_charge
 _atom_site_hse06_10hf_ddec_spin_density
 _atom_site_hse06_10hf_ddec_sum_bond_order
 _atom_site_hse06_10hf_magmom
 _atom_site_hse06_bader_spin_density
 _atom_site_hse06_ddec_charge
 _atom_site_hse06_ddec_spin_density
 _atom_site_hse06_ddec_sum_bond_order
 _atom_site_hse06_magmom
 _atom_site_pbe_bader_spin_density
 _atom_site_pbe_cm5_charge
 _atom_site_pbe_ddec_charge
 _atom_site_pbe_ddec_spin_density
 _atom_site_pbe_ddec_sum_bond_order
 _atom_site_pbe_magmom
La  La0  1  0.82462890  0.38387413  0.48557961  1  0  2.160573  0  1.734693  0  0  2.030455  0  2.225185  0  0  2.130753  0  2.129651  0  0  1.660085  1.954468  0  2.293291  0
La  La1  1  0.32469040  0.86947497  0.51438775  1  0  2.160696  0  1.734534  0  0  2.030665  0  2.224627  0  0  2.131087  0  2.128968  0  0  1.659315  1.954585  0  2.292862  0
La  La2  1  0.66035566  0.79020999  0.13400717  1  0  2.161201  0  1.698191  0  0  2.032607  0  2.193008  0  0  2.133009  0  2.100026  0  0  1.571099  1.958211  0  2.256601  0
La  La3  1  0.16037501  0.92435566  0.86606559  1  0  2.161134  0  1.697525  0  0  2.032611  0  2.192328  0  0  2.132838  0  2.09955  0  0  1.570823  1.958109  0  2.256176  0
B  B4  1  0.31393067  0.58591744  0.41695397  1  0  1.2863  0  2.654898  0  0  1.123429  0  2.98402  0  0  1.159092  0  2.952722  0  0  0.086885  1.097649  0  3.007168  0
B  B5  1  0.81396394  0.00293510  0.58310507  1  0  1.285497  0  2.656858  0  0  1.121945  0  2.987686  0  0  1.156605  0  2.959332  0  0  0.086333  1.096523  0  3.009782  0
B  B6  1  0.20921658  0.78154477  0.19455731  1  0  1.181965  0  2.907805  0  0  1.02913  0  3.239103  0  0  1.07122  0  3.202408  0  0  0.043472  0.997912  0  3.267614  0
B  B7  1  0.70920895  0.97629992  0.80554380  1  0  1.180423  0  2.910621  0  0  1.02785  0  3.241251  0  0  1.070462  0  3.203138  0  0  0.042846  0.996245  0  3.270467  0
B  B8  1  0.96534006  0.69156406  0.38420898  1  0  1.20164  0  2.797008  0  0  1.037296  0  3.132912  0  0  1.070833  0  3.107544  0  0  0.020912  1.01366  0  3.150155  0
B  B9  1  0.46531669  0.07584042  0.61585827  1  0  1.202674  0  2.796243  0  0  1.038062  0  3.132419  0  0  1.071595  0  3.107062  0  0  0.021493  1.01453  0  3.149439  0
B  B10  1  0.36234681  0.32708770  0.48213615  1  0  1.187529  0  2.857705  0  0  1.033371  0  3.173391  0  0  1.076519  0  3.131614  0  0  0.09819  1.002789  0  3.20235  0
B  B11  1  0.86240693  0.80920370  0.51795127  1  0  1.187471  0  2.85811  0  0  1.031339  0  3.178948  0  0  1.074119  0  3.138357  0  0  0.097782  1.000991  0  3.20706  0
B  B12  1  0.62485757  0.63701365  0.51308634  1  0  1.205078  0  2.779318  0  0  1.044814  0  3.112166  0  0  1.078096  0  3.086914  0  0  0.011321  1.021032  0  3.130333  0
B  B13  1  0.12480827  0.15010496  0.48694449  1  0  1.204056  0  2.779059  0  0  1.04391  0  3.111918  0  0  1.077256  0  3.086448  0  0  0.010955  1.020019  0  3.130356  0
H  H14  1  0.05968658  0.34889616  0.19315295  1  0  0.148352  0  0.956809  0  0  0.165471  0  1.017204  0  0  0.168838  0  1.015146  0  0  0.106334  0.16294  0  1.018945  0
H  H15  1  0.55998654  0.54248637  0.80656435  1  0  0.148517  0  0.956254  0  0  0.165358  0  1.017069  0  0  0.168783  0  1.014931  0  0  0.106486  0.162791  0  1.018837  0
H  H16  1  0.25305671  0.48017954  0.14013293  1  0  0.151456  0  0.922441  0  0  0.171297  0  0.980032  0  0  0.174483  0  0.978062  0  0  0.114191  0.168979  0  0.98161  0
H  H17  1  0.75316796  0.62090994  0.85963413  1  0  0.15154  0  0.922574  0  0  0.171415  0  0.980064  0  0  0.174604  0  0.978106  0  0  0.11426  0.169103  0  0.981623  0
H  H18  1  0.09368892  0.46988134  0.02120907  1  0  0.133917  0  0.94859  0  0  0.153876  0  1.008933  0  0  0.155805  0  1.008636  0  0  0.10166  0.152472  0  1.009231  0
H  H19  1  0.59407737  0.49149627  0.97852486  1  0  0.133231  0  0.948631  0  0  0.153357  0  1.008824  0  0  0.155271  0  1.008552  0  0  0.101495  0.15195  0  1.009119  0
H  H20  1  0.74130862  0.24922832  0.11323243  1  0  0.141203  0  0.936882  0  0  0.16296  0  0.988609  0  0  0.165041  0  0.988036  0  0  0.103267  0.161442  0  0.989143  0
H  H21  1  0.24147450  0.36271777  0.88676810  1  0  0.141363  0  0.936374  0  0  0.162938  0  0.988348  0  0  0.165023  0  0.98776  0  0  0.103208  0.161419  0  0.988879  0
H  H22  1  0.67624041  0.19098096  0.28277125  1  0  0.151847  0  0.940517  0  0  0.166298  0  1.00681  0  0  0.169748  0  1.004378  0  0  0.11377  0.163662  0  1.009002  0
H  H23  1  0.17631139  0.47397386  0.71716617  1  0  0.152113  0  0.940806  0  0  0.166627  0  1.006898  0  0  0.16998  0  1.004592  0  0  0.113937  0.164029  0  1.00902  0
H  H24  1  0.47795659  0.25031308  0.15958400  1  0  0.124262  0  0.94892  0  0  0.145528  0  1.007204  0  0  0.147289  0  1.006589  0  0  0.102102  0.144278  0  1.007732  0
H  H25  1  0.97816407  0.41016029  0.84043057  1  0  0.124145  0  0.948497  0  0  0.145564  0  1.006589  0  0  0.147349  0  1.005938  0  0  0.10211  0.144302  0  1.007132  0
H  H26  1  0.80288365  0.49941350  0.67179266  1  0  0.398282  0  0.87047  0  0  0.377567  0  0.934634  0  0  0.385244  0  0.926563  0  0  0.329339  0.3721  0  0.940357  0
H  H27  1  0.30276209  0.17118383  0.32815815  1  0  0.398767  0  0.869973  0  0  0.377987  0  0.934437  0  0  0.385658  0  0.926372  0  0  0.329637  0.372524  0  0.94017  0
C  C28  1  0.94873601  0.55766434  0.13173466  1  0  0.791341  0  3.799207  0  0  0.756987  0  4.088346  0  0  0.793331  0  4.079541  0  0  0.236845  0.731838  0  4.093569  0
C  C29  1  0.44864498  0.68957043  0.86821455  1  0  0.791295  0  3.801253  0  0  0.756617  0  4.090857  0  0  0.793007  0  4.08206  0  0  0.236407  0.731445  0  4.096058  0
C  C30  1  0.09594183  0.45581271  0.12197257  1  0  -0.465071  0  3.6322  0  0  -0.542815  0  3.863226  0  0  -0.549541  0  3.863153  0  0  -0.236766  -0.538079  0  3.863498  0
C  C31  1  0.59615784  0.57821262  0.87779324  1  0  -0.464662  0  3.632282  0  0  -0.542219  0  3.863225  0  0  -0.549007  0  3.863121  0  0  -0.236985  -0.537436  0  3.86352  0
C  C32  1  0.59885329  0.04850475  0.21121190  1  0  0.800133  0  3.795858  0  0  0.771365  0  4.078658  0  0  0.807157  0  4.070314  0  0  0.247486  0.746593  0  4.08369  0
C  C33  1  0.09881632  0.25998148  0.78877303  1  0  0.800831  0  3.795986  0  0  0.771072  0  4.080283  0  0  0.806907  0  4.071901  0  0  0.247493  0.74625  0  4.085332  0
C  C34  1  0.62675511  0.19411959  0.19034459  1  0  -0.461437  0  3.639034  0  0  -0.536479  0  3.864205  0  0  -0.542916  0  3.864895  0  0  -0.231186  -0.532005  0  3.864097  0
C  C35  1  0.12700072  0.38473847  0.80960644  1  0  -0.461644  0  3.637838  0  0  -0.536408  0  3.863296  0  0  -0.542855  0  3.864061  0  0  -0.23079  -0.531909  0  3.863164  0
O  O36  1  0.42792312  0.45652582  0.44895594  1  0  -0.897788  0  2.170438  0  0  -0.786989  0  2.434265  0  0  -0.819621  0  2.413336  0  0  -0.209284  -0.763341  0  2.448335  0
O  O37  1  0.92797214  0.90544363  0.55120002  1  0  -0.898167  0  2.170782  0  0  -0.786785  0  2.434512  0  0  -0.819428  0  2.41402  0  0  -0.209222  -0.763142  0  2.448391  0
O  O38  1  0.34998941  0.67900474  0.27407480  1  0  -0.939375  0  2.163353  0  0  -0.832849  0  2.431918  0  0  -0.866661  0  2.411651  0  0  -0.257324  -0.808314  0  2.445397  0
O  O39  1  0.85004529  0.95338369  0.72595677  1  0  -0.938285  0  2.164142  0  0  -0.831729  0  2.432614  0  0  -0.865327  0  2.412199  0  0  -0.256887  -0.807178  0  2.446118  0
O  O40  1  0.09105234  0.56425633  0.44092936  1  0  -0.976567  0  2.093573  0  0  -0.87641  0  2.366497  0  0  -0.908607  0  2.3498  0  0  -0.286036  -0.85266  0  2.377162  0
O  O41  1  0.59106332  0.00516063  0.55919279  1  0  -0.977293  0  2.094029  0  0  -0.876307  0  2.36645  0  0  -0.908394  0  2.349903  0  0  -0.28581  -0.852627  0  2.377079  0
O  O42  1  0.27998947  0.87416174  0.07500227  1  0  -1.037782  0  1.862086  0  0  -0.96673  0  2.149235  0  0  -1.011722  0  2.129126  0  0  -0.505978  -0.933295  0  2.161639  0
O  O43  1  0.77993156  0.94913937  0.92517869  1  0  -1.036963  0  1.862461  0  0  -0.965985  0  2.149419  0  0  -1.01106  0  2.129169  0  0  -0.505465  -0.932463  0  2.161878  0
O  O44  1  0.01097392  0.78028012  0.24198463  1  0  -0.905042  0  2.145239  0  0  -0.793832  0  2.404107  0  0  -0.826253  0  2.384019  0  0  -0.234528  -0.770426  0  2.417377  0
O  O45  1  0.51096878  0.02250008  0.75808663  1  0  -0.904873  0  2.143637  0  0  -0.79389  0  2.402839  0  0  -0.82626  0  2.382422  0  0  -0.23511  -0.770431  0  2.416236  0
O  O46  1  0.51092849  0.22656651  0.54601124  1  0  -0.905579  0  2.16493  0  0  -0.794817  0  2.426042  0  0  -0.826992  0  2.404452  0  0  -0.236448  -0.771402  0  2.440343  0
O  O47  1  0.01095291  0.77253559  0.45404355  1  0  -0.90541  0  2.164691  0  0  -0.79468  0  2.426482  0  0  -0.826792  0  2.404937  0  0  -0.235852  -0.771237  0  2.440671  0
O  O48  1  0.74433977  0.65934112  0.39283064  1  0  -1.005647  0  2.145471  0  0  -0.901155  0  2.411421  0  0  -0.936193  0  2.398578  0  0  -0.288168  -0.875311  0  2.419372  0
O  O49  1  0.24429306  0.05223969  0.60722304  1  0  -1.005822  0  2.14584  0  0  -0.90166  0  2.412433  0  0  -0.936686  0  2.399562  0  0  -0.287401  -0.875758  0  2.420353  0
O  O50  1  0.67452198  0.74579741  0.55168835  1  0  -0.914387  0  2.177864  0  0  -0.801763  0  2.43989  0  0  -0.834226  0  2.419129  0  0  -0.241188  -0.778318  0  2.45391  0
O  O51  1  0.17447014  0.29743671  0.44836061  1  0  -0.913778  0  2.177813  0  0  -0.801617  0  2.439608  0  0  -0.834188  0  2.418852  0  0  -0.240875  -0.778126  0  2.453669  0
O  O52  1  0.68505861  0.49710475  0.62109709  1  0  -0.873185  0  1.952153  0  0  -0.807631  0  2.179572  0  0  -0.832748  0  2.160541  0  0  -0.451229  -0.789208  0  2.192489  0
O  O53  1  0.18511376  0.11809996  0.37896893  1  0  -0.873404  0  1.951817  0  0  -0.808132  0  2.179443  0  0  -0.833235  0  2.160391  0  0  -0.451511  -0.789663  0  2.192297  0
O  O54  1  0.40435672  0.64743403  0.49343000  1  0  -0.946001  0  2.064261  0  0  -0.847405  0  2.336011  0  0  -0.878744  0  2.318797  0  0  -0.266099  -0.824299  0  2.347493  0
O  O55  1  0.90427118  0.14089035  0.50655804  1  0  -0.944555  0  2.063625  0  0  -0.846204  0  2.33557  0  0  -0.877474  0  2.318646  0  0  -0.265864  -0.823108  0  2.346918  0
O  O56  1  0.95213725  0.68384230  0.04214886  1  0  -0.747968  0  1.984361  0  0  -0.696864  0  2.235403  0  0  -0.732516  0  2.228147  0  0  -0.352144  -0.671156  0  2.239306  0
O  O57  1  0.45211090  0.72614932  0.95785720  1  0  -0.748394  0  1.985882  0  0  -0.696656  0  2.236141  0  0  -0.732332  0  2.228837  0  0  -0.352094  -0.67094  0  2.240092  0
O  O58  1  0.82135506  0.51805064  0.22878926  1  0  -0.760912  0  1.908865  0  0  -0.710431  0  2.158138  0  0  -0.746614  0  2.147641  0  0  -0.374555  -0.684429  0  2.16502  0
O  O59  1  0.32106390  0.74689195  0.77126614  1  0  -0.760337  0  1.909431  0  0  -0.70962  0  2.158456  0  0  -0.74579  0  2.147918  0  0  -0.373816  -0.683616  0  2.165369  0
O  O60  1  0.69341999  0.01187338  0.13712082  1  0  -0.640597  0  1.925565  0  0  -0.598911  0  2.15664  0  0  -0.629427  0  2.14517  0  0  -0.35712  -0.57712  0  2.163896  0
O  O61  1  0.19296784  0.14913176  0.86303107  1  0  -0.641501  0  1.924464  0  0  -0.599444  0  2.156062  0  0  -0.630002  0  2.14456  0  0  -0.357644  -0.577599  0  2.163334  0
O  O62  1  0.47823788  0.96785353  0.30449650  1  0  -0.748208  0  1.985943  0  0  -0.706736  0  2.249697  0  0  -0.742761  0  2.237948  0  0  -0.418982  -0.680186  0  2.256503  0
O  O63  1  0.97840203  0.27270795  0.69536513  1  0  -0.748199  0  1.986926  0  0  -0.706613  0  2.251495  0  0  -0.742634  0  2.239704  0  0  -0.419174  -0.680058  0  2.258353  0
