# generated using pymatgen
data_Zr3H20C26N5O18
_symmetry_space_group_name_H-M   'P 1'
_cell_length_a   14.76988047
_cell_length_b   14.75253228
_cell_length_c   14.75304610
_cell_angle_alpha   60.44092301
_cell_angle_beta   60.05948375
_cell_angle_gamma   60.25560958
_symmetry_Int_Tables_number   1
_chemical_formula_structural   Zr3H20C26N5O18
_chemical_formula_sum   'Zr6 H40 C52 N10 O36'
_cell_volume   2285.97287538
_cell_formula_units_Z   2
loop_
 _symmetry_equiv_pos_site_id
 _symmetry_equiv_pos_as_xyz
  1  'x, y, z'
loop_
 _atom_site_type_symbol
 _atom_site_label
 _atom_site_symmetry_multiplicity
 _atom_site_fract_x
 _atom_site_fract_y
 _atom_site_fract_z
 _atom_site_occupancy
 _atom_site_pbe_bader_charge
 _atom_site_pbe_bader_spin_density
 _atom_site_pbe_cm5_charge
 _atom_site_pbe_ddec_charge
 _atom_site_pbe_ddec_spin_density
 _atom_site_pbe_ddec_sum_bond_order
 _atom_site_pbe_magmom
Zr  Zr0  1  0.87722325  0.88555528  0.62070933  1  2.635169  0  1.630222  2.360892  0  2.77723  0
Zr  Zr1  1  0.11813869  0.11978274  0.38725138  1  2.62824  0  1.627919  2.36014  0  2.794552  0
Zr  Zr2  1  0.11557564  0.88263616  0.62560156  1  2.635578  0  1.628982  2.370352  0  2.764514  0
Zr  Zr3  1  0.88057456  0.12214140  0.38268617  1  2.634682  0  1.629361  2.368695  0  2.754479  0
Zr  Zr4  1  0.11869487  0.88226117  0.38567384  1  2.630128  0  1.629551  2.360569  0  2.782652  0
Zr  Zr5  1  0.87926635  0.12264156  0.62330981  1  2.625023  0  1.623053  2.364518  0  2.757264  0
H  H6  1  0.09065323  0.72033643  0.59490260  1  0.625154  0  0.331801  0.424992  0  0.857735  0
H  H7  1  0.09630047  0.09139876  0.22190985  1  0.59471  0  0.332611  0.426535  0  0.851753  0
H  H8  1  0.09086876  0.09737477  0.60095215  1  0.617605  0  0.334576  0.430036  0  0.849323  0
H  H9  1  0.71614636  0.09912175  0.59619342  1  0.626092  0  0.334239  0.427494  0  0.850729  0
H  H10  1  0.14031584  0.59289872  0.36443490  1  0.084921  0  0.101775  0.111453  0  1.019844  0
H  H11  1  0.82432345  0.45377884  0.59313076  1  0.062862  0  0.099401  0.105382  0  1.022154  0
H  H12  1  0.58554328  0.14767621  0.90938847  1  0.043  0  0.099904  0.111307  0  1.023135  0
H  H13  1  0.41478839  0.85724873  0.10153695  1  0.103207  0  0.102336  0.113494  0  1.016981  0
H  H14  1  0.83491623  0.10367714  0.13001567  1  0.089398  0  0.105021  0.114024  0  1.01257  0
H  H15  1  0.13061207  0.84870138  0.92258081  1  0.071397  0  0.108049  0.121536  0  1.005331  0
H  H16  1  0.59370990  0.41428652  0.36136733  1  0.053566  0  0.10562  0.119726  0  1.007911  0
H  H17  1  0.40976992  0.59504425  0.64405630  1  0.042864  0  0.102637  0.115694  0  1.011137  0
H  H18  1  0.98569252  0.57693712  0.73447924  1  0.08743  0  0.100951  0.126509  0  1.034786  0
H  H19  1  0.97257928  0.24104466  0.06928261  1  0.111915  0  0.101424  0.128732  0  1.033818  0
H  H20  1  0.59754164  0.85830672  0.63379951  1  0.100466  0  0.103436  0.115019  0  1.020387  0
H  H21  1  0.40520533  0.14084487  0.36535629  1  0.082968  0  0.10038  0.112109  0  1.022698  0
H  H22  1  0.17791362  0.35047954  0.32919961  1  0.466019  0  0.295446  0.296157  0  1.002706  0
H  H23  1  0.22541019  0.45767839  0.27817693  1  0.413212  0  0.303058  0.294855  0  0.949977  0
H  H24  1  0.79173811  0.69342185  0.62952523  1  0.478261  0  0.294949  0.298846  0  0.998524  0
H  H25  1  0.74093043  0.59025290  0.67806386  1  0.406049  0  0.297029  0.283677  0  0.959766  0
H  H26  1  0.35059946  0.17624491  0.15894353  1  0.483639  0  0.298434  0.305758  0  1.000569  0
H  H27  1  0.45398793  0.23002750  0.04849583  1  0.427182  0  0.303174  0.294821  0  0.958686  0
H  H28  1  0.66433363  0.81479035  0.86782150  1  0.495262  0  0.297925  0.304113  0  0.99581  0
H  H29  1  0.56469820  0.76021564  0.97995281  1  0.437835  0  0.30265  0.292701  0  0.954563  0
H  H30  1  0.79969971  0.14174850  0.88784054  1  0.471954  0  0.294273  0.300536  0  0.992414  0
H  H31  1  0.73166597  0.16071677  0.01316933  1  0.411688  0  0.298547  0.288217  0  0.948835  0
H  H32  1  0.15914278  0.80174530  0.17337843  1  0.473397  0  0.300783  0.305887  0  0.990782  0
H  H33  1  0.20466426  0.74995693  0.06893213  1  0.445182  0  0.309733  0.303656  0  0.940738  0
H  H34  1  0.35869929  0.66106177  0.32222997  1  0.478859  0  0.296237  0.301296  0  1.003304  0
H  H35  1  0.46928491  0.55953969  0.26781788  1  0.454497  0  0.302755  0.293287  0  0.953748  0
H  H36  1  0.66265896  0.36660103  0.66473041  1  0.488705  0  0.295691  0.300341  0  1.004252  0
H  H37  1  0.56155082  0.47707625  0.70984488  1  0.404579  0  0.299163  0.288915  0  0.958853  0
H  H38  1  0.36782373  0.80943450  0.66009940  1  0.479896  0  0.296732  0.301519  0  0.998613  0
H  H39  1  0.48185510  0.75649120  0.69882410  1  0.422938  0  0.299722  0.290318  0  0.958869  0
H  H40  1  0.65399049  0.17270172  0.31991692  1  0.487572  0  0.299123  0.30588  0  0.996723  0
H  H41  1  0.54803095  0.21952999  0.27033419  1  0.415209  0  0.300814  0.291203  0  0.959267  0
H  H42  1  0.07796025  0.39713887  0.20544440  1  0.638556  0  0.305965  0.346386  0  0.977497  0
H  H43  1  0.07262625  0.70879354  0.90436796  1  0.636137  0  0.310427  0.353118  0  0.959099  0
H  H44  1  0.99057636  0.33590822  0.73155731  1  0.621771  0  0.319179  0.347067  0  0.917084  0
H  H45  1  0.90268609  0.22861180  0.91220587  1  0.625473  0  0.296409  0.325906  0  0.994854  0
C  C46  1  0.98604967  0.70980689  0.49171465  1  1.514127  0  0.23647  0.655184  0  4.060829  0
C  C47  1  0.30760153  0.00148592  0.20357869  1  1.494937  0  0.234015  0.6528  0  4.067247  0
C  C48  1  0.99459577  0.31588454  0.49259909  1  1.502624  0  0.234111  0.654163  0  4.0644  0
C  C49  1  0.69607720  0.99995348  0.81072282  1  1.49548  0  0.233908  0.651236  0  4.069561  0
C  C50  1  0.99288354  0.69854137  0.80952552  1  1.49649  0  0.235262  0.666215  0  4.065841  0
C  C51  1  0.69566129  0.00468674  0.49645881  1  1.52866  0  0.235054  0.653305  0  4.065767  0
C  C52  1  0.99805467  0.30548853  0.19481472  1  1.516208  0  0.235052  0.663487  0  4.059719  0
C  C53  1  0.30588730  0.99542030  0.50440602  1  1.49745  0  0.23458  0.654415  0  4.066295  0
C  C54  1  0.30507360  0.69863478  0.50264067  1  1.478415  0  0.234437  0.652346  0  4.062734  0
C  C55  1  0.98708922  0.99377055  0.82024598  1  1.537713  0  0.239322  0.656484  0  4.063493  0
C  C56  1  0.69982171  0.31244496  0.50071558  1  1.507466  0  0.235261  0.652823  0  4.06366  0
C  C57  1  0.99489782  0.98432320  0.21072685  1  1.50992  0  0.234651  0.651253  0  4.073057  0
C  C58  1  0.98955091  0.42446706  0.47873448  1  0.035947  0  -0.026169  -0.139903  0  3.941203  0
C  C59  1  0.97635436  0.62039679  0.48126840  1  0.075266  0  -0.022359  -0.129061  0  3.933818  0
C  C60  1  0.08061413  0.46525945  0.40794634  1  0.399145  0  0.097216  0.285405  0  4.064326  0
C  C61  1  0.88247519  0.58403204  0.54580353  1  0.397065  0  0.096101  0.283215  0  4.064266  0
C  C62  1  0.07008866  0.56279144  0.41215322  1  -0.027187  0  -0.097292  -0.197067  0  3.957284  0
C  C63  1  0.89277472  0.48660341  0.54161568  1  -0.004544  0  -0.098014  -0.192299  0  3.96834  0
C  C64  1  0.40657909  0.00500851  0.10247016  1  0.019018  0  -0.026533  -0.137485  0  3.948263  0
C  C65  1  0.59584185  0.99779991  0.91057529  1  -0.049559  0  -0.026396  -0.135346  0  3.952224  0
C  C66  1  0.45337889  0.09104513  0.04846972  1  0.436818  0  0.095854  0.284281  0  4.094937  0
C  C67  1  0.54795860  0.91284267  0.96339295  1  0.413466  0  0.095291  0.279334  0  4.082825  0
C  C68  1  0.54746254  0.08353626  0.95371875  1  0.077201  0  -0.103362  -0.211389  0  3.975418  0
C  C69  1  0.45431602  0.92006500  0.05852242  1  -0.018634  0  -0.09892  -0.201049  0  3.967604  0
C  C70  1  0.97833713  0.98368269  0.92954605  1  0.039558  0  -0.02099  -0.122137  0  3.944728  0
C  C71  1  0.98764644  0.97049893  0.12218197  1  0.046696  0  -0.022514  -0.135156  0  3.935367  0
C  C72  1  0.89026674  0.05512318  0.99051609  1  0.330237  0  0.080236  0.243265  0  4.055652  0
C  C73  1  0.07243814  0.89293093  0.06616688  1  0.424316  0  0.107935  0.298845  0  4.061096  0
C  C74  1  0.89754332  0.04522221  0.08558231  1  0.002014  0  -0.095726  -0.189839  0  3.994045  0
C  C75  1  0.06458525  0.90306446  0.97037259  1  0.024574  0  -0.091014  -0.19045  0  3.926539  0
C  C76  1  0.40571515  0.59933657  0.49949534  1  -0.004804  0  -0.025669  -0.136198  0  3.945609  0
C  C77  1  0.59857910  0.41136625  0.50469974  1  -0.044511  0  -0.024456  -0.132745  0  3.941852  0
C  C78  1  0.45690327  0.54853305  0.41671636  1  0.440535  0  0.095686  0.281048  0  4.078625  0
C  C79  1  0.54719863  0.46183578  0.58780214  1  0.424615  0  0.093202  0.277045  0  4.078402  0
C  C80  1  0.55231577  0.45564181  0.42279329  1  0.052025  0  -0.098032  -0.201698  0  3.959629  0
C  C81  1  0.45182389  0.55461915  0.58176110  1  0.060676  0  -0.100346  -0.204857  0  3.968916  0
C  C82  1  0.00302040  0.59246252  0.90156342  1  0.027518  0  -0.039656  -0.235642  0  3.96978  0
C  C83  1  0.98585914  0.50324773  0.90420985  1  0.002001  0  -0.013399  0.076196  0  4.030097  0
C  C84  1  0.03617577  0.57813351  0.98276390  1  0.540868  0  0.085371  0.216595  0  4.042044  0
C  C85  1  0.98241592  0.50533471  0.80906210  1  0.013351  0  -0.123196  -0.265896  0  3.995269  0
C  C86  1  0.97999161  0.41410805  0.80742211  1  0.481457  0  0.060582  0.206525  0  4.156029  0
C  C87  1  0.00579860  0.39895633  0.08941632  1  0.000766  0  -0.037384  -0.228218  0  3.953679  0
C  C88  1  0.03837368  0.47999456  0.07718749  1  0.551569  0  0.083273  0.20987  0  4.042508  0
C  C89  1  0.98477975  0.40591591  0.00019991  1  0.008084  0  -0.017609  0.063295  0  4.007092  0
C  C90  1  0.97498569  0.31588672  0.99794822  1  -0.019247  0  -0.112731  -0.243981  0  3.978847  0
C  C91  1  0.97282344  0.32003134  0.90355321  1  0.467107  0  0.050186  0.176906  0  4.115396  0
C  C92  1  0.40695641  0.99327341  0.50452376  1  0.004192  0  -0.025613  -0.135618  0  3.949936  0
C  C93  1  0.59669671  0.00504857  0.49396977  1  -0.016142  0  -0.024829  -0.136668  0  3.946938  0
C  C94  1  0.46088950  0.90969041  0.58319508  1  0.437476  0  0.095538  0.279746  0  4.079694  0
C  C95  1  0.54356380  0.08797192  0.41429223  1  0.451635  0  0.094528  0.280979  0  4.090794  0
C  C96  1  0.55441634  0.91955708  0.57479973  1  -0.051889  0  -0.096556  -0.194485  0  3.962261  0
C  C97  1  0.44948979  0.07865354  0.42324901  1  0.002928  0  -0.10308  -0.208484  0  3.971833  0
N  N98  1  0.17996859  0.41002762  0.34316342  1  -1.21041  0  -0.605629  -0.622277  0  3.329457  0
N  N99  1  0.78408054  0.63958755  0.61177844  1  -1.214261  0  -0.605745  -0.622469  0  3.310508  0
N  N100  1  0.40887475  0.18032685  0.08280899  1  -1.255586  0  -0.604387  -0.628175  0  3.366167  0
N  N101  1  0.58672398  0.82789473  0.92414806  1  -1.26156  0  -0.603061  -0.621358  0  3.33067  0
N  N102  1  0.80557018  0.14651303  0.95135133  1  -1.225856  0  -0.599945  -0.634317  0  3.301049  0
N  N103  1  0.16252865  0.81452668  0.09779130  1  -1.250309  0  -0.59591  -0.618389  0  3.336204  0
N  N104  1  0.41524234  0.58392857  0.33491611  1  -1.270566  0  -0.604113  -0.625711  0  3.335439  0
N  N105  1  0.58464739  0.42180562  0.67423446  1  -1.237526  0  -0.607366  -0.629186  0  3.335004  0
N  N106  1  0.42405111  0.82350013  0.66755864  1  -1.221785  0  -0.60489  -0.625504  0  3.332191  0
N  N107  1  0.57781642  0.17666087  0.33380691  1  -1.255933  0  -0.603678  -0.628061  0  3.353242  0
O  O108  1  0.91178001  0.74817810  0.57171263  1  -1.195864  0  -0.358864  -0.629308  0  2.310334  0
O  O109  1  0.26409530  0.07899538  0.24536953  1  -1.179636  0  -0.364591  -0.629739  0  2.318457  0
O  O110  1  0.07544336  0.26763161  0.42159977  1  -1.199123  0  -0.367875  -0.634835  0  2.324198  0
O  O111  1  0.73888535  0.92321562  0.76846833  1  -1.187331  0  -0.360164  -0.622398  0  2.320646  0
O  O112  1  0.06311423  0.74599033  0.77636748  1  -1.190888  0  -0.36021  -0.644773  0  2.308067  0
O  O113  1  0.73746123  0.08145860  0.42099624  1  -1.190555  0  -0.359878  -0.625309  0  2.312392  0
O  O114  1  0.92382777  0.26256790  0.23432329  1  -1.184691  0  -0.352425  -0.607822  0  2.280819  0
O  O115  1  0.26327254  0.91963348  0.58101841  1  -1.186256  0  -0.359355  -0.623646  0  2.30628  0
O  O116  1  0.26398923  0.74131227  0.42537706  1  -1.178827  0  -0.360043  -0.624808  0  2.312353  0
O  O117  1  0.91507298  0.07525359  0.77554065  1  -1.198056  0  -0.352765  -0.623356  0  2.286237  0
O  O118  1  0.74075461  0.26983256  0.57809327  1  -1.184426  0  -0.361871  -0.625861  0  2.321629  0
O  O119  1  0.07770502  0.91596622  0.24517732  1  -1.191906  0  -0.362776  -0.626134  0  2.322638  0
O  O120  1  0.06754452  0.92188373  0.77510491  1  -1.195726  0  -0.358432  -0.626085  0  2.2953  0
O  O121  1  0.74091099  0.27315398  0.42280069  1  -1.185444  0  -0.354434  -0.622432  0  2.263771  0
O  O122  1  0.92163678  0.06564157  0.24558574  1  -1.193  0  -0.356963  -0.627699  0  2.29136  0
O  O123  1  0.26279733  0.73726755  0.58149214  1  -1.187705  0  -0.358983  -0.631753  0  2.265031  0
O  O124  1  0.91769064  0.73866855  0.76827029  1  -1.17711  0  -0.344582  -0.606585  0  2.277035  0
O  O125  1  0.26462210  0.07313588  0.42927425  1  -1.189176  0  -0.363406  -0.630265  0  2.294843  0
O  O126  1  0.06693736  0.27310900  0.24325068  1  -1.185327  0  -0.349038  -0.640998  0  2.292034  0
O  O127  1  0.73462149  0.92925042  0.57383929  1  -1.195714  0  -0.359782  -0.62647  0  2.292962  0
O  O128  1  0.73520922  0.07766764  0.77044800  1  -1.192858  0  -0.361156  -0.631492  0  2.279976  0
O  O129  1  0.07018838  0.74167226  0.42415696  1  -1.194275  0  -0.360507  -0.632228  0  2.29509  0
O  O130  1  0.26880821  0.92356962  0.24431593  1  -1.187036  0  -0.356658  -0.62737  0  2.27406  0
O  O131  1  0.92141808  0.27328773  0.57426165  1  -1.188563  0  -0.35711  -0.631879  0  2.254596  0
O  O132  1  0.79646053  0.07213391  0.56968230  1  -1.249663  0  -0.693754  -1.064926  0  2.360618  0
O  O133  1  0.06450985  0.06972597  0.57432151  1  -1.237713  0  -0.694652  -1.067938  0  2.354758  0
O  O134  1  0.06776762  0.06827737  0.30208267  1  -1.223072  0  -0.695814  -1.068249  0  2.356726  0
O  O135  1  0.06360927  0.80033032  0.57223937  1  -1.256856  0  -0.695731  -1.068724  0  2.358372  0
O  O136  1  0.14646460  0.95210241  0.45703124  1  -1.199528  0  -0.797703  -1.145833  0  2.154525  0
O  O137  1  0.94929526  0.95377377  0.45320848  1  -1.195246  0  -0.794627  -1.144376  0  2.148159  0
O  O138  1  0.94977796  0.15056805  0.45451705  1  -1.192406  0  -0.795791  -1.145003  0  2.147571  0
O  O139  1  0.94762965  0.95431352  0.65162765  1  -1.197222  0  -0.794243  -1.144331  0  2.143742  0
O  O140  1  0.07061093  0.47356741  0.15191470  1  -1.137692  0  -0.355847  -0.425196  0  2.30494  0
O  O141  1  0.06572748  0.65322861  0.97962026  1  -1.134813  0  -0.35245  -0.420854  0  2.291264  0
O  O142  1  0.98642981  0.41123989  0.71360157  1  -1.136484  0  -0.348363  -0.42509  0  2.360645  0
O  O143  1  0.97673328  0.23127802  0.89034429  1  -1.177366  0  -0.377171  -0.475044  0  2.352624  0
