# generated using pymatgen
data_FeH14C24(BrN5)2
_symmetry_space_group_name_H-M   'P 1'
_cell_length_a   8.35073095
_cell_length_b   10.19118514
_cell_length_c   14.42640000
_cell_angle_alpha   90.00000000
_cell_angle_beta   90.00000000
_cell_angle_gamma   102.82763181
_symmetry_Int_Tables_number   1
_chemical_formula_structural   FeH14C24(BrN5)2
_chemical_formula_sum   'Fe2 H28 C48 Br4 N20'
_cell_volume   1197.10060978
_cell_formula_units_Z   2
loop_
 _symmetry_equiv_pos_site_id
 _symmetry_equiv_pos_as_xyz
  1  'x, y, z'
loop_
 _atom_site_type_symbol
 _atom_site_label
 _atom_site_symmetry_multiplicity
 _atom_site_fract_x
 _atom_site_fract_y
 _atom_site_fract_z
 _atom_site_occupancy
 _atom_site_pbe_bader_charge
 _atom_site_pbe_bader_spin_density
 _atom_site_pbe_cm5_charge
 _atom_site_pbe_ddec_charge
 _atom_site_pbe_ddec_spin_density
 _atom_site_pbe_ddec_sum_bond_order
 _atom_site_pbe_magmom
Fe  Fe0  1  0.00000030  0.99999924  0.00000000  1  1.143271  0  0.778646  0.302037  0  3.700291  0
Fe  Fe1  1  0.49999903  0.50000012  0.50000000  1  1.143351  0  0.778577  0.301938  0  3.700397  0
H  H2  1  0.90274868  0.74601602  0.88031110  1  0.214794  0  0.118111  0.097656  0  1.077374  0
H  H3  1  0.59724694  0.75398334  0.38031110  1  0.214634  0  0.1181  0.097626  0  1.077344  0
H  H4  1  0.09725417  0.25398423  0.11968890  1  0.214834  0  0.118102  0.097674  0  1.077353  0
H  H5  1  0.40275112  0.24601690  0.61969029  1  0.214772  0  0.118104  0.097645  0  1.077344  0
H  H6  1  0.38962906  0.59077045  0.94998475  1  0.110508  0  0.109678  0.123036  0  0.980573  0
H  H7  1  0.11036788  0.90922891  0.44998544  1  0.110528  0  0.109661  0.123048  0  0.980539  0
H  H8  1  0.61037564  0.40922778  0.05001317  1  0.110506  0  0.109667  0.122973  0  0.980551  0
H  H9  1  0.88963111  0.09077033  0.55001386  1  0.11051  0  0.109649  0.123016  0  0.980568  0
H  H10  1  0.41027967  0.78871572  0.05696501  1  0.118013  0  0.109339  0.124277  0  1.014017  0
H  H11  1  0.08972031  0.71128163  0.55696639  1  0.118731  0  0.109336  0.124229  0  1.01406  0
H  H12  1  0.58971822  0.21127949  0.94303291  1  0.118728  0  0.109355  0.124276  0  1.014012  0
H  H13  1  0.91027895  0.28871862  0.44303361  1  0.118718  0  0.109341  0.124243  0  1.014053  0
H  H14  1  0.88628123  0.36778200  0.26232047  1  0.10934  0  0.106519  0.118144  0  1.029337  0
H  H15  1  0.61371621  0.13221712  0.76231770  1  0.10981  0  0.106518  0.118116  0  1.02931  0
H  H16  1  0.11371737  0.63222026  0.73768092  1  0.109321  0  0.106504  0.118129  0  1.029322  0
H  H17  1  0.38628572  0.86778414  0.23768230  1  0.109778  0  0.106524  0.118123  0  1.029397  0
H  H18  1  0.80292919  0.49382512  0.38655659  1  0.125172  0  0.112101  0.073656  0  1.097562  0
H  H19  1  0.69706799  0.00617299  0.88655451  1  0.125148  0  0.112109  0.073634  0  1.097639  0
H  H20  1  0.19706888  0.50617513  0.61344480  1  0.125176  0  0.112082  0.073611  0  1.097591  0
H  H21  1  0.30293339  0.99382625  0.11344480  1  0.125133  0  0.112095  0.073593  0  1.097671  0
H  H22  1  0.32532679  0.25802072  0.38319816  1  0.07879  0  0.113848  0.080263  0  1.045448  0
H  H23  1  0.17467088  0.24197437  0.88319608  1  0.078834  0  0.113841  0.080237  0  1.04546  0
H  H24  1  0.67467247  0.74197952  0.61680253  1  0.078796  0  0.113848  0.080272  0  1.045447  0
H  H25  1  0.82532811  0.75802487  0.11680392  1  0.078825  0  0.113845  0.080249  0  1.045445  0
H  H26  1  0.39488453  0.11772760  0.25933636  1  0.098084  0  0.106531  0.118787  0  1.018592  0
H  H27  1  0.10511542  0.38227152  0.75933705  1  0.098096  0  0.106543  0.118833  0  1.018557  0
H  H28  1  0.60511500  0.88227365  0.74066295  1  0.098063  0  0.106525  0.118794  0  1.018605  0
H  H29  1  0.89488650  0.61772973  0.24066434  1  0.098128  0  0.106557  0.11881  0  1.0186  0
C  C30  1  0.79084800  0.75172508  0.91796152  1  0.496065  0  0.038518  0.023308  0  3.876799  0
C  C31  1  0.70914909  0.74827529  0.41796221  1  0.496163  0  0.038474  0.023277  0  3.876627  0
C  C32  1  0.20915550  0.24827315  0.08203779  1  0.495915  0  0.038493  0.023176  0  3.876755  0
C  C33  1  0.29084750  0.25172395  0.58203918  1  0.496067  0  0.038503  0.023283  0  3.87664  0
C  C34  1  0.64449998  0.65504442  0.90837423  1  -0.130402  0  -0.022042  0.044808  0  3.999153  0
C  C35  1  0.85549472  0.84495595  0.40837700  1  -0.130322  0  -0.022022  0.044822  0  3.999058  0
C  C36  1  0.35550260  0.34495482  0.09162300  1  -0.130092  0  -0.022109  0.044807  0  3.999137  0
C  C37  1  0.14450095  0.15504430  0.59162577  1  -0.130417  0  -0.022035  0.044846  0  3.999089  0
C  C38  1  0.50427418  0.66544914  0.95784950  1  -0.020442  0  -0.083812  -0.107951  0  4.01636  0
C  C39  1  0.99572319  0.83455223  0.45785088  1  -0.020395  0  -0.083851  -0.108064  0  4.016238  0
C  C40  1  0.49572905  0.33454809  0.04214912  1  -0.020434  0  -0.083782  -0.107822  0  4.016195  0
C  C41  1  0.00427487  0.16544801  0.54214912  1  -0.020413  0  -0.08386  -0.108076  0  4.0162  0
C  C42  1  0.51536157  0.77511683  0.01653912  1  -0.010105  0  -0.077163  -0.122214  0  3.948388  0
C  C43  1  0.98463884  0.72488253  0.51654120  1  -0.010853  0  -0.077108  -0.122062  0  3.948247  0
C  C44  1  0.48463991  0.22487839  0.98346088  1  -0.010882  0  -0.077135  -0.122176  0  3.948302  0
C  C45  1  0.01535950  0.27511872  0.48345949  1  -0.010856  0  -0.077086  -0.122024  0  3.948179  0
C  C46  1  0.66362925  0.86978678  0.02381190  1  0.45757  0  0.112206  0.130014  0  3.993248  0
C  C47  1  0.83637024  0.63021358  0.52381329  1  0.457521  0  0.112169  0.129964  0  3.993267  0
C  C48  1  0.33637131  0.13020943  0.97618810  1  0.457467  0  0.112193  0.129955  0  3.993423  0
C  C49  1  0.16362837  0.36978868  0.47618741  1  0.457525  0  0.112165  0.129914  0  3.993341  0
C  C50  1  0.69256447  0.98747715  0.08182083  1  0.943736  0  0.194599  0.196805  0  4.106923  0
C  C51  1  0.80743262  0.51252322  0.58182221  1  0.943862  0  0.194608  0.196788  0  4.106984  0
C  C52  1  0.30743451  0.01252209  0.91817779  1  0.943832  0  0.194617  0.19684  0  4.107038  0
C  C53  1  0.19256544  0.48747702  0.41817848  1  0.943777  0  0.194627  0.196846  0  4.107033  0
C  C54  1  0.69560615  0.14606860  0.17491890  1  0.907418  0  0.186042  0.224587  0  4.100269  0
C  C55  1  0.80439184  0.35393252  0.67492029  1  0.907457  0  0.186087  0.224634  0  4.10022  0
C  C56  1  0.30439218  0.85393265  0.82507971  1  0.907448  0  0.18607  0.22459  0  4.100229  0
C  C57  1  0.19560889  0.64606873  0.32507971  1  0.907423  0  0.185988  0.224509  0  4.10031  0
C  C58  1  0.64764893  0.22955191  0.24690013  1  0.014808  0  0.004524  0.064131  0  4.025335  0
C  C59  1  0.85234971  0.27044721  0.74689943  1  0.014786  0  0.004507  0.06411  0  4.025343  0
C  C60  1  0.35234940  0.77044935  0.75309918  1  0.014767  0  0.004505  0.064129  0  4.025333  0
C  C61  1  0.14765369  0.72955505  0.25310126  1  0.014836  0  0.004513  0.064118  0  4.025378  0
C  C62  1  0.75918388  0.33933029  0.28554872  1  0.017676  0  -0.090209  -0.176853  0  3.966616  0
C  C63  1  0.74081449  0.16066782  0.78554664  1  -0.05089  0  -0.090192  -0.176773  0  3.966552  0
C  C64  1  0.24081473  0.66067196  0.71445059  1  0.017649  0  -0.090191  -0.176847  0  3.966676  0
C  C65  1  0.25918863  0.83933343  0.21445336  1  0.017313  0  -0.090214  -0.176856  0  3.966693  0
C  C66  1  0.71094330  0.41227000  0.35734764  1  0.387686  0  0.031691  0.061594  0  3.942298  0
C  C67  1  0.78905388  0.08772811  0.85734556  1  0.455729  0  0.031649  0.061524  0  3.942349  0
C  C68  1  0.28905504  0.58773125  0.64265375  1  0.387652  0  0.031706  0.0617  0  3.94223  0
C  C69  1  0.21094778  0.91227213  0.14265375  1  0.387502  0  0.031706  0.061697  0  3.942451  0
C  C70  1  0.44937386  0.28086300  0.35579493  1  0.418111  0  0.031938  0.065917  0  3.941278  0
C  C71  1  0.05062380  0.21913209  0.85579285  1  0.410946  0  0.031969  0.065961  0  3.941348  0
C  C72  1  0.55062540  0.71913725  0.64420507  1  0.418129  0  0.031944  0.065912  0  3.941352  0
C  C73  1  0.94937731  0.78086614  0.14420715  1  0.410891  0  0.031942  0.065917  0  3.941436  0
C  C74  1  0.48871903  0.20172112  0.28488327  1  0.011193  0  -0.088071  -0.163908  0  3.949918  0
C  C75  1  0.01127973  0.29827800  0.78488327  1  0.01098  0  -0.088086  -0.163978  0  3.949967  0
C  C76  1  0.51128078  0.79828114  0.71511604  1  0.011193  0  -0.088037  -0.163903  0  3.949966  0
C  C77  1  0.98872100  0.70172325  0.21511742  1  0.011018  0  -0.088051  -0.163849  0  3.949902  0
Br  Br78  1  0.63819868  0.50967825  0.82601689  1  -0.03049  0  0.073189  -0.012238  0  1.625946  0
Br  Br79  1  0.86179123  0.99032212  0.32602035  1  -0.0306  0  0.073155  -0.012256  0  1.625923  0
Br  Br80  1  0.36180777  0.49032199  0.17397965  1  -0.030704  0  0.073214  -0.012218  0  1.625929  0
Br  Br81  1  0.13819273  0.00967914  0.67398589  1  -0.030565  0  0.073145  -0.012277  0  1.625947  0
N  N82  1  0.80134493  0.85798927  0.97509427  1  -1.184403  0  -0.338659  -0.175217  0  3.600736  0
N  N83  1  0.69865429  0.64201009  0.47509496  1  -1.184432  0  -0.338598  -0.175151  0  3.600587  0
N  N84  1  0.19865591  0.14200796  0.02490504  1  -1.184294  0  -0.338628  -0.175207  0  3.600709  0
N  N85  1  0.30134377  0.35799015  0.52490573  1  -1.184392  0  -0.338642  -0.1752  0  3.600593  0
N  N86  1  0.84770895  0.06565771  0.08046567  1  -0.680574  0  -0.258499  -0.141966  0  3.630117  0
N  N87  1  0.65228877  0.43434241  0.58046775  1  -0.680617  0  -0.258479  -0.141915  0  3.630152  0
N  N88  1  0.15229004  0.93434153  0.91953363  1  -0.680557  0  -0.258497  -0.141931  0  3.630152  0
N  N89  1  0.34771049  0.56565783  0.41953294  1  -0.680612  0  -0.258474  -0.141919  0  3.630155  0
N  N90  1  0.85110237  0.16799309  0.13990393  1  -0.651209  0  -0.223363  -0.244005  0  3.161744  0
N  N91  1  0.64889655  0.33200704  0.63990462  1  -0.651264  0  -0.223397  -0.244038  0  3.161778  0
N  N92  1  0.14889689  0.83200716  0.86009538  1  -0.651248  0  -0.223394  -0.244048  0  3.1618  0
N  N93  1  0.35110364  0.66799220  0.36009538  1  -0.651253  0  -0.223345  -0.243977  0  3.161737  0
N  N94  1  0.59324328  0.03455928  0.14002246  1  -1.18339  0  -0.33088  -0.401208  0  3.246678  0
N  N95  1  0.90675618  0.46544285  0.64002385  1  -1.183422  0  -0.33091  -0.401251  0  3.246677  0
N  N96  1  0.40675598  0.96544096  0.85997615  1  -1.183369  0  -0.330915  -0.40123  0  3.246656  0
N  N97  1  0.09324362  0.53455941  0.35997615  1  -1.183344  0  -0.330902  -0.401232  0  3.246636  0
N  N98  1  0.55752348  0.38647809  0.39411010  1  -1.18955  0  -0.325412  -0.152391  0  3.556214  0
N  N99  1  0.94247528  0.11351700  0.89410802  1  -1.182126  0  -0.325397  -0.152311  0  3.55611  0
N  N100  1  0.44247551  0.61352115  0.60589059  1  -1.18949  0  -0.325436  -0.15244  0  3.556226  0
N  N101  1  0.05752556  0.88648022  0.10589128  1  -1.182099  0  -0.325427  -0.152426  0  3.556321  0
