# generated using pymatgen
data_CoH14C14(NO)4
_symmetry_space_group_name_H-M   'P 1'
_cell_length_a   7.42070563
_cell_length_b   9.96046800
_cell_length_c   10.10659957
_cell_angle_alpha   89.99866326
_cell_angle_beta   108.03502523
_cell_angle_gamma   90.00147894
_symmetry_Int_Tables_number   1
_chemical_formula_structural   CoH14C14(NO)4
_chemical_formula_sum   'Co2 H28 C28 N8 O8'
_cell_volume   710.31335672
_cell_formula_units_Z   2
loop_
 _symmetry_equiv_pos_site_id
 _symmetry_equiv_pos_as_xyz
  1  'x, y, z'
loop_
 _atom_site_type_symbol
 _atom_site_label
 _atom_site_symmetry_multiplicity
 _atom_site_fract_x
 _atom_site_fract_y
 _atom_site_fract_z
 _atom_site_occupancy
 _atom_site_hse06_10hf_ddec_charge
 _atom_site_hse06_10hf_ddec_spin_density
 _atom_site_hse06_10hf_ddec_sum_bond_order
 _atom_site_hse06_10hf_magmom
 _atom_site_hse06_ddec_charge
 _atom_site_hse06_ddec_spin_density
 _atom_site_hse06_ddec_sum_bond_order
 _atom_site_hse06_magmom
 _atom_site_pbe_cm5_charge
 _atom_site_pbe_ddec_charge
 _atom_site_pbe_ddec_spin_density
 _atom_site_pbe_ddec_sum_bond_order
 _atom_site_pbe_magmom
Co  Co0  1  0.99999654  0.49999924  0.50000050  1  0.669131  0.999939  2.745439  0.923  0.760316  1.010388  2.662459  0.94  0.570258  0.62244  0.982469  2.793405  0.89
Co  Co1  1  0.00000303  0.00000135  0.99999692  1  0.669055  0.999937  2.74566  0.923  0.760366  1.010395  2.66259  0.94  0.570294  0.622537  0.982486  2.793533  0.89
H  H2  1  0.19900601  0.65756336  0.42913614  1  0.275926  -0.000253  0.984584  0.0  0.28135  -0.000132  0.983051  0.0  0.293715  0.272385  -0.000395  0.985702  0.0
H  H3  1  0.80099510  0.15755762  0.07086866  1  0.275946  -0.000253  0.984595  0.0  0.281371  -0.000132  0.983066  0.0  0.293746  0.272404  -0.000395  0.985717  0.0
H  H4  1  0.80099009  0.34243565  0.57086806  1  0.275894  -0.000253  0.984589  0.0  0.28132  -0.000132  0.983056  0.0  0.293682  0.272351  -0.000395  0.98571  0.0
H  H5  1  0.19900506  0.84244240  0.92912849  1  0.275895  -0.000253  0.984638  0.0  0.281321  -0.000132  0.98311  0.0  0.293725  0.272354  -0.000395  0.985757  0.0
H  H6  1  0.97696626  0.71832834  0.39597352  1  0.286129  -0.000313  1.021034  0.0  0.29461  -0.000202  1.015373  0.0  0.288284  0.280119  -0.000272  1.025508  0.0
H  H7  1  0.02303328  0.21832810  0.10401273  1  0.28627  -0.000313  1.020902  0.0  0.294751  -0.000202  1.015245  0.0  0.288324  0.280245  -0.000272  1.025407  0.0
H  H8  1  0.02302969  0.28167268  0.60402471  1  0.286127  -0.000314  1.021028  0.0  0.29461  -0.000202  1.015368  0.0  0.288301  0.280125  -0.000272  1.025493  0.0
H  H9  1  0.97696540  0.78167091  0.89598213  1  0.286185  -0.000313  1.020944  0.0  0.294665  -0.000202  1.015289  0.0  0.288315  0.280173  -0.000272  1.025425  0.0
H  H10  1  0.91082277  0.64318908  0.70342656  1  0.308318  -0.000674  0.967365  -0.001  0.314478  -0.000678  0.962744  -0.001  0.301924  0.304048  -0.000606  0.970833  0.0
H  H11  1  0.08919350  0.14318962  0.79656919  1  0.308394  -0.000674  0.967228  -0.001  0.314551  -0.000677  0.962605  -0.001  0.30194  0.304125  -0.000605  0.970701  0.0
H  H12  1  0.08917891  0.35681093  0.29657488  1  0.308391  -0.000674  0.967233  -0.001  0.314551  -0.000678  0.962609  -0.001  0.301931  0.304119  -0.000605  0.970704  0.0
H  H13  1  0.91081243  0.85681542  0.20343316  1  0.308359  -0.000674  0.967322  -0.001  0.314515  -0.000678  0.962707  -0.001  0.30194  0.304089  -0.000606  0.970797  0.0
H  H14  1  0.10702864  0.55540652  0.78309245  1  0.30267  -0.000609  0.916941  0.0  0.307488  -0.000638  0.914923  0.0  0.30958  0.299904  -0.000531  0.917703  0.0
H  H15  1  0.89298505  0.05540111  0.71689981  1  0.302604  -0.000609  0.91705  0.0  0.307414  -0.000637  0.91504  0.0  0.309541  0.29984  -0.00053  0.917813  0.0
H  H16  1  0.89297294  0.44458747  0.21690500  1  0.302579  -0.000608  0.9172  0.0  0.307395  -0.000637  0.915186  0.0  0.309577  0.299811  -0.00053  0.917959  0.0
H  H17  1  0.10702363  0.94460091  0.28310017  1  0.302567  -0.000609  0.917153  0.0  0.307379  -0.000636  0.915142  0.0  0.309568  0.299802  -0.00053  0.917914  0.0
H  H18  1  0.90633239  0.86846212  0.57227293  1  0.141776  -0.000106  0.981019  0.0  0.145545  -8.5e-05  0.979056  0.0  0.110685  0.138765  -9.7e-05  0.983287  0.0
H  H19  1  0.09367327  0.36844862  0.92772034  1  0.14174  -0.000105  0.981071  0.0  0.145509  -8.5e-05  0.979112  0.0  0.110664  0.138769  -9.8e-05  0.983282  0.0
H  H20  1  0.09367072  0.13155496  0.42772981  1  0.141828  -0.000105  0.981143  0.0  0.145601  -8.4e-05  0.979177  0.0  0.110661  0.138815  -9.7e-05  0.983413  0.0
H  H21  1  0.90632961  0.63154939  0.07227345  1  0.141736  -0.000105  0.98107  0.0  0.145504  -8.5e-05  0.979113  0.0  0.110658  0.13876  -9.7e-05  0.983288  0.0
H  H22  1  0.46040279  0.70493292  0.61616001  1  0.121789  8.1e-05  1.04374  0.0  0.126097  2.4e-05  1.040325  0.0  0.103024  0.118468  0.000115  1.047074  0.0
H  H23  1  0.53957309  0.20494600  0.88384149  1  0.121797  8.1e-05  1.043815  0.0  0.126104  2.4e-05  1.040403  0.0  0.103071  0.11848  0.000115  1.047143  0.0
H  H24  1  0.53959190  0.29505605  0.38384389  1  0.12182  8.1e-05  1.043819  0.0  0.126127  2.4e-05  1.040406  0.0  0.103073  0.118499  0.000115  1.047155  0.0
H  H25  1  0.46041461  0.79506104  0.11616486  1  0.121762  8.1e-05  1.043942  0.0  0.126068  2.4e-05  1.040529  0.0  0.10306  0.118444  0.000115  1.047269  0.0
H  H26  1  0.59936992  0.53014019  0.62082355  1  0.12953  -6.4e-05  1.030792  0.0  0.133685  -0.000139  1.027567  0.0  0.107339  0.126437  -4.5e-05  1.033655  0.0
H  H27  1  0.40065169  0.03013066  0.87917594  1  0.129562  -6.4e-05  1.030724  0.0  0.133715  -0.000139  1.027499  0.0  0.107379  0.126468  -4.5e-05  1.033587  0.0
H  H28  1  0.40062869  0.46984878  0.37916832  1  0.129559  -6.4e-05  1.030636  0.0  0.133718  -0.00014  1.027417  0.0  0.107382  0.126465  -4.5e-05  1.033499  0.0
H  H29  1  0.59936562  0.96986534  0.12083084  1  0.129556  -6.4e-05  1.030841  0.0  0.133711  -0.000139  1.027616  0.0  0.107382  0.126462  -4.5e-05  1.033706  0.0
C  C30  1  0.05909010  0.86809705  0.62363476  1  -0.295121  0.005216  3.90661  0.007  -0.301645  0.004004  3.923277  0.005  -0.103877  -0.290421  0.005852  3.896908  0.007
C  C31  1  0.94090280  0.36808581  0.87635577  1  -0.295095  0.005218  3.906713  0.007  -0.301629  0.004007  3.923389  0.005  -0.103828  -0.290424  0.005855  3.897002  0.007
C  C32  1  0.94091587  0.13191100  0.37636958  1  -0.295113  0.005218  3.906704  0.007  -0.301645  0.004005  3.923377  0.005  -0.103812  -0.290413  0.005854  3.897001  0.007
C  C33  1  0.05908604  0.63191219  0.12363994  1  -0.294965  0.005216  3.906582  0.007  -0.301495  0.004005  3.923253  0.005  -0.103794  -0.29029  0.005853  3.89687  0.007
C  C34  1  0.17471574  0.77614210  0.58300555  1  0.294616  -0.002311  4.048714  -0.002  0.305397  -0.002816  4.069323  -0.002  0.082841  0.287066  -0.002308  4.036015  -0.002
C  C35  1  0.82526471  0.27613474  0.91698540  1  0.294509  -0.002313  4.049064  -0.002  0.305294  -0.002816  4.069687  -0.002  0.082705  0.286959  -0.00231  4.036378  -0.002
C  C36  1  0.82527596  0.22386293  0.41699176  1  0.294453  -0.002312  4.049048  -0.002  0.305234  -0.002813  4.069667  -0.002  0.082724  0.286905  -0.002309  4.036351  -0.002
C  C37  1  0.17473137  0.72386728  0.08301781  1  0.294276  -0.002312  4.049111  -0.002  0.305056  -0.002816  4.069737  -0.002  0.082628  0.286727  -0.002309  4.036426  -0.002
C  C38  1  0.37062088  0.77593137  0.64794320  1  -0.231409  0.00401  3.965185  0.005  -0.236839  0.003351  3.985214  0.004  -0.106841  -0.229801  0.006751  3.954029  0.008
C  C39  1  0.62936821  0.27593385  0.85205554  1  -0.231185  0.004012  3.965761  0.005  -0.236619  0.003353  3.985795  0.004  -0.106789  -0.229577  0.006752  3.954606  0.008
C  C40  1  0.62937943  0.22407266  0.35205992  1  -0.231296  0.004011  3.965357  0.005  -0.236729  0.003352  3.98539  0.004  -0.106873  -0.229691  0.006751  3.954204  0.008
C  C41  1  0.37062789  0.72407821  0.14794865  1  -0.230971  0.00401  3.965642  0.005  -0.2364  0.003352  3.985675  0.004  -0.106734  -0.22937  0.006749  3.954488  0.008
C  C42  1  0.66430923  0.86562073  0.81818305  1  0.583813  -0.005404  4.162246  -0.003  0.623681  -0.003128  4.150739  -0.001  0.206919  0.555752  -0.008253  4.170067  -0.005
C  C43  1  0.33568524  0.36563767  0.68181678  1  0.583873  -0.005402  4.161669  -0.003  0.623749  -0.003125  4.150151  -0.001  0.206846  0.555815  -0.008248  4.169491  -0.005
C  C44  1  0.33569515  0.13437427  0.18181402  1  0.583775  -0.005403  4.162413  -0.003  0.62364  -0.003128  4.150909  -0.001  0.206852  0.555715  -0.00825  4.170234  -0.005
C  C45  1  0.66430651  0.63436034  0.31818253  1  0.58401  -0.005402  4.161743  -0.003  0.62388  -0.003125  4.150227  -0.001  0.206951  0.555956  -0.008249  4.169557  -0.005
C  C46  1  0.14146748  0.96093962  0.72962479  1  0.294947  -0.001601  4.071302  -0.001  0.304946  -0.003226  4.091075  -0.002  0.085969  0.286997  -0.000165  4.059173  0.0
C  C47  1  0.85854919  0.46094235  0.77036575  1  0.295022  -0.001601  4.071234  -0.001  0.305033  -0.003232  4.090996  -0.002  0.086039  0.287065  -0.000165  4.05912  0.0
C  C48  1  0.85854836  0.03906040  0.27037969  1  0.295041  -0.0016  4.071432  -0.001  0.305045  -0.00323  4.091211  -0.002  0.086031  0.287091  -0.000164  4.059307  0.0
C  C49  1  0.14144522  0.53905867  0.22962720  1  0.29489  -0.0016  4.071343  -0.001  0.3049  -0.00323  4.091114  -0.002  0.085947  0.286932  -0.000165  4.059221  0.0
C  C50  1  0.45292634  0.86803100  0.75370898  1  -0.011297  -0.003292  4.05272  -0.002  -0.01604  -0.002983  4.074012  -0.002  -0.024049  -0.007656  -0.004028  4.038834  -0.003
C  C51  1  0.54708245  0.36803239  0.74629684  1  -0.011517  -0.003294  4.052987  -0.002  -0.016259  -0.002987  4.074277  -0.002  -0.024129  -0.007876  -0.004028  4.039104  -0.003
C  C52  1  0.54707814  0.13196700  0.24629207  1  -0.011473  -0.003294  4.052826  -0.002  -0.016216  -0.002988  4.074121  -0.002  -0.024109  -0.007831  -0.004029  4.038944  -0.003
C  C53  1  0.45291643  0.63197064  0.25370598  1  -0.011746  -0.003294  4.053053  -0.002  -0.01649  -0.002984  4.074351  -0.002  -0.024201  -0.008103  -0.004027  4.039169  -0.003
C  C54  1  0.66156274  0.46001056  0.70491169  1  -0.233345  0.002607  3.950304  0.004  -0.237931  0.002316  3.968035  0.003  -0.101403  -0.231471  0.004298  3.939725  0.005
C  C55  1  0.33844135  0.96000904  0.79508409  1  -0.233394  0.002605  3.950132  0.004  -0.237973  0.002311  3.967846  0.003  -0.101456  -0.231543  0.004295  3.939611  0.005
C  C56  1  0.33842602  0.53998744  0.29508104  1  -0.23325  0.002606  3.950171  0.004  -0.237834  0.002313  3.967882  0.003  -0.10138  -0.231393  0.004295  3.939628  0.005
C  C57  1  0.66156882  0.03998595  0.20491918  1  -0.2334  0.002605  3.950284  0.004  -0.237973  0.002315  3.967984  0.003  -0.101418  -0.231538  0.004294  3.939738  0.005
N  N58  1  0.09685413  0.68319119  0.47351899  1  -0.59029  -0.010405  3.531401  -0.008  -0.623903  -0.009031  3.530837  -0.007  -0.618984  -0.569194  -0.009173  3.532413  -0.007
N  N59  1  0.90314044  0.18318441  0.02647689  1  -0.590452  -0.010405  3.531311  -0.008  -0.624061  -0.009032  3.53069  -0.007  -0.619042  -0.569384  -0.009172  3.532396  -0.007
N  N60  1  0.90314757  0.31680883  0.52648344  1  -0.590265  -0.010406  3.531453  -0.008  -0.623863  -0.009034  3.530841  -0.007  -0.61892  -0.569171  -0.009174  3.532467  -0.007
N  N61  1  0.09685691  0.81681661  0.97352064  1  -0.590292  -0.010406  3.531382  -0.008  -0.623899  -0.009033  3.530766  -0.007  -0.618985  -0.569224  -0.009174  3.532423  -0.007
N  N62  1  0.02958887  0.04947276  0.78017127  1  -0.606645  0.021244  3.376688  0.033  -0.629935  0.018276  3.372451  0.029  -0.588076  -0.589702  0.02436  3.378415  0.035
N  N63  1  0.97042052  0.54947197  0.71982515  1  -0.606665  0.02124  3.37688  0.033  -0.629965  0.018276  3.372639  0.029  -0.588125  -0.589701  0.024357  3.378591  0.035
N  N64  1  0.97042140  0.95053328  0.21983597  1  -0.606602  0.021239  3.377059  0.033  -0.629906  0.018273  3.372835  0.029  -0.588141  -0.589649  0.024355  3.378754  0.035
N  N65  1  0.02957110  0.45052101  0.28016918  1  -0.606546  0.021242  3.37677  0.033  -0.629845  0.018276  3.372537  0.029  -0.588054  -0.589594  0.024359  3.378514  0.035
O  O66  1  0.75852685  0.77922658  0.77545236  1  -0.566087  -0.002981  2.222154  -0.002  -0.588514  -0.002783  2.212681  -0.002  -0.318844  -0.550858  -0.004208  2.22957  -0.003
O  O67  1  0.24146425  0.27924676  0.72456654  1  -0.566181  -0.002979  2.221853  -0.002  -0.588605  -0.002781  2.212351  -0.002  -0.318833  -0.550947  -0.004205  2.229268  -0.003
O  O68  1  0.24147596  0.22076841  0.22453844  1  -0.566145  -0.00298  2.22219  -0.002  -0.588567  -0.002781  2.212698  -0.002  -0.318846  -0.550904  -0.004207  2.229599  -0.003
O  O69  1  0.75853344  0.72075225  0.27544493  1  -0.566267  -0.00298  2.221888  -0.002  -0.588675  -0.002781  2.212378  -0.002  -0.318916  -0.551033  -0.004206  2.229297  -0.003
O  O70  1  0.73563266  0.95446050  0.91304623  1  -0.539823  -0.005112  2.450571  -0.003  -0.582616  -0.00732  2.440495  -0.004  -0.313325  -0.512039  -0.002533  2.456243  -0.001
O  O71  1  0.26437135  0.45446827  0.58695263  1  -0.539779  -0.005112  2.450689  -0.003  -0.582549  -0.007323  2.440604  -0.004  -0.313219  -0.51197  -0.002533  2.456345  -0.001
O  O72  1  0.26437880  0.04553651  0.08695237  1  -0.53971  -0.005112  2.450647  -0.003  -0.582505  -0.007324  2.440575  -0.004  -0.313233  -0.511929  -0.002533  2.456318  -0.001
O  O73  1  0.73561744  0.54552171  0.41304109  1  -0.539792  -0.005112  2.450692  -0.003  -0.582564  -0.007324  2.440603  -0.004  -0.313236  -0.511988  -0.002533  2.456354  -0.001
