# generated using pymatgen
data_MoH9C13SN(O2F3)2
_symmetry_space_group_name_H-M   'P 1'
_cell_length_a   11.92322735
_cell_length_b   12.49821835
_cell_length_c   13.01681471
_cell_angle_alpha   112.88439572
_cell_angle_beta   106.99575158
_cell_angle_gamma   95.28256305
_symmetry_Int_Tables_number   1
_chemical_formula_structural   MoH9C13SN(O2F3)2
_chemical_formula_sum   'Mo4 H36 C52 S4 N4 O16 F24'
_cell_volume   1661.78319491
_cell_formula_units_Z   4
loop_
 _symmetry_equiv_pos_site_id
 _symmetry_equiv_pos_as_xyz
  1  'x, y, z'
loop_
 _atom_site_type_symbol
 _atom_site_label
 _atom_site_symmetry_multiplicity
 _atom_site_fract_x
 _atom_site_fract_y
 _atom_site_fract_z
 _atom_site_occupancy
 _atom_site_pbe_bader_spin_density
 _atom_site_pbe_cm5_charge
 _atom_site_pbe_ddec_charge
 _atom_site_pbe_ddec_spin_density
 _atom_site_pbe_ddec_sum_bond_order
 _atom_site_pbe_magmom
Mo  Mo0  1  0.56334385  0.05626181  0.08898243  1  0  0.826773  0.89568  0  4.091733  0
Mo  Mo1  1  0.43665543  0.94373410  0.91100913  1  0  0.826748  0.895615  0  4.09178  0
Mo  Mo2  1  0.41942114  0.50118924  0.52091558  1  0  0.832185  0.895605  0  4.105501  0
Mo  Mo3  1  0.58054013  0.49880938  0.47909518  1  0  0.832249  0.895697  0  4.10572  0
H  H4  1  0.87568144  0.37193722  0.85559601  1  0  0.076941  0.113283  0  1.071956  0
H  H5  1  0.12432523  0.62806407  0.14440415  1  0  0.076937  0.113274  0  1.072036  0
H  H6  1  0.77529253  0.23446524  0.74047176  1  0  0.089984  0.141983  0  1.000783  0
H  H7  1  0.22471523  0.76553694  0.25952825  1  0  0.089999  0.142053  0  1.000691  0
H  H8  1  0.79309489  0.36277644  0.71312228  1  0  0.087112  0.137955  0  1.010359  0
H  H9  1  0.20691158  0.63722396  0.28687672  1  0  0.087121  0.137923  0  1.01031  0
H  H10  1  0.78730183  0.88567050  0.43442944  1  0  0.094034  0.139567  0  1.003989  0
H  H11  1  0.21270397  0.11433078  0.56556894  1  0  0.09401  0.139572  0  1.004032  0
H  H12  1  0.83978231  0.96531398  0.36455183  1  0  0.088531  0.126867  0  1.029293  0
H  H13  1  0.16022307  0.03468551  0.63544424  1  0  0.088567  0.126921  0  1.029237  0
H  H14  1  0.70710435  0.98525011  0.39616153  1  0  0.089149  0.139315  0  1.01971  0
H  H15  1  0.29290558  0.01475386  0.60384435  1  0  0.089134  0.139307  0  1.019831  0
H  H16  1  0.84787983  0.87945670  0.62509514  1  0  0.097259  0.150324  0  1.004047  0
H  H17  1  0.15213145  0.12054548  0.37490582  1  0  0.09726  0.150298  0  1.003999  0
H  H18  1  0.99603231  0.94147206  0.73450892  1  0  0.09541  0.144512  0  0.992487  0
H  H19  1  0.00397725  0.05852655  0.26549102  1  0  0.095386  0.144429  0  0.992589  0
H  H20  1  0.97426506  0.88150014  0.58020949  1  0  0.096388  0.136282  0  1.026291  0
H  H21  1  0.02574365  0.11849489  0.41978890  1  0  0.096337  0.136231  0  1.026254  0
H  H22  1  0.19077742  0.29589774  0.74015834  1  0  0.083006  0.128436  0  1.04484  0
H  H23  1  0.80922796  0.70410175  0.25984003  1  0  0.083028  0.128468  0  1.044906  0
H  H24  1  0.20598900  0.42353215  0.71023588  1  0  0.09602  0.155199  0  1.001776  0
H  H25  1  0.79401680  0.57646913  0.28976327  1  0  0.096013  0.155216  0  1.001875  0
H  H26  1  0.10732794  0.28655776  0.59732658  1  0  0.087661  0.128899  0  1.026243  0
H  H27  1  0.89267698  0.71344352  0.40267310  1  0  0.08767  0.128902  0  1.026256  0
H  H28  1  0.04439977  0.75575567  0.75733817  1  0  0.093239  0.134229  0  1.013509  0
H  H29  1  0.95559508  0.24424382  0.24265660  1  0  0.093211  0.134268  0  1.013493  0
H  H30  1  0.89113540  0.67498027  0.68709354  1  0  0.088688  0.13583  0  1.01941  0
H  H31  1  0.10885990  0.32501744  0.31290453  1  0  0.088712  0.135861  0  1.019412  0
H  H32  1  0.99163215  0.64322605  0.60842712  1  0  0.085912  0.118154  0  1.042884  0
H  H33  1  0.00836315  0.35677166  0.39157018  1  0  0.085901  0.118155  0  1.042868  0
H  H34  1  0.20442282  0.73542858  0.03425844  1  0  0.087896  0.136258  0  1.015949  0
H  H35  1  0.79558365  0.26457181  0.96574056  1  0  0.087895  0.136229  0  1.016014  0
H  H36  1  0.06035783  0.76507223  0.98880188  1  0  0.089384  0.136677  0  1.02364  0
H  H37  1  0.93964818  0.23492994  0.01119766  1  0  0.089389  0.136676  0  1.023625  0
H  H38  1  0.16674407  0.79284523  0.92622015  1  0  0.096826  0.15105  0  1.016814  0
H  H39  1  0.83325826  0.20715248  0.07377521  1  0  0.096814  0.15103  0  1.016823  0
C  C40  1  0.85777396  0.25267609  0.50709179  1  0  -0.016965  -0.077067  0  4.092427  0
C  C41  1  0.14222749  0.74732162  0.49290333  1  0  -0.016983  -0.07713  0  4.092543  0
C  C42  1  0.89400944  0.38445384  0.55748709  1  0  -0.020994  -0.082358  0  4.090026  0
C  C43  1  0.10598499  0.61554388  0.44251536  1  0  -0.020957  -0.082279  0  4.089848  0
C  C44  1  0.79555542  0.19146567  0.38295429  1  0  0.199165  0.286927  0  4.055603  0
C  C45  1  0.20444558  0.80853382  0.61703906  1  0  0.19909  0.286823  0  4.055576  0
C  C46  1  0.83305453  0.43831654  0.48834433  1  0  0.187262  0.271337  0  4.057599  0
C  C47  1  0.16693504  0.56168297  0.51166132  1  0  0.187282  0.271358  0  4.057704  0
C  C48  1  0.94301878  0.27551810  0.71424015  1  0  0.012066  0.094302  0  3.774646  0
C  C49  1  0.05698639  0.72448050  0.28575630  1  0  0.012037  0.094267  0  3.774574  0
C  C50  1  0.88637218  0.19552080  0.58030791  1  0  0.008924  0.01035  0  3.910793  0
C  C51  1  0.11363474  0.80447780  0.41968824  1  0  0.008982  0.010418  0  3.910727  0
C  C52  1  0.86990678  0.07121436  0.55148167  1  0  -0.028138  0.030614  0  3.983694  0
C  C53  1  0.13010386  0.92878514  0.44851659  1  0  -0.028131  0.030663  0  3.983802  0
C  C54  1  0.93040543  0.05133226  0.64818501  1  0  0.01344  0.09259  0  3.922094  0
C  C55  1  0.06960672  0.94866992  0.35181541  1  0  0.013429  0.092488  0  3.922353  0
C  C56  1  0.03873965  0.38143816  0.73665055  1  0  0.012857  0.0927  0  3.780101  0
C  C57  1  0.96126790  0.61856313  0.26335061  1  0  0.012816  0.092837  0  3.779856  0
C  C58  1  0.97761519  0.45093733  0.67211828  1  0  0.015858  0.025879  0  3.899187  0
C  C59  1  0.02238341  0.54905950  0.32788266  1  0  0.015973  0.02602  0  3.899021  0
C  C60  1  0.01639290  0.57686878  0.74155692  1  0  -0.024954  0.037718  0  3.967014  0
C  C61  1  0.98360461  0.42312715  0.25844109  1  0  -0.024974  0.037693  0  3.967121  0
C  C62  1  0.08362589  0.60806554  0.85967569  1  0  0.020607  0.11405  0  3.899862  0
C  C63  1  0.91637707  0.39193485  0.14032313  1  0  0.020582  0.113944  0  3.900005  0
C  C64  1  0.84023544  0.31382715  0.75941418  1  0  -0.24872  -0.432203  0  3.903079  0
C  C65  1  0.15977144  0.68617503  0.24058637  1  0  -0.24874  -0.432253  0  3.902987  0
C  C66  1  0.79762805  0.97198171  0.43076806  1  0  -0.243731  -0.398425  0  3.952521  0
C  C67  1  0.20238235  0.02802047  0.56923190  1  0  -0.243761  -0.398503  0  3.95269  0
C  C68  1  0.93773965  0.93252943  0.64775035  1  0  -0.239697  -0.417965  0  3.965621  0
C  C69  1  0.06227141  0.06747185  0.35224945  1  0  -0.239595  -0.417727  0  3.96564  0
C  C70  1  0.14293806  0.34414982  0.69379177  1  0  -0.247866  -0.439628  0  3.900675  0
C  C71  1  0.85706774  0.65585146  0.30620815  1  0  -0.24791  -0.43978  0  3.900871  0
C  C72  1  0.98429392  0.66751925  0.69630845  1  0  -0.243466  -0.388993  0  3.942687  0
C  C73  1  0.01570293  0.33247757  0.30368971  1  0  -0.243451  -0.389059  0  3.942765  0
C  C74  1  0.13205007  0.73151260  0.95730333  1  0  -0.244854  -0.419052  0  3.96451  0
C  C75  1  0.86795418  0.26848958  0.04269574  1  0  -0.244846  -0.418975  0  3.964639  0
C  C76  1  0.31834438  0.05522183  0.08103530  1  0  0.190224  0.372918  0  4.228697  0
C  C77  1  0.68166145  0.94477590  0.91896792  1  0  0.19018  0.372789  0  4.22902  0
C  C78  1  0.21313384  0.07910879  0.12533960  1  0  0.302964  0.596876  0  4.0388  0
C  C79  1  0.78686986  0.92088357  0.87465720  1  0  0.302969  0.597016  0  4.038708  0
C  C80  1  0.50827511  0.18948854  0.94857204  1  0  0.194811  0.379201  0  4.200786  0
C  C81  1  0.49173240  0.81051632  0.05143351  1  0  0.194736  0.378953  0  4.201043  0
C  C82  1  0.51601579  0.29459720  0.91542412  1  0  0.302963  0.602323  0  4.044713  0
C  C83  1  0.48398387  0.70540409  0.08457645  1  0  0.302986  0.602359  0  4.044611  0
C  C84  1  0.36831398  0.42764940  0.26734280  1  0  0.194326  0.379268  0  4.200552  0
C  C85  1  0.63167490  0.57235457  0.73265971  1  0  0.194366  0.37955  0  4.200088  0
C  C86  1  0.70343125  0.61013569  0.86513220  1  0  0.30248  0.599816  0  4.043975  0
C  C87  1  0.29656355  0.38986739  0.13487157  1  0  0.302538  0.600268  0  4.04347  0
C  C88  1  0.48222125  0.27163775  0.47001517  1  0  0.197959  0.387629  0  4.190209  0
C  C89  1  0.51775629  0.72835907  0.52998624  1  0  0.198072  0.387688  0  4.190287  0
C  C90  1  0.52277959  0.85482296  0.53782811  1  0  0.30323  0.598944  0  4.044156  0
C  C91  1  0.47720978  0.14517565  0.46217178  1  0  0.303407  0.599259  0  4.043836  0
S  S92  1  0.00693245  0.17829761  0.78025141  1  0  0.050539  0.022668  0  2.605792  0
S  S93  1  0.99307552  0.82170546  0.21974822  1  0  0.05054  0.022664  0  2.605776  0
S  S94  1  0.10740540  0.49019650  0.89468647  1  0  0.048851  0.019978  0  2.663652  0
S  S95  1  0.89260432  0.50980658  0.10531748  1  0  0.048902  0.020007  0  2.663657  0
N  N96  1  0.74640087  0.14846017  0.27922835  1  0  -0.3244  -0.385287  0  2.949521  0
N  N97  1  0.25359574  0.85153933  0.72076766  1  0  -0.324401  -0.385253  0  2.949295  0
N  N98  1  0.77422553  0.47835134  0.42913925  1  0  -0.330909  -0.398874  0  2.864941  0
N  N99  1  0.22575702  0.52164818  0.57086912  1  0  -0.330955  -0.398907  0  2.865108  0
O  O100  1  0.42558082  0.10258542  0.15696596  1  0  -0.315336  -0.44273  0  2.45028  0
O  O101  1  0.57442936  0.89741587  0.84303976  1  0  -0.31529  -0.442658  0  2.450689  0
O  O102  1  0.70884797  0.01459065  0.02873618  1  0  -0.308185  -0.447586  0  2.477548  0
O  O103  1  0.29116810  0.98541333  0.97127212  1  0  -0.308179  -0.447581  0  2.477621  0
O  O104  1  0.57313752  0.20644317  0.05320906  1  0  -0.31059  -0.429624  0  2.424919  0
O  O105  1  0.42686869  0.79355991  0.94679778  1  0  -0.310577  -0.429548  0  2.425089  0
O  O106  1  0.56000177  0.91039571  0.13299483  1  0  -0.312065  -0.439899  0  2.439249  0
O  O107  1  0.44001058  0.08960737  0.86701059  1  0  -0.312144  -0.440096  0  2.439378  0
O  O108  1  0.48219179  0.44126149  0.29697927  1  0  -0.307195  -0.419555  0  2.413961  0
O  O109  1  0.51779792  0.55874606  0.70302863  1  0  -0.30722  -0.419661  0  2.413696  0
O  O110  1  0.31190985  0.44559771  0.33985010  1  0  -0.308974  -0.451339  0  2.487503  0
O  O111  1  0.68807711  0.55440178  0.66014715  1  0  -0.308988  -0.451444  0  2.487326  0
O  O112  1  0.57047083  0.32023596  0.45437263  1  0  -0.306541  -0.442352  0  2.461608  0
O  O113  1  0.42950535  0.67976621  0.54562656  1  0  -0.306626  -0.442445  0  2.461729  0
O  O114  1  0.40010984  0.32257810  0.49705554  1  0  -0.313929  -0.439932  0  2.407683  0
O  O115  1  0.59987037  0.67741516  0.50294834  1  0  -0.314004  -0.439969  0  2.40772  0
F  F116  1  0.11740667  0.08523916  0.04225173  1  0  -0.099222  -0.193533  0  1.344339  0
F  F117  1  0.88259200  0.91475052  0.95774888  1  0  -0.099179  -0.193539  0  1.344381  0
F  F118  1  0.24550266  0.18255484  0.22677734  1  0  -0.090112  -0.186557  0  1.388247  0
F  F119  1  0.75450539  0.81744108  0.77321351  1  0  -0.090163  -0.186638  0  1.388206  0
F  F120  1  0.17543595  0.98866915  0.15061571  1  0  -0.090402  -0.192328  0  1.350043  0
F  F121  1  0.82456098  0.01132051  0.84937443  1  0  -0.090392  -0.192322  0  1.350029  0
F  F122  1  0.40593205  0.29738777  0.84868508  1  0  -0.095383  -0.186276  0  1.3208  0
F  F123  1  0.59407380  0.70260992  0.15130353  1  0  -0.095313  -0.186271  0  1.320744  0
F  F124  1  0.58772233  0.28115058  0.84776495  1  0  -0.105901  -0.203257  0  1.306151  0
F  F125  1  0.41227789  0.71886052  0.15223635  1  0  -0.105919  -0.203289  0  1.306191  0
F  F126  1  0.56402379  0.40049026  0.01267475  1  0  -0.093388  -0.185273  0  1.363153  0
F  F127  1  0.43595989  0.59950657  0.98733139  1  0  -0.093453  -0.185248  0  1.363112  0
F  F128  1  0.67032254  0.52447007  0.89706885  1  0  -0.097146  -0.199761  0  1.385699  0
F  F129  1  0.32967706  0.47553480  0.10293996  1  0  -0.09711  -0.19983  0  1.385662  0
F  F130  1  0.68132702  0.71342605  0.93627552  1  0  -0.100285  -0.200485  0  1.346551  0
F  F131  1  0.31866271  0.28658148  0.06372163  1  0  -0.100337  -0.200628  0  1.346415  0
F  F132  1  0.82390340  0.62845258  0.88921354  1  0  -0.091102  -0.189506  0  1.37718  0
F  F133  1  0.17608723  0.37155138  0.11078560  1  0  -0.091166  -0.189673  0  1.377023  0
F  F134  1  0.45472795  0.91191313  0.59803092  1  0  -0.084196  -0.18007  0  1.386447  0
F  F135  1  0.54526503  0.08809709  0.40197117  1  0  -0.084245  -0.180196  0  1.386571  0
F  F136  1  0.63749665  0.92291209  0.59257288  1  0  -0.093065  -0.191251  0  1.349673  0
F  F137  1  0.36249347  0.07707847  0.40741960  1  0  -0.093191  -0.191422  0  1.349414  0
F  F138  1  0.48016070  0.84798368  0.42529917  1  0  -0.103147  -0.200943  0  1.302839  0
F  F139  1  0.51983703  0.15201314  0.57469846  1  0  -0.103134  -0.200953  0  1.302831  0
