# generated using pymatgen
data_ZnH20C11N4(ClO)2
_symmetry_space_group_name_H-M   'P 1'
_cell_length_a   6.16930532
_cell_length_b   11.17445186
_cell_length_c   11.13907725
_cell_angle_alpha   90.00004474
_cell_angle_beta   95.51607703
_cell_angle_gamma   89.99995686
_symmetry_Int_Tables_number   1
_chemical_formula_structural   ZnH20C11N4(ClO)2
_chemical_formula_sum   'Zn2 H40 C22 N8 Cl4 O4'
_cell_volume   764.35645208
_cell_formula_units_Z   2
loop_
 _symmetry_equiv_pos_site_id
 _symmetry_equiv_pos_as_xyz
  1  'x, y, z'
loop_
 _atom_site_type_symbol
 _atom_site_label
 _atom_site_symmetry_multiplicity
 _atom_site_fract_x
 _atom_site_fract_y
 _atom_site_fract_z
 _atom_site_occupancy
 _atom_site_hle17_bader_spin_density
 _atom_site_hle17_ddec_charge
 _atom_site_hle17_ddec_spin_density
 _atom_site_hle17_ddec_sum_bond_order
 _atom_site_hle17_magmom
 _atom_site_hse06_10hf_bader_spin_density
 _atom_site_hse06_10hf_ddec_charge
 _atom_site_hse06_10hf_ddec_spin_density
 _atom_site_hse06_10hf_ddec_sum_bond_order
 _atom_site_hse06_10hf_magmom
 _atom_site_hse06_bader_spin_density
 _atom_site_hse06_ddec_charge
 _atom_site_hse06_ddec_spin_density
 _atom_site_hse06_ddec_sum_bond_order
 _atom_site_hse06_magmom
 _atom_site_pbe_bader_spin_density
 _atom_site_pbe_cm5_charge
 _atom_site_pbe_ddec_charge
 _atom_site_pbe_ddec_spin_density
 _atom_site_pbe_ddec_sum_bond_order
 _atom_site_pbe_magmom
Zn  Zn0  1  0.48295443  0.78258690  0.17571130  1  0  0.975143  0  2.04799  0  0  0.815234  0  2.550218  0  0  0.858518  0  2.491799  0  0  0.546912  0.784972  0  2.590388  0
Zn  Zn1  1  0.51704457  0.28258768  0.82428878  1  0  0.975237  0  2.047855  0  0  0.815346  0  2.550037  0  0  0.858628  0  2.491622  0  0  0.546957  0.785087  0  2.590202  0
H  H2  1  0.75628462  0.54100392  0.91484763  1  0  0.312521  0  0.895325  0  0  0.291453  0  0.965923  0  0  0.299168  0  0.959332  0  0  0.302482  0.286017  0  0.970635  0
H  H3  1  0.24371467  0.04100423  0.08515139  1  0  0.312556  0  0.895253  0  0  0.291488  0  0.965848  0  0  0.299202  0  0.959258  0  0  0.302504  0.286054  0  0.970556  0
H  H4  1  0.64840036  0.88862370  0.98525662  1  0  0.314527  0  0.917902  0  0  0.295513  0  0.980974  0  0  0.303605  0  0.974412  0  0  0.30495  0.28979  0  0.985718  0
H  H5  1  0.35159853  0.38862392  0.01474533  1  0  0.314556  0  0.917907  0  0  0.295549  0  0.980964  0  0  0.303642  0  0.974402  0  0  0.304971  0.289829  0  0.985711  0
H  H6  1  0.19847472  0.62088715  0.92261485  1  0  0.316813  0  0.868005  0  0  0.300479  0  0.929378  0  0  0.3071  0  0.924618  0  0  0.319  0.295814  0  0.932789  0
H  H7  1  0.80152609  0.12088454  0.07738341  1  0  0.316752  0  0.868079  0  0  0.300419  0  0.929439  0  0  0.307041  0  0.924679  0  0  0.318973  0.295753  0  0.93285  0
H  H8  1  0.21475130  0.38508040  0.65058946  1  0  0.292434  0  0.94501  0  0  0.272315  0  1.016869  0  0  0.279902  0  1.010826  0  0  0.284933  0.266928  0  1.021251  0
H  H9  1  0.78524759  0.88508321  0.34941160  1  0  0.292425  0  0.945008  0  0  0.272336  0  1.01682  0  0  0.279902  0  1.010797  0  0  0.284978  0.266949  0  1.0212  0
H  H10  1  0.09103775  0.81073538  0.85443770  1  0  0.108254  0  0.950996  0  0  0.11827  0  1.017802  0  0  0.120443  0  1.016841  0  0  0.095602  0.116601  0  1.018685  0
H  H11  1  0.90895472  0.31073636  0.14556297  1  0  0.108233  0  0.950936  0  0  0.118263  0  1.017785  0  0  0.120436  0  1.016825  0  0  0.095596  0.116593  0  1.018669  0
H  H12  1  0.01167143  0.80541785  0.69761648  1  0  0.101826  0  0.96053  0  0  0.119916  0  1.017076  0  0  0.120903  0  1.017863  0  0  0.100951  0.119165  0  1.016618  0
H  H13  1  0.98833079  0.30541534  0.30238288  1  0  0.101943  0  0.96061  0  0  0.12002  0  1.017168  0  0  0.121008  0  1.017955  0  0  0.100975  0.119255  0  1.016727  0
H  H14  1  0.97843066  0.00037779  0.89570254  1  0  0.116028  0  0.953418  0  0  0.131768  0  1.021259  0  0  0.133958  0  1.020335  0  0  0.086036  0.130105  0  1.02205  0
H  H15  1  0.02157035  0.50037715  0.10430012  1  0  0.116011  0  0.953446  0  0  0.131778  0  1.021257  0  0  0.133968  0  1.020333  0  0  0.08605  0.130115  0  1.022047  0
H  H16  1  0.70763490  0.05123133  0.85165059  1  0  0.106077  0  0.971601  0  0  0.123788  0  1.042041  0  0  0.125308  0  1.041338  0  0  0.084674  0.122569  0  1.04273  0
H  H17  1  0.29236442  0.55122972  0.14835202  1  0  0.106087  0  0.97161  0  0  0.123807  0  1.042034  0  0  0.125327  0  1.04133  0  0  0.084688  0.122589  0  1.042721  0
H  H18  1  0.89329415  0.03045081  0.74157425  1  0  0.119716  0  0.939863  0  0  0.144866  0  0.992846  0  0  0.1459  0  0.993828  0  0  0.094591  0.144073  0  0.992195  0
H  H19  1  0.10670518  0.53044936  0.25842655  1  0  0.119811  0  0.939921  0  0  0.144897  0  0.992962  0  0  0.14593  0  0.993947  0  0  0.094598  0.144104  0  0.992309  0
H  H20  1  0.63209997  0.87736037  0.61891724  1  0  0.105991  0  0.953187  0  0  0.124519  0  1.02029  0  0  0.125893  0  1.020408  0  0  0.085478  0.123433  0  1.020316  0
H  H21  1  0.36789893  0.37735907  0.38108381  1  0  0.106056  0  0.953176  0  0  0.124556  0  1.020294  0  0  0.12593  0  1.020412  0  0  0.085473  0.123472  0  1.020316  0
H  H22  1  0.45151656  0.92697452  0.72383462  1  0  0.116333  0  0.942567  0  0  0.139144  0  0.998844  0  0  0.14053  0  0.999067  0  0  0.092139  0.138058  0  0.998812  0
H  H23  1  0.54848227  0.42697306  0.27616557  1  0  0.116339  0  0.942513  0  0  0.139148  0  0.99879  0  0  0.140533  0  0.999013  0  0  0.092132  0.138062  0  0.998755  0
H  H24  1  0.49541111  0.77132660  0.70402022  1  0  0.105829  0  0.963742  0  0  0.124853  0  1.028587  0  0  0.126413  0  1.028426  0  0  0.086211  0.123643  0  1.028834  0
H  H25  1  0.50458791  0.27132339  0.29598075  1  0  0.105828  0  0.963736  0  0  0.124839  0  1.028598  0  0  0.126399  0  1.028437  0  0  0.086194  0.123629  0  1.028843  0
H  H26  1  0.72454726  0.51313581  0.70749031  1  0  0.104526  0  0.945687  0  0  0.114696  0  1.013396  0  0  0.116462  0  1.012656  0  0  0.098444  0.113308  0  1.014128  0
H  H27  1  0.27544879  0.01313359  0.29250672  1  0  0.10455  0  0.945817  0  0  0.114743  0  1.013484  0  0  0.116509  0  1.012744  0  0  0.098467  0.113355  0  1.014214  0
H  H28  1  0.72148203  0.64892946  0.62575822  1  0  0.114905  0  0.937282  0  0  0.131806  0  0.992097  0  0  0.132893  0  0.993031  0  0  0.10226  0.130961  0  0.99156  0
H  H29  1  0.27852201  0.14892641  0.37424022  1  0  0.114867  0  0.937407  0  0  0.131762  0  0.992236  0  0  0.132845  0  0.993173  0  0  0.102257  0.130918  0  0.991698  0
H  H30  1  0.99117231  0.40234901  0.45848534  1  0  0.098703  0  0.969574  0  0  0.120176  0  1.031175  0  0  0.12143  0  1.031331  0  0  0.087079  0.119185  0  1.03118  0
H  H31  1  0.00882818  0.90234872  0.54151581  1  0  0.09863  0  0.969636  0  0  0.120108  0  1.031228  0  0  0.121361  0  1.031386  0  0  0.08705  0.119113  0  1.031237  0
H  H32  1  0.76150427  0.49921645  0.44827503  1  0  0.117986  0  0.963573  0  0  0.137052  0  1.02577  0  0  0.138516  0  1.026033  0  0  0.088024  0.135939  0  1.025649  0
H  H33  1  0.23849609  0.99921607  0.55172439  1  0  0.117972  0  0.963603  0  0  0.137053  0  1.025764  0  0  0.138518  0  1.026027  0  0  0.088022  0.135938  0  1.025644  0
H  H34  1  0.78134605  0.38002764  0.55591916  1  0  0.115197  0  0.960313  0  0  0.131602  0  1.02752  0  0  0.133136  0  1.027609  0  0  0.086861  0.130421  0  1.027541  0
H  H35  1  0.21865444  0.88002629  0.44407928  1  0  0.11518  0  0.960216  0  0  0.131564  0  1.027456  0  0  0.133096  0  1.027549  0  0  0.086848  0.130383  0  1.027477  0
H  H36  1  0.21398421  0.68637838  0.59845975  1  0  0.103323  0  0.971942  0  0  0.123484  0  1.035947  0  0  0.124735  0  1.036278  0  0  0.085088  0.12252  0  1.035804  0
H  H37  1  0.78601814  0.18638050  0.40153683  1  0  0.103259  0  0.971954  0  0  0.123465  0  1.035913  0  0  0.124716  0  1.036244  0  0  0.085092  0.122503  0  1.035768  0
H  H38  1  0.00638836  0.67998701  0.47536323  1  0  0.114006  0  0.96618  0  0  0.132094  0  1.031843  0  0  0.133494  0  1.0321  0  0  0.083952  0.130988  0  1.031804  0
H  H39  1  0.99361726  0.17998914  0.52463442  1  0  0.114042  0  0.966256  0  0  0.132132  0  1.031916  0  0  0.133533  0  1.032172  0  0  0.083954  0.131024  0  1.031879  0
H  H40  1  0.23451411  0.58252715  0.48057446  1  0  0.111724  0  0.955816  0  0  0.13123  0  1.018994  0  0  0.132772  0  1.019072  0  0  0.084385  0.130055  0  1.019027  0
H  H41  1  0.76548841  0.08253027  0.51942655  1  0  0.111691  0  0.955851  0  0  0.131225  0  1.019014  0  0  0.132766  0  1.019092  0  0  0.084366  0.130049  0  1.019045  0
C  C42  1  0.68647514  0.71144542  0.95925746  1  0  0.757359  0  3.878769  0  0  0.680403  0  4.185467  0  0  0.716671  0  4.179664  0  0  0.331375  0.655844  0  4.188723  0
C  C43  1  0.31352394  0.21144477  0.04074168  1  0  0.757292  0  3.878646  0  0  0.680293  0  4.185431  0  0  0.71656  0  4.179633  0  0  0.33134  0.655739  0  4.188689  0
C  C44  1  0.76217834  0.86507346  0.80863216  1  0  0.378408  0  3.54782  0  0  0.390129  0  3.782773  0  0  0.396743  0  3.799083  0  0  0.08329  0.385618  0  3.771484  0
C  C45  1  0.23782217  0.36507476  0.19136537  1  0  0.378451  0  3.547677  0  0  0.390203  0  3.782617  0  0  0.396818  0  3.798923  0  0  0.083336  0.385692  0  3.77133  0
C  C46  1  0.95777644  0.78595454  0.78638568  1  0  -0.310735  0  3.578987  0  0  -0.354907  0  3.808328  0  0  -0.359742  0  3.820332  0  0  -0.158622  -0.351473  0  3.800285  0
C  C47  1  0.04222102  0.28595236  0.21362331  1  0  -0.310822  0  3.578699  0  0  -0.355119  0  3.808158  0  0  -0.359958  0  3.820161  0  0  -0.158693  -0.351666  0  3.800115  0
C  C48  1  0.92176599  0.65038370  0.79701850  1  0  0.46977  0  3.507113  0  0  0.449818  0  3.753265  0  0  0.461917  0  3.764879  0  0  0.19293  0.441568  0  3.745266  0
C  C49  1  0.07823152  0.15037791  0.20297871  1  0  0.469733  0  3.507137  0  0  0.44998  0  3.752934  0  0  0.462081  0  3.764543  0  0  0.192972  0.441731  0  3.744939  0
C  C50  1  0.84082213  0.99440329  0.82575184  1  0  -0.369937  0  3.629126  0  0  -0.450778  0  3.864369  0  0  -0.454311  0  3.873653  0  0  -0.242858  -0.448015  0  3.857986  0
C  C51  1  0.15917338  0.49440460  0.17425003  1  0  -0.369962  0  3.629273  0  0  -0.450771  0  3.864484  0  0  -0.454304  0  3.873769  0  0  -0.242857  -0.448002  0  3.858094  0
C  C52  1  0.57452800  0.85936759  0.70754657  1  0  -0.368665  0  3.628412  0  0  -0.451315  0  3.86855  0  0  -0.455061  0  3.878165  0  0  -0.244357  -0.448387  0  3.861902  0
C  C53  1  0.42547093  0.35936620  0.29245537  1  0  -0.368788  0  3.628341  0  0  -0.451395  0  3.8685  0  0  -0.455141  0  3.878113  0  0  -0.244357  -0.448479  0  3.861877  0
C  C54  1  0.22065874  0.49706357  0.79276133  1  0  0.757854  0  3.876922  0  0  0.679427  0  4.184687  0  0  0.715283  0  4.178962  0  0  0.335402  0.655096  0  4.187931  0
C  C55  1  0.77934490  0.99706269  0.20724095  1  0  0.757861  0  3.876752  0  0  0.679455  0  4.184477  0  0  0.715309  0  4.178755  0  0  0.335474  0.655125  0  4.187718  0
C  C56  1  0.99362785  0.53274562  0.60204923  1  0  0.382823  0  3.554132  0  0  0.39133  0  3.793354  0  0  0.39786  0  3.809616  0  0  0.083418  0.38684  0  3.782142  0
C  C57  1  0.00636815  0.03274628  0.39794512  1  0  0.382789  0  3.554113  0  0  0.391257  0  3.79349  0  0  0.397785  0  3.809756  0  0  0.083408  0.38677  0  3.782274  0
C  C58  1  0.82713564  0.58683693  0.68046737  1  0  -0.305482  0  3.550489  0  0  -0.345135  0  3.775025  0  0  -0.349793  0  3.787043  0  0  -0.155798  -0.341767  0  3.766772  0
C  C59  1  0.17286848  0.08683746  0.31953192  1  0  -0.305503  0  3.550743  0  0  -0.345208  0  3.775257  0  0  -0.349862  0  3.787277  0  0  -0.155849  -0.341838  0  3.767001  0
C  C60  1  0.87375348  0.44787970  0.51096938  1  0  -0.369503  0  3.626739  0  0  -0.447184  0  3.859581  0  0  -0.450888  0  3.868902  0  0  -0.242631  -0.444299  0  3.853166  0
C  C61  1  0.12624860  0.94788380  0.48903278  1  0  -0.369396  0  3.626669  0  0  -0.447055  0  3.859465  0  0  -0.450761  0  3.868791  0  0  -0.242605  -0.444172  0  3.853049  0
C  C62  1  0.11922942  0.62632710  0.53562571  1  0  -0.380748  0  3.64058  0  0  -0.462186  0  3.878762  0  0  -0.466189  0  3.888494  0  0  -0.249782  -0.459135  0  3.872142  0
C  C63  1  0.88077956  0.12632745  0.46437565  1  0  -0.380681  0  3.640696  0  0  -0.462155  0  3.87882  0  0  -0.466157  0  3.888555  0  0  -0.24973  -0.459104  0  3.872198  0
N  N64  1  0.77455950  0.62829499  0.89027631  1  0  -0.552969  0  3.208886  0  0  -0.495048  0  3.458984  0  0  -0.516586  0  3.462549  0  0  -0.425165  -0.480456  0  3.456467  0
N  N65  1  0.22543808  0.12829533  0.10972448  1  0  -0.552989  0  3.208809  0  0  -0.495112  0  3.458933  0  0  -0.51665  0  3.462497  0  0  -0.425208  -0.48053  0  3.456426  0
N  N66  1  0.68129647  0.82582059  0.92244404  1  0  -0.539451  0  3.21492  0  0  -0.475949  0  3.452051  0  0  -0.498537  0  3.457853  0  0  -0.427161  -0.460597  0  3.447911  0
N  N67  1  0.31870250  0.32582266  0.07755787  1  0  -0.539441  0  3.214864  0  0  -0.475946  0  3.452045  0  0  -0.498535  0  3.45785  0  0  -0.427139  -0.460592  0  3.447905  0
N  N68  1  0.13391690  0.59653694  0.83853757  1  0  -0.542747  0  3.171297  0  0  -0.487351  0  3.422961  0  0  -0.507802  0  3.426189  0  0  -0.420226  -0.473367  0  3.420506  0
N  N69  1  0.86608722  0.09653706  0.16146352  1  0  -0.542723  0  3.171436  0  0  -0.48732  0  3.422984  0  0  -0.507768  0  3.426213  0  0  -0.420231  -0.473335  0  3.420529  0
N  N70  1  0.14766034  0.46170163  0.68183402  1  0  -0.52842  0  3.255618  0  0  -0.465307  0  3.491565  0  0  -0.487577  0  3.498373  0  0  -0.422323  -0.450161  0  3.486703  0
N  N71  1  0.85233519  0.96169991  0.31816603  1  0  -0.52835  0  3.255653  0  0  -0.465286  0  3.491622  0  0  -0.487532  0  3.498462  0  0  -0.422386  -0.450142  0  3.486759  0
Cl  Cl72  1  0.14262288  0.82093871  0.10080629  1  0  -0.561213  0  0.968539  0  0  -0.499092  0  1.25231  0  0  -0.515167  0  1.227658  0  0  -0.29748  -0.48752  0  1.269242  0
Cl  Cl73  1  0.85737610  0.32094030  0.89919561  1  0  -0.561226  0  0.968509  0  0  -0.499105  0  1.252262  0  0  -0.515179  0  1.227611  0  0  -0.297479  -0.487529  0  1.269196  0
Cl  Cl74  1  0.57301410  0.72266813  0.36480069  1  0  -0.560599  0  0.937858  0  0  -0.492429  0  1.200344  0  0  -0.508342  0  1.175703  0  0  -0.276849  -0.481074  0  1.217372  0
Cl  Cl75  1  0.42698985  0.22266969  0.63519780  1  0  -0.560592  0  0.937809  0  0  -0.492434  0  1.2003  0  0  -0.508351  0  1.175666  0  0  -0.27685  -0.481078  0  1.217327  0
O  O76  1  0.60554907  0.67605901  0.05486700  1  0  -0.656182  0  2.036584  0  0  -0.590058  0  2.31578  0  0  -0.615257  0  2.297913  0  0  -0.337377  -0.572482  0  2.327514  0
O  O77  1  0.39444517  0.17606172  0.94513097  1  0  -0.656169  0  2.036666  0  0  -0.59004  0  2.315897  0  0  -0.615237  0  2.29803  0  0  -0.337369  -0.57246  0  2.327628  0
O  O78  1  0.37524570  0.44310208  0.85654799  1  0  -0.671488  0  2.102905  0  0  -0.598679  0  2.379247  0  0  -0.624352  0  2.362886  0  0  -0.325872  -0.580843  0  2.390134  0
O  O79  1  0.62475312  0.94309943  0.14345401  1  0  -0.671443  0  2.10276  0  0  -0.598681  0  2.379156  0  0  -0.624356  0  2.362801  0  0  -0.325887  -0.58084  0  2.390037  0
