# generated using pymatgen
data_Ag2H25C15N3O4
_symmetry_space_group_name_H-M   'P 1'
_cell_length_a   7.18657246
_cell_length_b   11.15385814
_cell_length_c   11.41140476
_cell_angle_alpha   77.44764241
_cell_angle_beta   76.33207440
_cell_angle_gamma   88.86684446
_symmetry_Int_Tables_number   1
_chemical_formula_structural   Ag2H25C15N3O4
_chemical_formula_sum   'Ag4 H50 C30 N6 O8'
_cell_volume   867.08662769
_cell_formula_units_Z   2
loop_
 _symmetry_equiv_pos_site_id
 _symmetry_equiv_pos_as_xyz
  1  'x, y, z'
loop_
 _atom_site_type_symbol
 _atom_site_label
 _atom_site_symmetry_multiplicity
 _atom_site_fract_x
 _atom_site_fract_y
 _atom_site_fract_z
 _atom_site_occupancy
 _atom_site_hle17_bader_spin_density
 _atom_site_hle17_ddec_charge
 _atom_site_hle17_ddec_spin_density
 _atom_site_hle17_ddec_sum_bond_order
 _atom_site_hle17_magmom
 _atom_site_hse06_10hf_bader_spin_density
 _atom_site_hse06_10hf_ddec_charge
 _atom_site_hse06_10hf_ddec_spin_density
 _atom_site_hse06_10hf_ddec_sum_bond_order
 _atom_site_hse06_10hf_magmom
 _atom_site_hse06_bader_spin_density
 _atom_site_hse06_ddec_charge
 _atom_site_hse06_ddec_spin_density
 _atom_site_hse06_ddec_sum_bond_order
 _atom_site_hse06_magmom
 _atom_site_pbe_bader_spin_density
 _atom_site_pbe_cm5_charge
 _atom_site_pbe_ddec_charge
 _atom_site_pbe_ddec_spin_density
 _atom_site_pbe_ddec_sum_bond_order
 _atom_site_pbe_magmom
Ag  Ag0  1  0.54451637  0.72687534  0.31563314  1  0  0.563562  0  1.352199  0  0  0.449002  0  1.767878  0  0  0.483715  0  1.714301  0  0  0.439848  0.424546  0  1.805001  0
Ag  Ag1  1  0.45548628  0.27312505  0.68436965  1  0  0.563594  0  1.352148  0  0  0.449013  0  1.767807  0  0  0.483725  0  1.714231  0  0  0.439861  0.424558  0  1.804927  0
Ag  Ag2  1  0.50000137  0.50000111  0.50000075  1  0  0.424579  0  1.750103  0  0  0.30396  0  2.225233  0  0  0.335626  0  2.169225  0  0  0.470107  0.282202  0  2.263674  0
Ag  Ag3  1  0.49999743  0.49999995  0.00000251  1  0  0.510555  0  1.431741  0  0  0.36156  0  1.850006  0  0  0.396423  0  1.806339  0  0  0.457448  0.33708  0  1.880043  0
H  H4  1  0.09573966  0.87429636  0.14236468  1  0  0.064271  0  0.92443  0  0  0.084134  0  0.985827  0  0  0.08439  0  0.986466  0  0  0.101228  0.083886  0  0.985451  0
H  H5  1  0.90426012  0.12570402  0.85763591  1  0  0.06425  0  0.924427  0  0  0.084121  0  0.985832  0  0  0.084376  0  0.986476  0  0  0.101232  0.083875  0  0.98545  0
H  H6  1  0.87340687  0.94627700  0.18258648  1  0  0.052761  0  0.971654  0  0  0.068091  0  1.041135  0  0  0.068615  0  1.040645  0  0  0.098627  0.067604  0  1.041659  0
H  H7  1  0.12659578  0.05372338  0.81741543  1  0  0.052757  0  0.971616  0  0  0.068104  0  1.041097  0  0  0.068631  0  1.040604  0  0  0.098634  0.067616  0  1.041621  0
H  H8  1  0.03147053  0.90924370  0.35774324  1  0  0.071663  0  0.953645  0  0  0.092148  0  1.010873  0  0  0.092521  0  1.011955  0  0  0.092584  0.091805  0  1.010214  0
H  H9  1  0.96853046  0.09075209  0.64225903  1  0  0.071664  0  0.953613  0  0  0.092104  0  1.010916  0  0  0.092476  0  1.011997  0  0  0.092551  0.091762  0  1.010258  0
H  H10  1  0.81287224  0.82282368  0.39690090  1  0  0.052066  0  0.972808  0  0  0.06575  0  1.050682  0  0  0.066997  0  1.049149  0  0  0.08023  0.064733  0  1.051907  0
H  H11  1  0.18713452  0.17717303  0.60309943  1  0  0.052116  0  0.972616  0  0  0.065775  0  1.05054  0  0  0.067029  0  1.048995  0  0  0.080247  0.064757  0  1.051767  0
H  H12  1  0.21792956  0.72933988  0.31803515  1  0  0.053874  0  0.990355  0  0  0.07126  0  1.06409  0  0  0.072495  0  1.061975  0  0  0.075207  0.070222  0  1.065812  0
H  H13  1  0.78207295  0.27065774  0.68196212  1  0  0.053859  0  0.990365  0  0  0.071246  0  1.064076  0  0  0.072482  0  1.061958  0  0  0.075193  0.070206  0  1.0658  0
H  H14  1  0.06361147  0.68683670  0.46674015  1  0  0.067707  0  0.932869  0  0  0.088578  0  0.987646  0  0  0.088779  0  0.989114  0  0  0.088067  0.088339  0  0.986764  0
H  H15  1  0.93639377  0.31315817  0.53325642  1  0  0.067772  0  0.93281  0  0  0.088571  0  0.987656  0  0  0.088774  0  0.989125  0  0  0.088071  0.088332  0  0.986773  0
H  H16  1  0.84066577  0.57863201  0.38884987  1  0  0.0309  0  1.004407  0  0  0.039538  0  1.099426  0  0  0.041167  0  1.095628  0  0  0.06487  0.038301  0  1.10215  0
H  H17  1  0.15933545  0.42136837  0.61114700  1  0  0.030879  0  1.004398  0  0  0.039514  0  1.099421  0  0  0.041146  0  1.095622  0  0  0.06486  0.038277  0  1.102144  0
H  H18  1  0.07584338  0.52980382  0.33336543  1  0  0.079684  0  0.941392  0  0  0.101626  0  0.992881  0  0  0.102105  0  0.994275  0  0  0.092942  0.101239  0  0.991936  0
H  H19  1  0.92415622  0.47019288  0.66662984  1  0  0.079669  0  0.941432  0  0  0.101615  0  0.992911  0  0  0.102095  0  0.994306  0  0  0.09295  0.101229  0  0.991966  0
H  H20  1  0.88230414  0.57447331  0.17134119  1  0  0.060079  0  0.941699  0  0  0.076092  0  1.00754  0  0  0.075857  0  1.008641  0  0  0.099526  0.076111  0  1.006935  0
H  H21  1  0.11769425  0.42552798  0.82865503  1  0  0.060023  0  0.941759  0  0  0.076039  0  1.007608  0  0  0.075825  0  1.008684  0  0  0.09953  0.076056  0  1.007007  0
H  H22  1  0.10070498  0.66331210  0.12834999  1  0  0.063186  0  0.927135  0  0  0.08025  0  0.992309  0  0  0.081297  0  0.991316  0  0  0.096888  0.079441  0  0.993106  0
H  H23  1  0.89929485  0.33668919  0.87164602  1  0  0.063123  0  0.927184  0  0  0.080189  0  0.992367  0  0  0.081233  0  0.991382  0  0  0.096894  0.079382  0  0.993164  0
H  H24  1  0.77351284  0.70744732  0.02871126  1  0  0.065627  0  0.938347  0  0  0.081069  0  1.010344  0  0  0.082015  0  1.008769  0  0  0.102495  0.080263  0  1.011613  0
H  H25  1  0.22648408  0.29255305  0.97128888  1  0  0.065579  0  0.93836  0  0  0.081032  0  1.01038  0  0  0.081978  0  1.008796  0  0  0.102499  0.080226  0  1.011648  0
H  H26  1  0.95486868  0.82647516  0.98426895  1  0  0.062778  0  0.941619  0  0  0.080104  0  1.006231  0  0  0.080442  0  1.006727  0  0  0.098353  0.079796  0  1.005985  0
H  H27  1  0.04512686  0.17352613  0.01573208  1  0  0.06278  0  0.941575  0  0  0.08011  0  1.006215  0  0  0.080451  0  1.006706  0  0  0.09838  0.079803  0  1.005969  0
H  H28  1  0.66144149  0.91310764  0.93671789  1  0  0.053427  0  0.933376  0  0  0.071103  0  0.994199  0  0  0.070844  0  0.994725  0  0  0.100975  0.07118  0  0.993976  0
H  H29  1  0.33855548  0.08689365  0.06328381  1  0  0.053426  0  0.933415  0  0  0.07111  0  0.994228  0  0  0.070851  0  0.994755  0  0  0.100967  0.071188  0  0.994003  0
H  H30  1  0.69498197  0.97159750  0.06217583  1  0  0.054814  0  0.9423  0  0  0.069299  0  1.010668  0  0  0.06989  0  1.009285  0  0  0.098919  0.068742  0  1.011817  0
H  H31  1  0.30501643  0.02840380  0.93782565  1  0  0.054866  0  0.942281  0  0  0.069357  0  1.010633  0  0  0.069946  0  1.009251  0  0  0.098925  0.068801  0  1.011783  0
H  H32  1  0.08007489  0.86906349  0.79197193  1  0  0.064183  0  0.961691  0  0  0.08252  0  1.025774  0  0  0.083628  0  1.025781  0  0  0.090766  0.081624  0  1.025948  0
H  H33  1  0.91992207  0.13093780  0.20802889  1  0  0.064165  0  0.961678  0  0  0.082505  0  1.025755  0  0  0.083613  0  1.025761  0  0  0.090748  0.08161  0  1.025929  0
H  H34  1  0.10440393  0.86629286  0.63443884  1  0  0.076847  0  0.926123  0  0  0.098736  0  0.980757  0  0  0.099529  0  0.981536  0  0  0.096984  0.098133  0  0.980241  0
H  H35  1  0.89559308  0.13370936  0.36556265  1  0  0.076828  0  0.926094  0  0  0.09872  0  0.980725  0  0  0.09951  0  0.981508  0  0  0.09698  0.098116  0  0.980208  0
H  H36  1  0.85824961  0.70652045  0.77209476  1  0  0.097685  0  0.967317  0  0  0.118808  0  1.031263  0  0  0.120027  0  1.031952  0  0  0.084411  0.117895  0  1.030815  0
H  H37  1  0.14174861  0.29347717  0.22790578  1  0  0.09768  0  0.96737  0  0  0.118844  0  1.031256  0  0  0.120063  0  1.031945  0  0  0.084416  0.11793  0  1.030807  0
H  H38  1  0.03123425  0.63794415  0.85078970  1  0  0.093675  0  0.953455  0  0  0.116533  0  1.014394  0  0  0.117919  0  1.014418  0  0  0.085072  0.115482  0  1.014433  0
H  H39  1  0.96877136  0.36205807  0.14920875  1  0  0.093711  0  0.953421  0  0  0.116547  0  1.014403  0  0  0.117932  0  1.014427  0  0  0.085065  0.115496  0  1.014442  0
H  H40  1  0.05565138  0.63498960  0.69300138  1  0  0.092934  0  0.97424  0  0  0.115481  0  1.036975  0  0  0.116066  0  1.038247  0  0  0.08509  0.114986  0  1.036176  0
H  H41  1  0.94435270  0.36501078  0.30699769  1  0  0.092963  0  0.974235  0  0  0.115542  0  1.036923  0  0  0.116127  0  1.038195  0  0  0.085114  0.115047  0  1.036122  0
H  H42  1  0.40580832  0.97984374  0.58955767  1  0  0.080785  0  0.949894  0  0  0.099232  0  1.012117  0  0  0.100048  0  1.012838  0  0  0.096239  0.098612  0  1.011701  0
H  H43  1  0.59419152  0.02015756  0.41044535  1  0  0.080815  0  0.949821  0  0  0.09926  0  1.011991  0  0  0.100074  0  1.012712  0  0  0.096247  0.09864  0  1.011574  0
H  H44  1  0.38781499  0.97405954  0.74796504  1  0  0.067901  0  0.954332  0  0  0.085385  0  1.021192  0  0  0.08682  0  1.020036  0  0  0.090643  0.08429  0  1.022173  0
H  H45  1  0.61218614  0.02593901  0.25203749  1  0  0.067871  0  0.954376  0  0  0.085326  0  1.021218  0  0  0.086758  0  1.020065  0  0  0.090621  0.084233  0  1.022195  0
H  H46  1  0.72464484  0.01859208  0.61786440  1  0  0.106463  0  0.971724  0  0  0.129425  0  1.032166  0  0  0.131606  0  1.03092  0  0  0.088675  0.127808  0  1.033146  0
H  H47  1  0.27535629  0.98140646  0.38213638  1  0  0.106528  0  0.971644  0  0  0.129483  0  1.032092  0  0  0.131666  0  1.030841  0  0  0.088718  0.127866  0  1.033071  0
H  H48  1  0.72733765  0.87135927  0.58233720  1  0  0.09236  0  0.964217  0  0  0.116295  0  1.025122  0  0  0.116972  0  1.026196  0  0  0.083698  0.115755  0  1.024409  0
H  H49  1  0.27266214  0.12864111  0.41766252  1  0  0.092377  0  0.964223  0  0  0.116299  0  1.025141  0  0  0.116977  0  1.026217  0  0  0.0837  0.115759  0  1.024428  0
H  H50  1  0.70630086  0.88410775  0.73739792  1  0  0.089757  0  0.968265  0  0  0.113555  0  1.028939  0  0  0.114589  0  1.029599  0  0  0.083143  0.112747  0  1.028543  0
H  H51  1  0.29370027  0.11589079  0.26260111  1  0  0.089782  0  0.968256  0  0  0.11358  0  1.028934  0  0  0.114614  0  1.029596  0  0  0.08316  0.112773  0  1.028538  0
H  H52  1  0.42293221  0.79541815  0.05910999  1  0  0.373878  0  0.892651  0  0  0.352017  0  0.964556  0  0  0.361922  0  0.952793  0  0  0.297482  0.344977  0  0.972937  0
H  H53  1  0.57706610  0.20458131  0.94089277  1  0  0.37392  0  0.892611  0  0  0.352048  0  0.96452  0  0  0.361953  0  0.952756  0  0  0.297507  0.345007  0  0.972901  0
C  C54  1  0.94970235  0.86117502  0.20380706  1  0  -0.013313  0  3.645424  0  0  -0.070212  0  3.90194  0  0  -0.067246  0  3.916855  0  0  -0.077268  -0.072102  0  3.891554  0
C  C55  1  0.05030035  0.13882628  0.79619553  1  0  -0.013246  0  3.645388  0  0  -0.070222  0  3.901902  0  0  -0.067266  0  3.916819  0  0  -0.077286  -0.072111  0  3.891517  0
C  C56  1  0.96040561  0.83192771  0.33854308  1  0  -0.126619  0  3.699262  0  0  -0.169158  0  3.960103  0  0  -0.170527  0  3.974821  0  0  -0.169499  -0.168006  0  3.949818  0
C  C57  1  0.03959973  0.16806899  0.66145834  1  0  -0.126638  0  3.699015  0  0  -0.169115  0  3.9598  0  0  -0.170498  0  3.974542  0  0  -0.169465  -0.167958  0  3.949505  0
C  C58  1  0.06570474  0.71317006  0.36786393  1  0  -0.094204  0  3.66797  0  0  -0.128749  0  3.918144  0  0  -0.130073  0  3.933587  0  0  -0.16758  -0.127663  0  3.907396  0
C  C59  1  0.93429790  0.28683032  0.63213360  1  0  -0.094302  0  3.668048  0  0  -0.128763  0  3.918159  0  0  -0.130085  0  3.933598  0  0  -0.167582  -0.127678  0  3.907414  0
C  C60  1  0.98255460  0.60892536  0.32657350  1  0  -0.122016  0  3.696972  0  0  -0.160138  0  3.948703  0  0  -0.161862  0  3.964198  0  0  -0.169184  -0.158752  0  3.937872  0
C  C61  1  0.01744657  0.39107409  0.67342270  1  0  -0.12196  0  3.697021  0  0  -0.160083  0  3.948726  0  0  -0.161821  0  3.964246  0  0  -0.169174  -0.158698  0  3.937897  0
C  C62  1  0.95866785  0.64719042  0.19446158  1  0  -0.010832  0  3.634899  0  0  -0.064632  0  3.886743  0  0  -0.061549  0  3.901846  0  0  -0.076134  -0.066533  0  3.876128  0
C  C63  1  0.04133194  0.35280996  0.80553463  1  0  -0.010612  0  3.634886  0  0  -0.064485  0  3.886744  0  0  -0.061415  0  3.901851  0  0  -0.076111  -0.066391  0  3.876138  0
C  C64  1  0.81773432  0.79238537  0.05055326  1  0  -0.05434  0  3.666505  0  0  -0.116255  0  3.928764  0  0  -0.113553  0  3.942805  0  0  -0.079939  -0.117926  0  3.918914  0
C  C65  1  0.18226269  0.20761684  0.94944648  1  0  -0.054202  0  3.666406  0  0  -0.116221  0  3.928701  0  0  -0.113515  0  3.94274  0  0  -0.079972  -0.117893  0  3.918855  0
C  C66  1  0.66414740  0.88673548  0.03503436  1  0  0.114132  0  3.65286  0  0  0.052381  0  3.931714  0  0  0.059745  0  3.938508  0  0  -0.082146  0.047414  0  3.926923  0
C  C67  1  0.33585100  0.11326581  0.96496624  1  0  0.114011  0  3.652909  0  0  0.052257  0  3.931785  0  0  0.059622  0  3.938576  0  0  -0.082156  0.047287  0  3.926996  0
C  C68  1  0.49072120  0.55816017  0.74170876  1  0  0.716298  0  3.911211  0  0  0.659765  0  4.185419  0  0  0.695497  0  4.187948  0  0  0.303899  0.635519  0  4.182858  0
C  C69  1  0.50928015  0.44184296  0.25829014  1  0  0.716349  0  3.911126  0  0  0.659774  0  4.185428  0  0  0.695506  0  4.187959  0  0  0.303841  0.635529  0  4.182866  0
C  C70  1  0.41517180  0.73263756  0.60146367  1  0  0.562653  0  3.790544  0  0  0.517301  0  4.06379  0  0  0.548909  0  4.067184  0  0  0.235408  0.495832  0  4.0608  0
C  C71  1  0.58482499  0.26736006  0.39854146  1  0  0.562699  0  3.79063  0  0  0.517373  0  4.063823  0  0  0.548979  0  4.067211  0  0  0.235415  0.495903  0  4.060837  0
C  C72  1  0.34651918  0.79916003  0.70672808  1  0  -0.124611  0  3.588729  0  0  -0.092951  0  3.809812  0  0  -0.102727  0  3.825635  0  0  -0.011554  -0.086386  0  3.798907  0
C  C73  1  0.65347927  0.20084218  0.29326881  1  0  -0.124592  0  3.588823  0  0  -0.092987  0  3.80984  0  0  -0.102761  0  3.825659  0  0  -0.011588  -0.086421  0  3.798937  0
C  C74  1  0.38257281  0.72965678  0.83046932  1  0  0.567907  0  3.802225  0  0  0.527612  0  4.076247  0  0  0.556867  0  4.079863  0  0  0.236934  0.50786  0  4.073136  0
C  C75  1  0.61743386  0.27033809  0.16952792  1  0  0.567812  0  3.802536  0  0  0.527613  0  4.076427  0  0  0.556868  0  4.080044  0  0  0.236995  0.507859  0  4.073319  0
C  C76  1  0.12681448  0.81307978  0.72280246  1  0  -0.081633  0  3.666239  0  0  -0.125161  0  3.922461  0  0  -0.125112  0  3.936411  0  0  -0.155767  -0.125006  0  3.912781  0
C  C77  1  0.87318110  0.18692243  0.27719837  1  0  -0.081554  0  3.666133  0  0  -0.125079  0  3.922362  0  0  -0.12503  0  3.936317  0  0  -0.155736  -0.124924  0  3.912682  0
C  C78  1  0.01209582  0.69167688  0.76176542  1  0  -0.289022  0  3.706941  0  0  -0.366077  0  3.952651  0  0  -0.368622  0  3.963772  0  0  -0.25222  -0.364061  0  3.944935  0
C  C79  1  0.98790397  0.30832350  0.23823342  1  0  -0.289121  0  3.706987  0  0  -0.366224  0  3.952679  0  0  -0.368769  0  3.9638  0  0  -0.25225  -0.364207  0  3.944963  0
C  C80  1  0.44622025  0.92745975  0.67237645  1  0  -0.088162  0  3.677878  0  0  -0.134591  0  3.937019  0  0  -0.133834  0  3.950067  0  0  -0.162657  -0.135017  0  3.928142  0
C  C81  1  0.55378235  0.07253971  0.32762479  1  0  -0.088176  0  3.677917  0  0  -0.134471  0  3.936872  0  0  -0.133709  0  3.949917  0  0  -0.16262  -0.134898  0  3.927997  0
C  C82  1  0.66338535  0.92473113  0.65142588  1  0  -0.287765  0  3.696177  0  0  -0.366845  0  3.943436  0  0  -0.36912  0  3.952936  0  0  -0.252114  -0.365002  0  3.936952  0
C  C83  1  0.33661434  0.07526741  0.34857424  1  0  -0.287878  0  3.69613  0  0  -0.366992  0  3.943375  0  0  -0.36927  0  3.952873  0  0  -0.252191  -0.36515  0  3.936894  0
N  N84  1  0.84685350  0.76020383  0.17728607  1  0  -0.216233  0  3.25747  0  0  -0.103876  0  3.490491  0  0  -0.125628  0  3.515215  0  0  -0.348843  -0.088646  0  3.472783  0
N  N85  1  0.15314638  0.23979839  0.82271324  1  0  -0.216427  0  3.257626  0  0  -0.103851  0  3.490449  0  0  -0.125602  0  3.515179  0  0  -0.348872  -0.08862  0  3.472741  0
N  N86  1  0.47088679  0.61570890  0.62532449  1  0  -0.610672  0  3.285505  0  0  -0.521265  0  3.574491  0  0  -0.557807  0  3.583078  0  0  -0.411117  -0.49646  0  3.567851  0
N  N87  1  0.52911309  0.38429331  0.37467569  1  0  -0.610831  0  3.285462  0  0  -0.521398  0  3.574433  0  0  -0.557941  0  3.583016  0  0  -0.411116  -0.496594  0  3.567801  0
N  N88  1  0.45390927  0.61567187  0.83972732  1  0  -0.62975  0  3.30028  0  0  -0.540007  0  3.598662  0  0  -0.575578  0  3.605861  0  0  -0.415502  -0.515688  0  3.592814  0
N  N89  1  0.54608751  0.38432574  0.16027430  1  0  -0.629766  0  3.299986  0  0  -0.540094  0  3.598415  0  0  -0.575668  0  3.605616  0  0  -0.415562  -0.515773  0  3.592565  0
O  O90  1  0.54601861  0.44968789  0.75951481  1  0  -0.615976  0  2.018323  0  0  -0.552356  0  2.281338  0  0  -0.579704  0  2.268798  0  0  -0.313406  -0.533406  0  2.289423  0
O  O91  1  0.45399259  0.55031158  0.24048515  1  0  -0.61593  0  2.018445  0  0  -0.552274  0  2.281446  0  0  -0.579623  0  2.268912  0  0  -0.313342  -0.533322  0  2.289529  0
O  O92  1  0.41029220  0.78894836  0.49389112  1  0  -0.560187  0  2.073538  0  0  -0.491189  0  2.338042  0  0  -0.520703  0  2.330697  0  0  -0.294713  -0.470742  0  2.342465  0
O  O93  1  0.58970185  0.21105201  0.50610594  1  0  -0.56017  0  2.073659  0  0  -0.491186  0  2.33814  0  0  -0.520695  0  2.330786  0  0  -0.294721  -0.470744  0  2.342572  0
O  O94  1  0.34221161  0.77999064  0.92082813  1  0  -0.57994  0  1.952134  0  0  -0.534651  0  2.189104  0  0  -0.556529  0  2.181454  0  0  -0.299678  -0.519584  0  2.194061  0
O  O95  1  0.65778241  0.22000881  0.07917614  1  0  -0.579861  0  1.952491  0  0  -0.534621  0  2.189459  0  0  -0.556493  0  2.181806  0  0  -0.299708  -0.519552  0  2.194414  0
O  O96  1  0.47820877  0.84166661  0.10833334  1  0  -0.556154  0  2.084971  0  0  -0.497755  0  2.326561  0  0  -0.517137  0  2.314851  0  0  -0.41365  -0.483817  0  2.334224  0
O  O97  1  0.52178815  0.15833377  0.89166856  1  0  -0.556166  0  2.085001  0  0  -0.497749  0  2.326603  0  0  -0.517129  0  2.314889  0  0  -0.413661  -0.483817  0  2.334279  0
