# generated using pymatgen
data_Cu4H24C29N8
_symmetry_space_group_name_H-M   'P 1'
_cell_length_a   24.65448238
_cell_length_b   26.18319181
_cell_length_c   27.72368139
_cell_angle_alpha   87.62479991
_cell_angle_beta   89.51013808
_cell_angle_gamma   86.18691262
_symmetry_Int_Tables_number   1
_chemical_formula_structural   Cu4H24C29N8
_chemical_formula_sum   'Cu12 H72 C87 N24'
_cell_volume   17841.29198050
_cell_formula_units_Z   3
loop_
 _symmetry_equiv_pos_site_id
 _symmetry_equiv_pos_as_xyz
  1  'x, y, z'
loop_
 _atom_site_type_symbol
 _atom_site_label
 _atom_site_symmetry_multiplicity
 _atom_site_fract_x
 _atom_site_fract_y
 _atom_site_fract_z
 _atom_site_occupancy
 _atom_site_pbe_bader_charge
 _atom_site_pbe_bader_spin_density
 _atom_site_pbe_cm5_charge
 _atom_site_pbe_ddec_charge
 _atom_site_pbe_ddec_spin_density
 _atom_site_pbe_ddec_sum_bond_order
 _atom_site_pbe_magmom
Cu  Cu0  1  0.20980942  0.22104440  0.85387819  1  0.539102  0  0.486876  0.20215  0  2.143196  0
Cu  Cu1  1  0.14169844  0.20929064  0.76031626  1  0.544564  0  0.481023  0.204092  0  2.102245  0
Cu  Cu2  1  0.24044956  0.12627986  0.79061680  1  0.542731  0  0.482592  0.204196  0  2.104655  0
Cu  Cu3  1  0.17654172  0.76402524  0.13038989  1  0.54305  0  0.484739  0.203511  0  2.115632  0
Cu  Cu4  1  0.09027575  0.77661678  0.21462719  1  0.538137  0  0.485508  0.20141  0  2.135198  0
Cu  Cu5  1  0.19211688  0.84419926  0.21267701  1  0.542323  0  0.483916  0.206133  0  2.103424  0
Cu  Cu6  1  0.76486455  0.20237005  0.14184428  1  0.539204  0  0.482958  0.203977  0  2.108999  0
Cu  Cu7  1  0.86153095  0.22948336  0.20948339  1  0.541903  0  0.483289  0.203432  0  2.115509  0
Cu  Cu8  1  0.79180891  0.13532488  0.23832626  1  0.54069  0  0.48357  0.202426  0  2.117408  0
Cu  Cu9  1  0.80639147  0.80054927  0.85927480  1  0.544904  0  0.483866  0.205572  0  2.10154  0
Cu  Cu10  1  0.89128065  0.80877156  0.76971336  1  0.545146  0  0.48311  0.204817  0  2.10626  0
Cu  Cu11  1  0.81381973  0.90341806  0.79840166  1  0.539457  0  0.486751  0.201944  0  2.142131  0
H  H12  1  0.14792324  0.31600892  0.89882158  1  0.091006  0  0.119236  0.108805  0  0.994095  0
H  H13  1  0.04913539  0.30180402  0.77212926  1  0.082717  0  0.119505  0.111787  0  0.989104  0
H  H14  1  0.33371677  0.06754302  0.85613485  1  0.09963  0  0.11973  0.109939  0  0.992389  0
H  H15  1  0.29816533  0.20478451  0.93590508  1  0.093685  0  0.119948  0.11203  0  0.989631  0
H  H16  1  0.10907562  0.16700547  0.66121262  1  0.081865  0  0.11877  0.108391  0  0.994828  0
H  H17  1  0.24118832  0.05605972  0.70024617  1  0.089021  0  0.118952  0.111223  0  0.991129  0
H  H18  1  0.12807496  0.67442302  0.07368343  1  0.089788  0  0.119655  0.109487  0  0.99372  0
H  H19  1  0.00951984  0.69269057  0.18902291  1  0.083331  0  0.119371  0.111517  0  0.989491  0
H  H20  1  0.30157111  0.89024704  0.17712500  1  0.063191  0  0.119744  0.109874  0  0.990812  0
H  H21  1  0.28342834  0.77852782  0.06839453  1  0.095489  0  0.119524  0.11177  0  0.990327  0
H  H22  1  0.03422661  0.80906563  0.31258169  1  0.11639  0  0.119575  0.111641  0  0.987881  0
H  H23  1  0.17258382  0.90292620  0.31079031  1  0.098171  0  0.120208  0.110748  0  0.990941  0
H  H24  1  0.77252912  0.28979723  0.05871639  1  0.088259  0  0.119505  0.112049  0  0.988548  0
H  H25  1  0.90609529  0.32347772  0.15028244  1  0.084029  0  0.119005  0.108619  0  0.993326  0
H  H26  1  0.69996728  0.05592460  0.23528741  1  0.08323  0  0.119331  0.111479  0  0.989768  0
H  H27  1  0.66619341  0.14533045  0.10267735  1  0.0752  0  0.118914  0.108348  0  0.993652  0
H  H28  1  0.94410689  0.22460594  0.29768757  1  0.073988  0  0.118993  0.111246  0  0.989379  0
H  H29  1  0.85165916  0.09306442  0.33383841  1  0.072528  0  0.119611  0.109299  0  0.99345  0
H  H30  1  0.83860230  0.68879271  0.89889334  1  0.079294  0  0.11959  0.109557  0  0.992793  0
H  H31  1  0.95293486  0.69896976  0.77993285  1  0.100404  0  0.119562  0.111449  0  0.989843  0
H  H32  1  0.71842973  0.97199741  0.84395274  1  0.078013  0  0.119999  0.111384  0  0.988572  0
H  H33  1  0.70362265  0.82993819  0.92747208  1  0.118914  0  0.120621  0.111415  0  0.990345  0
H  H34  1  0.94419024  0.85412152  0.67221789  1  0.093939  0  0.119677  0.109622  0  0.992036  0
H  H35  1  0.83833212  0.98350583  0.71466131  1  0.091137  0  0.119483  0.11155  0  0.989912  0
H  H36  1  0.08971874  0.38678433  0.91909242  1  0.033894  0  0.095327  0.091626  0  0.996732  0
H  H37  1  0.97694083  0.44348833  0.89782325  1  0.06157  0  0.098904  0.101203  0  0.996771  0
H  H38  1  0.00911739  0.37832734  0.83584583  1  0.056492  0  0.098403  0.100823  0  0.991949  0
H  H39  1  0.06267021  0.44518366  0.97792582  1  0.030627  0  0.09335  0.088952  0  1.005025  0
H  H40  1  0.07054150  0.60908118  0.04285226  1  0.049083  0  0.097044  0.095701  0  0.990797  0
H  H41  1  0.97709511  0.54070521  0.07554433  1  0.049424  0  0.097198  0.098576  0  0.998989  0
H  H42  1  0.99354806  0.61094855  0.13096019  1  0.044654  0  0.097588  0.098543  0  0.99338  0
H  H43  1  0.04853078  0.54852108  0.98395871  1  0.013498  0  0.095919  0.095293  0  1.000001  0
H  H44  1  0.92971102  0.38654984  0.08864314  1  0.065468  0  0.096326  0.094014  0  0.993328  0
H  H45  1  0.88814374  0.44325129  0.99366814  1  0.062634  0  0.098048  0.099348  0  0.993395  0
H  H46  1  0.82927528  0.37422605  0.02580044  1  0.040911  0  0.098231  0.099974  0  0.992398  0
H  H47  1  0.99114390  0.44565015  0.05566509  1  0.035157  0  0.09494  0.091727  0  1.004994  0
H  H48  1  0.88257886  0.60277289  0.91882792  1  0.035123  0  0.097051  0.09672  0  0.98928  0
H  H49  1  0.98831204  0.53704419  0.89422512  1  0.052744  0  0.097329  0.097194  0  1.002892  0
H  H50  1  0.96776855  0.60963608  0.83721963  1  0.06236  0  0.097761  0.098378  0  0.992709  0
H  H51  1  0.90789925  0.53670503  0.97997527  1  0.046655  0  0.096126  0.0941  0  1.002721  0
H  H52  1  0.38961814  0.03555069  0.92808686  1  0.041658  0  0.097013  0.095932  0  0.989675  0
H  H53  1  0.45176072  0.07923509  0.01308275  1  0.038367  0  0.096785  0.098141  0  0.998074  0
H  H54  1  0.38471815  0.14166936  0.97258006  1  0.057445  0  0.097167  0.097853  0  0.993325  0
H  H55  1  0.44663501  0.97189677  0.97204092  1  0.042896  0  0.096542  0.095408  0  0.998582  0
H  H56  1  0.62705003  0.88390816  0.97711730  1  0.039196  0  0.098591  0.100644  0  0.984537  0
H  H57  1  0.55161581  0.98110744  0.95064644  1  0.061206  0  0.095339  0.092535  0  1.005427  0
H  H58  1  0.62695398  0.97142133  0.89935616  1  0.043393  0  0.097193  0.095504  0  0.994823  0
H  H59  1  0.55490359  0.91017825  0.04238223  1  0.035062  0  0.097906  0.101236  0  0.998062  0
H  H60  1  0.37649747  0.92240170  0.12453128  1  0.056205  0  0.097261  0.096955  0  0.988218  0
H  H61  1  0.45438614  0.88470356  0.04233301  1  0.051641  0  0.096939  0.096729  0  0.99771  0
H  H62  1  0.37908589  0.82928586  0.05993632  1  0.048053  0  0.097296  0.098061  0  0.9929  0
H  H63  1  0.44063947  0.98499009  0.09714079  1  0.060735  0  0.09732  0.097485  0  1.000639  0
H  H64  1  0.60304419  0.08217539  0.08391702  1  0.033897  0  0.096184  0.093545  0  0.993283  0
H  H65  1  0.53890226  0.99303898  0.12881703  1  0.030108  0  0.097347  0.099303  0  0.994438  0
H  H66  1  0.61045289  0.02583611  0.18367204  1  0.031668  0  0.097657  0.099698  0  0.992857  0
H  H67  1  0.54697602  0.04652918  0.02803567  1  0.047574  0  0.096074  0.092739  0  1.004373  0
H  H68  1  0.08919628  0.11110892  0.59677857  1  0.046379  0  0.096289  0.094245  0  0.992799  0
H  H69  1  0.13661944  0.01851710  0.53912889  1  0.04754  0  0.097677  0.099257  0  0.993077  0
H  H70  1  0.19322080  0.04038620  0.61087043  1  0.068285  0  0.097392  0.099129  0  0.993617  0
H  H71  1  0.02763818  0.08344651  0.54070290  1  0.062507  0  0.096154  0.093279  0  1.002904  0
H  H72  1  0.91838874  0.07079039  0.39696487  1  0.039287  0  0.0966  0.094615  0  0.990944  0
H  H73  1  0.01508672  0.11269045  0.45144391  1  0.057767  0  0.097217  0.098942  0  0.99562  0
H  H74  1  0.97750561  0.17041325  0.38263067  1  0.025435  0  0.097475  0.099215  0  0.994279  0
H  H75  1  0.95956469  0.01038197  0.45400038  1  0.049302  0  0.096715  0.095318  0  1.001667  0
H  H76  1  0.98072956  0.91660251  0.60846122  1  0.028311  0  0.09739  0.096973  0  0.989755  0
H  H77  1  0.93746762  0.01491887  0.54987507  1  0.054905  0  0.097088  0.097619  0  0.995761  0
H  H78  1  0.88554820  0.99652559  0.62418176  1  0.04419  0  0.09758  0.098181  0  0.993254  0
H  H79  1  0.04359690  0.94587319  0.54559555  1  0.044301  0  0.09737  0.096806  0  0.999281  0
H  H80  1  0.12493799  0.94717739  0.38412079  1  0.069333  0  0.098442  0.099002  0  0.986967  0
H  H81  1  0.03443437  0.92107469  0.45856132  1  0.042833  0  0.095725  0.093293  0  1.003445  0
H  H82  1  0.04209667  0.86426000  0.39368597  1  0.045619  0  0.096878  0.096628  0  0.994904  0
H  H83  1  0.10135604  0.01608220  0.44421897  1  0.046207  0  0.09749  0.09955  0  0.996872  0
C  C84  1  0.12963654  0.30616416  0.86527748  1  0.395577  0  0.007068  -0.05192  0  3.942232  0
C  C85  1  0.08264806  0.32798382  0.84183258  1  0.043324  0  -0.040899  0.014794  0  4.131611  0
C  C86  1  0.07918960  0.29862095  0.80067885  1  0.41378  0  0.004478  -0.060484  0  3.94985  0
C  C87  1  0.31814629  0.10368729  0.87031902  1  0.382751  0  0.007903  -0.052142  0  3.933297  0
C  C88  1  0.33419716  0.12867345  0.91143710  1  0.067357  0  -0.040592  0.015726  0  4.135613  0
C  C89  1  0.30028344  0.17403198  0.91072288  1  0.364461  0  0.003204  -0.063071  0  3.961243  0
C  C90  1  0.14262351  0.14389087  0.67774349  1  0.398753  0  0.006362  -0.053495  0  3.937234  0
C  C91  1  0.17185605  0.09992662  0.66108931  1  0.024418  0  -0.040144  0.018412  0  4.13143  0
C  C92  1  0.21029931  0.08756928  0.69765317  1  0.403184  0  0.003659  -0.063643  0  3.958096  0
C  C93  1  0.10343809  0.68558298  0.10459046  1  0.424411  0  0.006948  -0.053739  0  3.938434  0
C  C94  1  0.05604313  0.66492666  0.12366226  1  0.003749  0  -0.039827  0.017575  0  4.13831  0
C  C95  1  0.04316369  0.69485849  0.16366459  1  0.433387  0  0.004034  -0.062232  0  3.958233  0
C  C96  1  0.28899084  0.86085935  0.15393648  1  0.419429  0  0.006912  -0.052607  0  3.93662  0
C  C97  1  0.31479559  0.84042902  0.11278485  1  0.057914  0  -0.040177  0.016295  0  4.135786  0
C  C98  1  0.27983602  0.80345134  0.09876265  1  0.366023  0  0.004599  -0.062017  0  3.957443  0
C  C99  1  0.07099193  0.82862086  0.30482318  1  0.344749  0  0.004902  -0.061774  0  3.956093  0
C  C100  1  0.09575672  0.86473104  0.33203694  1  0.049686  0  -0.040232  0.016547  0  4.134649  0
C  C101  1  0.14129393  0.87697362  0.30384777  1  0.413861  0  0.007706  -0.052067  0  3.932219  0
C  C102  1  0.80309217  0.29141100  0.08648652  1  0.404801  0  0.003885  -0.062664  0  3.952603  0
C  C103  1  0.84474600  0.32530523  0.08989018  1  0.021447  0  -0.039843  0.017308  0  4.130055  0
C  C104  1  0.87142837  0.30858603  0.13303308  1  0.396767  0  0.006831  -0.052517  0  3.936949  0
C  C105  1  0.69862724  0.08299373  0.20451447  1  0.42242  0  0.003148  -0.063532  0  3.957213  0
C  C106  1  0.66337918  0.08661709  0.16470888  1  0.027018  0  -0.040783  0.015759  0  4.133481  0
C  C107  1  0.68150929  0.12834559  0.13666212  1  0.399565  0  0.006732  -0.051941  0  3.935299  0
C  C108  1  0.91594433  0.19441608  0.29987268  1  0.413731  0  0.004481  -0.061567  0  3.955208  0
C  C109  1  0.91262502  0.15395965  0.33457218  1  0.027289  0  -0.040253  0.016663  0  4.133634  0
C  C110  1  0.86903930  0.12708841  0.31833945  1  0.398983  0  0.00616  -0.053694  0  3.936687  0
C  C111  1  0.86264384  0.69913121  0.86746291  1  0.428394  0  0.007291  -0.052159  0  3.937035  0
C  C112  1  0.90563963  0.67105585  0.84470291  1  -0.005582  0  -0.040648  0.015735  0  4.135535  0
C  C113  1  0.92099218  0.70456404  0.80677086  1  0.410874  0  0.004545  -0.060772  0  3.955408  0
C  C114  1  0.72250583  0.93359676  0.86044404  1  0.398486  0  0.005893  -0.059052  0  3.957792  0
C  C115  1  0.68989848  0.91088626  0.89613067  1  0.068712  0  -0.040134  0.014978  0  4.137205  0
C  C116  1  0.71508904  0.86128575  0.90350944  1  0.379338  0  0.008237  -0.051308  0  3.932797  0
C  C117  1  0.91616782  0.88138937  0.68962555  1  0.409993  0  0.007742  -0.051755  0  3.932991  0
C  C118  1  0.89781652  0.93153766  0.67432371  1  -0.062874  0  -0.040656  0.016704  0  4.136992  0
C  C119  1  0.86164664  0.94718822  0.71115653  1  0.450729  0  0.004529  -0.062282  0  3.959727  0
C  C120  1  0.03336430  0.01506984  0.49712281  1  0.074484  0  -0.008166  0.150537  0  3.961088  0
C  C121  1  0.98622954  0.49178838  0.98725896  1  0.065028  0  -0.00742  0.15411  0  3.955079  0
C  C122  1  0.49779502  0.97974486  0.03554238  1  0.069265  0  -0.00835  0.151172  0  3.961875  0
C  C123  1  0.04567810  0.36929655  0.85749914  1  0.002842  0  -0.100028  -0.134751  0  4.046659  0
C  C124  1  0.05280782  0.39575826  0.89779899  1  -0.070769  0  -0.105744  -0.095645  0  4.088418  0
C  C125  1  0.01502504  0.43391897  0.91716256  1  -0.045424  0  -0.105208  -0.100186  0  4.093354  0
C  C126  1  0.02450799  0.45623807  0.95911197  1  -0.07286  0  -0.09101  -0.136116  0  3.891979  0
C  C127  1  0.02702617  0.62265907  0.10772266  1  -0.066101  0  -0.101194  -0.134613  0  4.058236  0
C  C128  1  0.03787881  0.59697985  0.06688349  1  -0.064868  0  -0.106072  -0.095796  0  4.090868  0
C  C129  1  0.00884293  0.55474591  0.05152168  1  0.05193  0  -0.109017  -0.108195  0  4.10975  0
C  C130  1  0.01821756  0.53302736  0.00860114  1  -0.105421  0  -0.090383  -0.135799  0  3.892315  0
C  C131  1  0.85718252  0.36653578  0.05614180  1  -0.057215  0  -0.100206  -0.134818  0  4.049404  0
C  C132  1  0.90117903  0.39479104  0.05879937  1  -0.029649  0  -0.106044  -0.096367  0  4.086946  0
C  C133  1  0.91586762  0.43374054  0.02389762  1  -0.064092  0  -0.105446  -0.101253  0  4.097558  0
C  C134  1  0.96334360  0.45656166  0.02582462  1  -0.069089  0  -0.092506  -0.139339  0  3.905169  0
C  C135  1  0.93180054  0.62167108  0.85837484  1  -0.085408  0  -0.10031  -0.132225  0  4.048886  0
C  C136  1  0.91822419  0.59137494  0.89695952  1  -0.012931  0  -0.106078  -0.097956  0  4.082842  0
C  C137  1  0.95169726  0.54786290  0.91503808  1  0.018408  0  -0.106481  -0.105515  0  4.098787  0
C  C138  1  0.94370536  0.52439392  0.95873117  1  -0.142358  0  -0.089996  -0.135285  0  3.877777  0
C  C139  1  0.37484986  0.11276964  0.94716952  1  -0.004825  0  -0.100963  -0.133846  0  4.057064  0
C  C140  1  0.40019332  0.06531195  0.95235698  1  -0.10775  0  -0.106131  -0.09623  0  4.090877  0
C  C141  1  0.43957408  0.04989966  0.98904160  1  0.026452  0  -0.108916  -0.109573  0  4.102209  0
C  C142  1  0.46038544  0.00107350  0.99543289  1  -0.109975  0  -0.088931  -0.132491  0  3.90509  0
C  C143  1  0.64163189  0.93508998  0.91727674  1  -0.00691  0  -0.098036  -0.126684  0  4.055958  0
C  C144  1  0.61324364  0.91890284  0.95655294  1  -0.10512  0  -0.106468  -0.100944  0  4.07817  0
C  C145  1  0.56619548  0.94820231  0.97390174  1  -0.070215  0  -0.106118  -0.100014  0  4.112264  0
C  C146  1  0.54072874  0.94097631  0.01675296  1  -0.050639  0  -0.092273  -0.143683  0  3.883455  0
C  C147  1  0.36425183  0.85415810  0.08868752  1  -0.079384  0  -0.100079  -0.133013  0  4.051347  0
C  C148  1  0.39177826  0.89607117  0.09707573  1  -0.045293  0  -0.105179  -0.095986  0  4.082729  0
C  C149  1  0.43789082  0.91126211  0.06916621  1  -0.043898  0  -0.107021  -0.10588  0  4.108135  0
C  C150  1  0.45847276  0.95767451  0.07166238  1  -0.063884  0  -0.09217  -0.139528  0  3.897875  0
C  C151  1  0.62000738  0.05396695  0.15505435  1  -0.051475  0  -0.101373  -0.136436  0  4.051941  0
C  C152  1  0.59230789  0.05487535  0.11292510  1  0.00083  0  -0.10647  -0.094235  0  4.089492  0
C  C153  1  0.55168446  0.02059579  0.10084573  1  0.034371  0  -0.107943  -0.109126  0  4.096492  0
C  C154  1  0.53195643  0.01968104  0.05555784  1  -0.133504  0  -0.090059  -0.132098  0  3.899463  0
C  C155  1  0.16339635  0.07202406  0.61815707  1  -0.072203  0  -0.100852  -0.135574  0  4.049958  0
C  C156  1  0.11994821  0.08051107  0.58850460  1  -0.050916  0  -0.1057  -0.094695  0  4.086288  0
C  C157  1  0.10689908  0.04925811  0.54928471  1  -0.024832  0  -0.107487  -0.107838  0  4.096908  0
C  C158  1  0.05730768  0.05369693  0.52844460  1  -0.098566  0  -0.090064  -0.13238  0  3.891593  0
C  C159  1  0.94757517  0.14254715  0.37575276  1  -0.002046  0  -0.101482  -0.136362  0  4.054789  0
C  C160  1  0.94744985  0.09931682  0.40447611  1  -0.02707  0  -0.106009  -0.09404  0  4.087961  0
C  C161  1  0.98552243  0.08511944  0.44252141  1  -0.065599  0  -0.108317  -0.109301  0  4.101649  0
C  C162  1  0.98829459  0.03797764  0.46456489  1  -0.095295  0  -0.090479  -0.135428  0  3.901751  0
C  C163  1  0.91126153  0.96138144  0.63146565  1  -0.059382  0  -0.099936  -0.132656  0  4.057456  0
C  C164  1  0.95315813  0.95045224  0.60078144  1  0.022066  0  -0.106243  -0.097877  0  4.090464  0
C  C165  1  0.96633033  0.98253529  0.55956894  1  -0.081209  0  -0.107314  -0.104826  0  4.103203  0
C  C166  1  0.01352842  0.97672705  0.53467389  1  -0.032727  0  -0.089516  -0.134966  0  3.892335  0
C  C167  1  0.07588552  0.88404406  0.37732328  1  -0.103367  0  -0.099126  -0.131122  0  4.054506  0
C  C168  1  0.09253894  0.92516033  0.40002165  1  -0.027503  0  -0.10576  -0.096798  0  4.0787  0
C  C169  1  0.06571883  0.94444875  0.44245245  1  -0.033781  0  -0.107287  -0.104514  0  4.109239  0
C  C170  1  0.07228284  0.99071095  0.46074146  1  -0.090293  0  -0.091897  -0.140639  0  3.885138  0
N  N171  1  0.12070673  0.26230270  0.79989492  1  -0.797555  0  -0.337101  -0.143734  0  3.764647  0
N  N172  1  0.15191701  0.26719804  0.84009698  1  -0.780437  0  -0.339805  -0.137634  0  3.790867  0
N  N173  1  0.26667732  0.17570217  0.87253700  1  -0.769288  0  -0.342899  -0.142751  0  3.787899  0
N  N174  1  0.27791243  0.13207721  0.84733290  1  -0.780379  0  -0.335476  -0.137669  0  3.76942  0
N  N175  1  0.20420030  0.12122939  0.73319015  1  -0.765039  0  -0.337983  -0.142016  0  3.770216  0
N  N176  1  0.16217018  0.15633706  0.72062202  1  -0.772353  0  -0.335251  -0.138171  0  3.771587  0
N  N177  1  0.07990918  0.73023615  0.16802864  1  -0.77508  0  -0.341336  -0.142662  0  3.78275  0
N  N178  1  0.11741318  0.72435833  0.13136144  1  -0.790604  0  -0.336008  -0.135947  0  3.774103  0
N  N179  1  0.23670397  0.80224276  0.12892619  1  -0.763412  0  -0.339654  -0.140831  0  3.777092  0
N  N180  1  0.24257775  0.83780765  0.16333606  1  -0.780089  0  -0.335195  -0.138716  0  3.775134  0
N  N181  1  0.14315637  0.85017250  0.26331133  1  -0.76407  0  -0.333912  -0.138232  0  3.767157  0
N  N182  1  0.09932803  0.82028198  0.26383690  1  -0.768279  0  -0.341202  -0.140592  0  3.7853  0
N  N183  1  0.84744018  0.26820017  0.15334135  1  -0.775105  0  -0.336159  -0.137127  0  3.776878  0
N  N184  1  0.80499908  0.25733567  0.12440888  1  -0.76694  0  -0.338131  -0.142312  0  3.769251  0
N  N185  1  0.72391507  0.14770594  0.15821918  1  -0.776763  0  -0.336546  -0.138731  0  3.774172  0
N  N186  1  0.73474221  0.11946860  0.20036239  1  -0.785979  0  -0.339506  -0.141343  0  3.774989  0
N  N187  1  0.84851054  0.14982685  0.27738629  1  -0.763345  0  -0.336127  -0.136077  0  3.776869  0
N  N188  1  0.87768601  0.19163207  0.26574784  1  -0.772811  0  -0.33996  -0.144085  0  3.774929  0
N  N189  1  0.88983368  0.74888879  0.80707186  1  -0.782432  0  -0.338353  -0.143397  0  3.773545  0
N  N190  1  0.85355333  0.74542384  0.84488596  1  -0.761714  0  -0.334514  -0.13662  0  3.770205  0
N  N191  1  0.75879337  0.85524129  0.87421161  1  -0.767697  0  -0.334373  -0.138571  0  3.763597  0
N  N192  1  0.76353380  0.90029491  0.84765818  1  -0.779354  0  -0.342475  -0.141719  0  3.785178  0
N  N193  1  0.85881172  0.90952104  0.74550381  1  -0.788408  0  -0.342758  -0.141685  0  3.78394  0
N  N194  1  0.89246096  0.86851959  0.73200029  1  -0.767637  0  -0.335419  -0.139493  0  3.768531  0
