# generated using pymatgen
data_ZnPH10C6(NO2)3
_symmetry_space_group_name_H-M   'P 1'
_cell_length_a   5.18019155
_cell_length_b   9.81421658
_cell_length_c   10.72363850
_cell_angle_alpha   86.89343025
_cell_angle_beta   83.91289118
_cell_angle_gamma   74.46389725
_symmetry_Int_Tables_number   1
_chemical_formula_structural   ZnPH10C6(NO2)3
_chemical_formula_sum   'Zn2 P2 H20 C12 N6 O12'
_cell_volume   522.11379668
_cell_formula_units_Z   2
loop_
 _symmetry_equiv_pos_site_id
 _symmetry_equiv_pos_as_xyz
  1  'x, y, z'
loop_
 _atom_site_type_symbol
 _atom_site_label
 _atom_site_symmetry_multiplicity
 _atom_site_fract_x
 _atom_site_fract_y
 _atom_site_fract_z
 _atom_site_occupancy
 _atom_site_hle17_bader_spin_density
 _atom_site_hle17_ddec_charge
 _atom_site_hle17_ddec_spin_density
 _atom_site_hle17_ddec_sum_bond_order
 _atom_site_hle17_magmom
 _atom_site_hse06_10hf_bader_spin_density
 _atom_site_hse06_10hf_ddec_charge
 _atom_site_hse06_10hf_ddec_spin_density
 _atom_site_hse06_10hf_ddec_sum_bond_order
 _atom_site_hse06_10hf_magmom
 _atom_site_hse06_bader_spin_density
 _atom_site_hse06_ddec_charge
 _atom_site_hse06_ddec_spin_density
 _atom_site_hse06_ddec_sum_bond_order
 _atom_site_hse06_magmom
 _atom_site_pbe_bader_spin_density
 _atom_site_pbe_cm5_charge
 _atom_site_pbe_ddec_charge
 _atom_site_pbe_ddec_spin_density
 _atom_site_pbe_ddec_sum_bond_order
 _atom_site_pbe_magmom
Zn  Zn0  1  0.31378455  0.31776540  0.04352619  1  0  1.167167  0  1.838373  0  0  0.994513  0  2.325067  0  0  1.035934  0  2.266832  0  0  0.717833  0.965493  0  2.365032  0
Zn  Zn1  1  0.68620946  0.68223564  0.95647527  1  0  1.167156  0  1.838383  0  0  0.994494  0  2.325058  0  0  1.035918  0  2.266815  0  0  0.717797  0.965466  0  2.365004  0
P  P2  1  0.79558581  0.36530736  0.89041170  1  0  1.747114  0  4.942625  0  0  1.562972  0  5.458542  0  0  1.620572  0  5.405116  0  0  0.393859  1.522765  0  5.495102  0
P  P3  1  0.20440719  0.63469580  0.10958969  1  0  1.747052  0  4.942801  0  0  1.562901  0  5.458742  0  0  1.62047  0  5.405453  0  0  0.393818  1.522693  0  5.4953  0
H  H4  1  0.94020130  0.31191600  0.68683207  1  0  0.419539  0  0.897201  0  0  0.381867  0  0.970704  0  0  0.395261  0  0.951864  0  0  0.296244  0.372544  0  0.983805  0
H  H5  1  0.05979608  0.68808608  0.31317010  1  0  0.419505  0  0.897247  0  0  0.381859  0  0.970715  0  0  0.395255  0  0.951869  0  0  0.296227  0.372532  0  0.98382  0
H  H6  1  0.70367008  0.83586017  0.23644094  1  0  0.324267  0  0.911531  0  0  0.304094  0  0.968966  0  0  0.312621  0  0.96219  0  0  0.318428  0.298111  0  0.973779  0
H  H7  1  0.29632838  0.16413976  0.76355757  1  0  0.324256  0  0.911561  0  0  0.304076  0  0.968993  0  0  0.312599  0  0.962227  0  0  0.31842  0.298095  0  0.973805  0
H  H8  1  0.65230082  0.54563450  0.38155461  1  0  0.343584  0  0.85415  0  0  0.318857  0  0.923602  0  0  0.327491  0  0.916149  0  0  0.314522  0.312682  0  0.929064  0
H  H9  1  0.34770155  0.45436539  0.61844278  1  0  0.343555  0  0.854181  0  0  0.318832  0  0.92363  0  0  0.327466  0  0.916175  0  0  0.314514  0.312657  0  0.929093  0
H  H10  1  0.51743541  0.40527010  0.40245477  1  0  0.337188  0  0.882282  0  0  0.312581  0  0.9534  0  0  0.32177  0  0.945725  0  0  0.306329  0.306099  0  0.958786  0
H  H11  1  0.48256940  0.59472873  0.59754350  1  0  0.33723  0  0.88219  0  0  0.312585  0  0.953356  0  0  0.321773  0  0.94568  0  0  0.306337  0.306106  0  0.958736  0
H  H12  1  0.58591661  0.46342200  0.25690468  1  0  0.34997  0  0.852885  0  0  0.331615  0  0.908601  0  0  0.339735  0  0.902578  0  0  0.314347  0.325849  0  0.912927  0
H  H13  1  0.41408628  0.53657684  0.74309181  1  0  0.349983  0  0.852882  0  0  0.331582  0  0.908657  0  0  0.339701  0  0.902638  0  0  0.314376  0.325818  0  0.912985  0
H  H14  1  0.76324526  0.02749621  0.07768200  1  0  0.094558  0  0.920874  0  0  0.10775  0  0.976591  0  0  0.109975  0  0.974181  0  0  0.141356  0.10604  0  0.978528  0
H  H15  1  0.23674739  0.97250375  0.92231492  1  0  0.094563  0  0.920913  0  0  0.107785  0  0.976607  0  0  0.110007  0  0.974197  0  0  0.141413  0.10608  0  0.978543  0
H  H16  1  0.25512970  0.91275522  0.37623033  1  0  0.127018  0  0.954169  0  0  0.135655  0  1.016032  0  0  0.139543  0  1.013106  0  0  0.122891  0.132837  0  1.018218  0
H  H17  1  0.74487116  0.08724366  0.62377092  1  0  0.127035  0  0.954169  0  0  0.135664  0  1.016039  0  0  0.13956  0  1.013103  0  0  0.122906  0.132851  0  1.018223  0
H  H18  1  0.81719080  0.15638086  0.36136303  1  0  0.104644  0  0.916635  0  0  0.119958  0  0.973191  0  0  0.121885  0  0.972718  0  0  0.104906  0.118591  0  0.973575  0
H  H19  1  0.18281582  0.84362221  0.63863865  1  0  0.104623  0  0.916556  0  0  0.119986  0  0.973097  0  0  0.121918  0  0.972624  0  0  0.104917  0.11862  0  0.973479  0
H  H20  1  0.82409508  0.23444706  0.20804848  1  0  0.107508  0  0.948771  0  0  0.119862  0  1.015994  0  0  0.121146  0  1.015669  0  0  0.105  0.118879  0  1.016244  0
H  H21  1  0.17590232  0.76555082  0.79195672  1  0  0.107457  0  0.94868  0  0  0.119812  0  1.015952  0  0  0.121115  0  1.015611  0  0  0.104976  0.118829  0  1.016201  0
H  H22  1  0.06750640  0.40298331  0.28252062  1  0  0.084799  0  0.95356  0  0  0.092057  0  1.015642  0  0  0.094536  0  1.014204  0  0  0.118178  0.090166  0  1.016808  0
H  H23  1  0.93250234  0.59701548  0.71747560  1  0  0.084821  0  0.953598  0  0  0.09204  0  1.015692  0  0  0.094528  0  1.01426  0  0  0.11818  0.090157  0  1.016853  0
C  C24  1  0.59207326  0.03569827  0.14708191  1  0  0.223732  0  3.700194  0  0  0.160892  0  3.978975  0  0  0.174847  0  3.991566  0  0  0.148873  0.151841  0  3.970327  0
C  C25  1  0.40791981  0.96430068  0.85291971  1  0  0.223852  0  3.700203  0  0  0.160984  0  3.979019  0  0  0.174952  0  3.991593  0  0  0.148823  0.151927  0  3.970374  0
C  C26  1  0.32371318  0.98005186  0.30389175  1  0  -0.046412  0  3.62865  0  0  -0.095963  0  3.889414  0  0  -0.094117  0  3.906541  0  0  0.005388  -0.097098  0  3.878124  0
C  C27  1  0.67629158  0.01994700  0.69610931  1  0  -0.046398  0  3.628596  0  0  -0.095939  0  3.889351  0  0  -0.094102  0  3.906474  0  0  0.005407  -0.097081  0  3.87807  0
C  C28  1  0.20348235  0.11324328  0.25753465  1  0  0.163249  0  3.768135  0  0  0.165225  0  4.030456  0  0  0.166713  0  4.056813  0  0  0.072845  0.163984  0  4.01284  0
C  C29  1  0.79651463  0.88675563  0.74246585  1  0  0.163268  0  3.768239  0  0  0.165277  0  4.030582  0  0  0.16677  0  4.056944  0  0  0.072835  0.164036  0  4.012965  0
C  C30  1  0.93267961  0.20986280  0.29274341  1  0  -0.211301  0  3.699535  0  0  -0.257321  0  3.945072  0  0  -0.258945  0  3.957655  0  0  -0.152966  -0.256065  0  3.936628  0
C  C31  1  0.06730721  0.79013301  0.70725681  1  0  -0.21114  0  3.699505  0  0  -0.257301  0  3.945215  0  0  -0.258942  0  3.957832  0  0  -0.152926  -0.256035  0  3.936758  0
C  C32  1  0.93538041  0.35265782  0.34435386  1  0  0.063669  0  3.504739  0  0  0.041237  0  3.746123  0  0  0.040869  0  3.756342  0  0  0.007172  0.041475  0  3.739202  0
C  C33  1  0.06462278  0.64734423  0.65564990  1  0  0.063511  0  3.504974  0  0  0.04115  0  3.746302  0  0  0.040733  0  3.756608  0  0  0.007133  0.041372  0  3.7394  0
C  C34  1  0.02600299  0.33687348  0.47747104  1  0  0.640757  0  3.860428  0  0  0.588525  0  4.17329  0  0  0.620457  0  4.167589  0  0  0.213158  0.566944  0  4.176462  0
C  C35  1  0.97399886  0.66312749  0.52252725  1  0  0.640853  0  3.86046  0  0  0.588725  0  4.173126  0  0  0.620666  0  4.167431  0  0  0.213271  0.567142  0  4.176302  0
N  N36  1  0.37548798  0.14627371  0.15885812  1  0  -0.470262  0  3.267991  0  0  -0.396215  0  3.572  0  0  -0.417135  0  3.584369  0  0  -0.365406  -0.381886  0  3.563259  0
N  N37  1  0.62450510  0.85372941  0.84113861  1  0  -0.470363  0  3.268156  0  0  -0.396338  0  3.572194  0  0  -0.41726  0  3.584555  0  0  -0.365418  -0.382007  0  3.563451  0
N  N38  1  0.56726239  0.93465403  0.23367488  1  0  -0.255944  0  3.466876  0  0  -0.188649  0  3.706074  0  0  -0.203772  0  3.720437  0  0  -0.372701  -0.178806  0  3.696393  0
N  N39  1  0.43272970  0.06534701  0.76632480  1  0  -0.255994  0  3.466738  0  0  -0.188688  0  3.705953  0  0  -0.203817  0  3.720318  0  0  -0.37267  -0.178838  0  3.69627  0
N  N40  1  0.65684811  0.44828799  0.34613335  1  0  -0.509897  0  3.160231  0  0  -0.463206  0  3.368293  0  0  -0.478137  0  3.364195  0  0  -0.603786  -0.452965  0  3.371358  0
N  N41  1  0.34315862  0.55171084  0.65386669  1  0  -0.509809  0  3.160166  0  0  -0.463114  0  3.36837  0  0  -0.47803  0  3.364283  0  0  -0.603799  -0.452873  0  3.371441  0
O  O42  1  0.58655525  0.27869626  0.90098525  1  0  -0.903917  0  1.965258  0  0  -0.813831  0  2.2624  0  0  -0.841754  0  2.235785  0  0  -0.396295  -0.794087  0  2.280134  0
O  O43  1  0.41344215  0.72130581  0.09901599  1  0  -0.903932  0  1.965294  0  0  -0.813821  0  2.262422  0  0  -0.841738  0  2.235817  0  0  -0.396288  -0.794066  0  2.280137  0
O  O44  1  0.65643566  0.52260535  0.85818340  1  0  -0.930281  0  2.02935  0  0  -0.831151  0  2.316031  0  0  -0.859241  0  2.288343  0  0  -0.385829  -0.811063  0  2.333958  0
O  O45  1  0.34356423  0.47739564  0.14181592  1  0  -0.930226  0  2.029371  0  0  -0.831133  0  2.316098  0  0  -0.859218  0  2.288409  0  0  -0.385815  -0.811048  0  2.33403  0
O  O46  1  0.01436354  0.30807754  0.77623404  1  0  -0.807194  0  2.050988  0  0  -0.727697  0  2.280831  0  0  -0.750915  0  2.253054  0  0  -0.390715  -0.711576  0  2.299832  0
O  O47  1  0.98563344  0.69192136  0.22376646  1  0  -0.807124  0  2.05098  0  0  -0.727698  0  2.280849  0  0  -0.750921  0  2.253091  0  0  -0.390725  -0.711582  0  2.299859  0
O  O48  1  0.94291317  0.34852784  0.00863504  1  0  -0.918699  0  2.031228  0  0  -0.82472  0  2.340013  0  0  -0.852006  0  2.309931  0  0  -0.391712  -0.805461  0  2.36021  0
O  O49  1  0.05708372  0.65147529  0.99136616  1  0  -0.918719  0  2.031306  0  0  -0.824705  0  2.340049  0  0  -0.851992  0  2.309986  0  0  -0.391697  -0.805447  0  2.360243  0
O  O50  1  0.26044901  0.34435992  0.49250787  1  0  -0.632064  0  1.97144  0  0  -0.584563  0  2.203308  0  0  -0.607626  0  2.194364  0  0  -0.321865  -0.568543  0  2.209004  0
O  O51  1  0.73954289  0.65564958  0.50749417  1  0  -0.63211  0  1.971412  0  0  -0.584643  0  2.203242  0  0  -0.607702  0  2.19429  0  0  -0.321937  -0.568622  0  2.208936  0
O  O52  1  0.85228405  0.31513924  0.56460365  1  0  -0.612818  0  1.990512  0  0  -0.554315  0  2.211061  0  0  -0.579666  0  2.201462  0  0  -0.320052  -0.536727  0  2.217167  0
O  O53  1  0.14772321  0.68485852  0.43539456  1  0  -0.612877  0  1.990603  0  0  -0.554398  0  2.211067  0  0  -0.579748  0  2.201463  0  0  -0.320076  -0.536806  0  2.217174  0
