# generated using pymatgen
data_MoH15C20NO4
_symmetry_space_group_name_H-M   'P 1'
_cell_length_a   8.16729880
_cell_length_b   10.27147483
_cell_length_c   11.98341116
_cell_angle_alpha   113.01346285
_cell_angle_beta   90.84465682
_cell_angle_gamma   108.64099651
_symmetry_Int_Tables_number   1
_chemical_formula_structural   MoH15C20NO4
_chemical_formula_sum   'Mo2 H30 C40 N2 O8'
_cell_volume   865.42082118
_cell_formula_units_Z   2
loop_
 _symmetry_equiv_pos_site_id
 _symmetry_equiv_pos_as_xyz
  1  'x, y, z'
loop_
 _atom_site_type_symbol
 _atom_site_label
 _atom_site_symmetry_multiplicity
 _atom_site_fract_x
 _atom_site_fract_y
 _atom_site_fract_z
 _atom_site_occupancy
 _atom_site_hle17_bader_spin_density
 _atom_site_hle17_ddec_charge
 _atom_site_hle17_ddec_spin_density
 _atom_site_hle17_ddec_sum_bond_order
 _atom_site_hle17_magmom
 _atom_site_hse06_10hf_bader_spin_density
 _atom_site_hse06_10hf_ddec_charge
 _atom_site_hse06_10hf_ddec_spin_density
 _atom_site_hse06_10hf_ddec_sum_bond_order
 _atom_site_hse06_10hf_magmom
 _atom_site_hse06_bader_spin_density
 _atom_site_hse06_ddec_charge
 _atom_site_hse06_ddec_spin_density
 _atom_site_hse06_ddec_sum_bond_order
 _atom_site_hse06_magmom
 _atom_site_pbe_bader_spin_density
 _atom_site_pbe_cm5_charge
 _atom_site_pbe_ddec_charge
 _atom_site_pbe_ddec_spin_density
 _atom_site_pbe_ddec_sum_bond_order
 _atom_site_pbe_magmom
Mo  Mo0  1  0.05765208  0.92316617  0.94084831  1  0  0.959101  0  3.638219  0  0  0.894212  0  4.229393  0  0  0.926721  0  4.218357  0  0  0.826222  0.871345  0  4.236802  0
Mo  Mo1  1  0.94234865  0.07684382  0.05915373  1  0  0.958976  0  3.638195  0  0  0.893811  0  4.229508  0  0  0.926305  0  4.218493  0  0  0.825877  0.871027  0  4.236646  0
H  H2  1  0.37968836  0.77612438  0.00542982  1  0  0.10231  0  0.961984  0  0  0.1077  0  1.033428  0  0  0.1121  0  1.029143  0  0  0.101943  0.10454  0  1.036473  0
H  H3  1  0.62029551  0.22388035  0.99455686  1  0  0.102398  0  0.961821  0  0  0.107772  0  1.033266  0  0  0.112164  0  1.029011  0  0  0.10198  0.104612  0  1.036305  0
H  H4  1  0.09765949  0.56185949  0.94555253  1  0  0.092786  0  0.947688  0  0  0.103574  0  1.007304  0  0  0.106764  0  1.005879  0  0  0.101266  0.10128  0  1.00845  0
H  H5  1  0.90233378  0.43814726  0.05444329  1  0  0.092768  0  0.947782  0  0  0.103513  0  1.007443  0  0  0.1067  0  1.00602  0  0  0.101279  0.101222  0  1.008585  0
H  H6  1  0.08809524  0.29829737  0.82591396  1  0  0.080674  0  0.989184  0  0  0.090752  0  1.052809  0  0  0.092831  0  1.052461  0  0  0.093675  0.089251  0  1.053069  0
H  H7  1  0.91190896  0.70170330  0.17409489  1  0  0.080659  0  0.98923  0  0  0.09077  0  1.052818  0  0  0.092845  0  1.052477  0  0  0.09368  0.089269  0  1.053076  0
H  H8  1  0.36209195  0.25078491  0.76703833  1  0  0.083412  0  0.962465  0  0  0.095984  0  1.020324  0  0  0.098677  0  1.019491  0  0  0.097716  0.094081  0  1.020949  0
H  H9  1  0.63792243  0.74922559  0.23298740  1  0  0.08339  0  0.962347  0  0  0.095915  0  1.020292  0  0  0.098597  0  1.01946  0  0  0.097655  0.094012  0  1.020918  0
H  H10  1  0.64361254  0.46861185  0.82371907  1  0  0.090061  0  0.964139  0  0  0.100592  0  1.027888  0  0  0.103659  0  1.025706  0  0  0.099657  0.098373  0  1.029411  0
H  H11  1  0.35639363  0.53140243  0.17629369  1  0  0.090081  0  0.964196  0  0  0.100601  0  1.027938  0  0  0.103666  0  1.025757  0  0  0.099697  0.098373  0  1.029489  0
H  H12  1  0.27301174  0.75534257  0.18350364  1  0  0.097633  0  0.967382  0  0  0.106674  0  1.033293  0  0  0.109561  0  1.031871  0  0  0.103311  0.104745  0  1.03401  0
H  H13  1  0.72697687  0.24464705  0.81649285  1  0  0.097694  0  0.967323  0  0  0.106734  0  1.033214  0  0  0.109627  0  1.031786  0  0  0.103297  0.104801  0  1.033945  0
H  H14  1  0.36720688  0.70993458  0.36011433  1  0  0.084393  0  0.96364  0  0  0.094907  0  1.024828  0  0  0.097398  0  1.024631  0  0  0.097522  0.093045  0  1.025259  0
H  H15  1  0.63277311  0.29004606  0.63987728  1  0  0.084412  0  0.963414  0  0  0.09491  0  1.024625  0  0  0.097386  0  1.024456  0  0  0.09749  0.093048  0  1.025056  0
H  H16  1  0.33550796  0.86580689  0.57144385  1  0  0.080254  0  0.98984  0  0  0.089765  0  1.053809  0  0  0.091539  0  1.054758  0  0  0.093665  0.088557  0  1.053052  0
H  H17  1  0.66448613  0.13417823  0.42854863  1  0  0.080232  0  0.989935  0  0  0.089754  0  1.05387  0  0  0.091524  0  1.054825  0  0  0.093693  0.088545  0  1.053117  0
H  H18  1  0.20888935  0.06627611  0.60755563  1  0  0.091421  0  0.960017  0  0  0.103475  0  1.016231  0  0  0.106342  0  1.015208  0  0  0.101794  0.10145  0  1.017035  0
H  H19  1  0.79113423  0.93372697  0.39244508  1  0  0.091271  0  0.960144  0  0  0.10352  0  1.016133  0  0  0.106402  0  1.015106  0  0  0.10177  0.101493  0  1.016939  0
H  H20  1  0.11429173  0.11133319  0.43183015  1  0  0.093714  0  0.958035  0  0  0.102903  0  1.022276  0  0  0.106364  0  1.019835  0  0  0.100738  0.100455  0  1.023911  0
H  H21  1  0.88573323  0.88867321  0.56817424  1  0  0.093709  0  0.958059  0  0  0.102929  0  1.02227  0  0  0.106406  0  1.019814  0  0  0.100701  0.100483  0  1.023901  0
H  H22  1  0.96121426  0.59887688  0.70271564  1  0  0.079206  0  0.928714  0  0  0.088085  0  0.990888  0  0  0.091605  0  0.98739  0  0  0.114941  0.085425  0  0.993578  0
H  H23  1  0.03878369  0.40112050  0.29728865  1  0  0.079156  0  0.928833  0  0  0.088044  0  0.990998  0  0  0.091564  0  0.987499  0  0  0.114936  0.085387  0  0.993688  0
H  H24  1  0.08355971  0.41946438  0.55444823  1  0  0.102161  0  0.950982  0  0  0.113063  0  1.010333  0  0  0.116128  0  1.010271  0  0  0.105646  0.111163  0  1.009981  0
H  H25  1  0.91643969  0.58053061  0.44556026  1  0  0.102097  0  0.951013  0  0  0.113001  0  1.010381  0  0  0.116063  0  1.010327  0  0  0.105611  0.111106  0  1.010012  0
H  H26  1  0.59024835  0.77923217  0.68610867  1  0  0.103446  0  0.968773  0  0  0.113042  0  1.030853  0  0  0.115827  0  1.030699  0  0  0.105106  0.11098  0  1.031248  0
H  H27  1  0.40974948  0.22076198  0.31388782  1  0  0.103421  0  0.968791  0  0  0.113045  0  1.030846  0  0  0.115811  0  1.030716  0  0  0.105127  0.110985  0  1.031242  0
H  H28  1  0.44595107  0.94173405  0.82807528  1  0  0.089126  0  0.930075  0  0  0.096603  0  0.99369  0  0  0.100231  0  0.990274  0  0  0.117086  0.093879  0  0.996256  0
H  H29  1  0.55405264  0.05826244  0.17191792  1  0  0.089282  0  0.930049  0  0  0.096763  0  0.993647  0  0  0.100377  0  0.990249  0  0  0.117127  0.094037  0  0.996221  0
H  H30  1  0.32333161  0.36756659  0.46065260  1  0  0.092978  0  0.950902  0  0  0.105109  0  1.011796  0  0  0.108232  0  1.00972  0  0  0.104101  0.102847  0  1.013421  0
H  H31  1  0.67666432  0.63242298  0.53934479  1  0  0.092863  0  0.950847  0  0  0.105031  0  1.011729  0  0  0.108152  0  1.009657  0  0  0.104085  0.102773  0  1.01334  0
C  C32  1  0.52852633  0.63487934  0.91676924  1  0  -0.073447  0  3.80628  0  0  -0.044652  0  4.031077  0  0  -0.053506  0  4.05569  0  0  -0.021892  -0.038992  0  4.014379  0
C  C33  1  0.47147305  0.36512738  0.08322664  1  0  -0.073552  0  3.806555  0  0  -0.044784  0  4.031333  0  0  -0.053636  0  4.055944  0  0  -0.022032  -0.039121  0  4.014637  0
C  C34  1  0.37489504  0.66097652  0.95266036  1  0  -0.06894  0  3.725051  0  0  -0.097898  0  3.979336  0  0  -0.097123  0  3.999215  0  0  -0.085397  -0.098188  0  3.965916  0
C  C35  1  0.62510214  0.33903373  0.04733171  1  0  -0.068923  0  3.724846  0  0  -0.097854  0  3.97914  0  0  -0.097093  0  3.999012  0  0  -0.085354  -0.098143  0  3.965717  0
C  C36  1  0.21697858  0.54016584  0.91924014  1  0  -0.080781  0  3.764687  0  0  -0.092094  0  4.020517  0  0  -0.096034  0  4.041904  0  0  -0.093142  -0.089523  0  4.006134  0
C  C37  1  0.78302101  0.45984433  0.08075444  1  0  -0.080637  0  3.764679  0  0  -0.09191  0  4.020535  0  0  -0.095845  0  4.041916  0  0  -0.093085  -0.089342  0  4.006156  0
C  C38  1  0.21161184  0.39245565  0.85151191  1  0  -0.049208  0  3.740167  0  0  -0.068304  0  3.991447  0  0  -0.067629  0  4.012166  0  0  -0.090999  -0.068629  0  3.977352  0
C  C39  1  0.78838520  0.60755432  0.14849175  1  0  -0.049348  0  3.740175  0  0  -0.068481  0  3.991467  0  0  -0.067801  0  4.012177  0  0  -0.091088  -0.068804  0  3.977373  0
C  C40  1  0.36473560  0.36600060  0.81700240  1  0  -0.08118  0  3.779751  0  0  -0.09249  0  4.032551  0  0  -0.096772  0  4.055017  0  0  -0.095159  -0.089735  0  4.017223  0
C  C41  1  0.63525735  0.63400245  0.18300465  1  0  -0.081136  0  3.779713  0  0  -0.092439  0  4.03254  0  0  -0.096709  0  4.054998  0  0  -0.095134  -0.089682  0  4.017212  0
C  C42  1  0.52241912  0.48661994  0.84854915  1  0  -0.069886  0  3.742367  0  0  -0.0965  0  3.989409  0  0  -0.095882  0  4.01099  0  0  -0.08635  -0.096416  0  3.974561  0
C  C43  1  0.47757754  0.51338322  0.15145297  1  0  -0.069901  0  3.742712  0  0  -0.096469  0  3.989671  0  0  -0.09585  0  4.011253  0  0  -0.086327  -0.09639  0  3.974827  0
C  C44  1  0.69536650  0.76195767  0.94968523  1  0  0.600004  0  3.838356  0  0  0.548403  0  4.138715  0  0  0.582328  0  4.133612  0  0  0.199623  0.525772  0  4.141363  0
C  C45  1  0.30462885  0.23805115  0.05031884  1  0  0.599994  0  3.838131  0  0  0.54843  0  4.138474  0  0  0.582355  0  4.133367  0  0  0.199613  0.525795  0  4.141119  0
C  C46  1  0.18913590  0.93728508  0.29683343  1  0  -0.079139  0  3.805553  0  0  -0.053529  0  4.038388  0  0  -0.061611  0  4.061245  0  0  -0.024455  -0.048343  0  4.022812  0
C  C47  1  0.81087004  0.06270794  0.70316109  1  0  -0.079043  0  3.805432  0  0  -0.053407  0  4.038248  0  0  -0.061489  0  4.061109  0  0  -0.024471  -0.048222  0  4.022672  0
C  C48  1  0.26051429  0.82350063  0.27677332  1  0  -0.076165  0  3.720741  0  0  -0.101625  0  3.966708  0  0  -0.10061  0  3.986323  0  0  -0.087901  -0.102008  0  3.95292  0
C  C49  1  0.73947996  0.17648783  0.72322282  1  0  -0.076346  0  3.720956  0  0  -0.101793  0  3.966868  0  0  -0.100779  0  3.986477  0  0  -0.087871  -0.102179  0  3.953084  0
C  C50  1  0.31157535  0.79774395  0.37532684  1  0  -0.081712  0  3.781922  0  0  -0.09142  0  4.031332  0  0  -0.095381  0  4.053246  0  0  -0.093577  -0.088789  0  4.016264  0
C  C51  1  0.68841686  0.20224551  0.62467548  1  0  -0.081627  0  3.781774  0  0  -0.09132  0  4.031168  0  0  -0.095278  0  4.053066  0  0  -0.093536  -0.088688  0  4.016099  0
C  C52  1  0.29354100  0.88511011  0.49449148  1  0  -0.048361  0  3.752577  0  0  -0.066697  0  4.001129  0  0  -0.066142  0  4.022003  0  0  -0.088011  -0.066533  0  3.986446  0
C  C53  1  0.70645927  0.11488400  0.50550586  1  0  -0.048384  0  3.752589  0  0  -0.066749  0  4.00121  0  0  -0.066193  0  4.022096  0  0  -0.088049  -0.066586  0  3.986531  0
C  C54  1  0.22423986  0.99884641  0.51494745  1  0  -0.079253  0  3.778014  0  0  -0.089508  0  4.028845  0  0  -0.093271  0  4.050181  0  0  -0.091933  -0.087101  0  4.014178  0
C  C55  1  0.77576985  0.00115570  0.48504860  1  0  -0.07903  0  3.777935  0  0  -0.089417  0  4.028755  0  0  -0.093203  0  4.050119  0  0  -0.09187  -0.087008  0  4.014086  0
C  C56  1  0.17203962  0.02502473  0.41699864  1  0  -0.074986  0  3.739139  0  0  -0.100725  0  3.988407  0  0  -0.100098  0  4.008551  0  0  -0.086388  -0.100691  0  3.974402  0
C  C57  1  0.82797741  0.97497730  0.58299913  1  0  -0.075153  0  3.738977  0  0  -0.100952  0  3.988338  0  0  -0.100341  0  4.00848  0  0  -0.086391  -0.10092  0  3.97433  0
C  C58  1  0.12614029  0.96104804  0.19299379  1  0  0.579293  0  3.868574  0  0  0.52836  0  4.171606  0  0  0.561697  0  4.166232  0  0  0.191662  0.506082  0  4.174454  0
C  C59  1  0.87385791  0.03895290  0.80700507  1  0  0.579308  0  3.868666  0  0  0.52837  0  4.171722  0  0  0.561705  0  4.16635  0  0  0.191617  0.506092  0  4.17456  0
C  C60  1  0.10018039  0.63440646  0.69495509  1  0  0.118307  0  3.741936  0  0  0.09065  0  4.004135  0  0  0.097575  0  4.019515  0  0  0.04278  0.086073  0  3.993802  0
C  C61  1  0.89982077  0.36558980  0.30504802  1  0  0.118345  0  3.742107  0  0  0.090682  0  4.004296  0  0  0.097607  0  4.019678  0  0  0.042823  0.0861  0  3.993949  0
C  C62  1  0.16896677  0.53497957  0.61251379  1  0  -0.166117  0  3.71702  0  0  -0.18038  0  3.957083  0  0  -0.188805  0  3.979661  0  0  -0.080344  -0.175411  0  3.941901  0
C  C63  1  0.83103128  0.46501215  0.38748854  1  0  -0.166146  0  3.71691  0  0  -0.180384  0  3.956992  0  0  -0.188813  0  3.979574  0  0  -0.080318  -0.175414  0  3.94182  0
C  C64  1  0.34816869  0.58441516  0.60385945  1  0  0.132378  0  3.805811  0  0  0.14839  0  4.032959  0  0  0.153465  0  4.055659  0  0  0.007241  0.145456  0  4.017601  0
C  C65  1  0.65182555  0.41557328  0.39613752  1  0  0.132437  0  3.805736  0  0  0.148375  0  4.033023  0  0  0.153454  0  4.055718  0  0  0.007228  0.145443  0  4.017672  0
C  C66  1  0.44991363  0.73380509  0.68496496  1  0  -0.156658  0  3.686371  0  0  -0.172866  0  3.93104  0  0  -0.180186  0  3.952021  0  0  -0.080189  -0.168228  0  3.917042  0
C  C67  1  0.55008854  0.26619358  0.31503232  1  0  -0.156632  0  3.686351  0  0  -0.172836  0  3.931026  0  0  -0.180141  0  3.95201  0  0  -0.080187  -0.168198  0  3.917037  0
C  C68  1  0.37037135  0.82513243  0.76496191  1  0  0.123767  0  3.714973  0  0  0.095074  0  3.980404  0  0  0.102043  0  3.994284  0  0  0.044652  0.090609  0  3.971098  0
C  C69  1  0.62963262  0.17486173  0.23503299  1  0  0.123576  0  3.71481  0  0  0.094882  0  3.980235  0  0  0.101865  0  3.994106  0  0  0.044636  0.09041  0  3.970926  0
C  C70  1  0.41736889  0.48206789  0.51272392  1  0  -0.09831  0  3.714582  0  0  -0.117046  0  3.960449  0  0  -0.118806  0  3.978724  0  0  -0.080052  -0.11634  0  3.948783  0
C  C71  1  0.58262795  0.51792387  0.48727674  1  0  -0.098077  0  3.714354  0  0  -0.116852  0  3.960263  0  0  -0.118614  0  3.97854  0  0  -0.080008  -0.116148  0  3.948602  0
N  N72  1  0.19766246  0.77804255  0.76959774  1  0  -0.307874  0  3.178295  0  0  -0.263048  0  3.458408  0  0  -0.274378  0  3.47064  0  0  -0.329178  -0.255487  0  3.450091  0
N  N73  1  0.80233970  0.22195611  0.23040037  1  0  -0.307819  0  3.178336  0  0  -0.26299  0  3.458453  0  0  -0.274315  0  3.470675  0  0  -0.329227  -0.255392  0  3.450053  0
O  O74  1  0.82961829  0.73753320  0.90174736  1  0  -0.576227  0  2.157168  0  0  -0.526499  0  2.426076  0  0  -0.553227  0  2.422965  0  0  -0.339752  -0.508069  0  2.427705  0
O  O75  1  0.17038450  0.26248471  0.09825745  1  0  -0.576082  0  2.157069  0  0  -0.526349  0  2.425956  0  0  -0.553072  0  2.422838  0  0  -0.339628  -0.507912  0  2.427521  0
O  O76  1  0.70609652  0.89626366  0.02426826  1  0  -0.569832  0  2.15302  0  0  -0.519898  0  2.41979  0  0  -0.546931  0  2.417564  0  0  -0.329774  -0.501085  0  2.420463  0
O  O77  1  0.29389346  0.10374405  0.97573537  1  0  -0.569825  0  2.152877  0  0  -0.519919  0  2.419623  0  0  -0.546951  0  2.417399  0  0  -0.329781  -0.501121  0  2.420383  0
O  O78  1  0.15519978  0.88825790  0.08407632  1  0  -0.565517  0  2.170799  0  0  -0.515623  0  2.44577  0  0  -0.542132  0  2.443018  0  0  -0.333358  -0.497382  0  2.44725  0
O  O79  1  0.84480035  0.11174768  0.91591917  1  0  -0.56543  0  2.170902  0  0  -0.515524  0  2.445876  0  0  -0.54203  0  2.443128  0  0  -0.333231  -0.497257  0  2.447242  0
O  O80  1  0.04004896  0.05100326  0.21129345  1  0  -0.572891  0  2.160657  0  0  -0.526453  0  2.426559  0  0  -0.552477  0  2.424113  0  0  -0.332404  -0.50845  0  2.427545  0
O  O81  1  0.95995546  0.94900087  0.78871410  1  0  -0.572916  0  2.160644  0  0  -0.526484  0  2.426529  0  0  -0.55251  0  2.424086  0  0  -0.332426  -0.508495  0  2.427585  0
