# generated using pymatgen
data_CdH13C19(NO2)2
_symmetry_space_group_name_H-M   'P 1'
_cell_length_a   7.40598324
_cell_length_b   15.79002759
_cell_length_c   16.24849479
_cell_angle_alpha   106.03988208
_cell_angle_beta   89.99983455
_cell_angle_gamma   90.00034493
_symmetry_Int_Tables_number   1
_chemical_formula_structural   CdH13C19(NO2)2
_chemical_formula_sum   'Cd4 H52 C76 N8 O16'
_cell_volume   1826.13797941
_cell_formula_units_Z   4
loop_
 _symmetry_equiv_pos_site_id
 _symmetry_equiv_pos_as_xyz
  1  'x, y, z'
loop_
 _atom_site_type_symbol
 _atom_site_label
 _atom_site_symmetry_multiplicity
 _atom_site_fract_x
 _atom_site_fract_y
 _atom_site_fract_z
 _atom_site_occupancy
 _atom_site_pbe_bader_charge
 _atom_site_pbe_bader_spin_density
 _atom_site_pbe_cm5_charge
 _atom_site_pbe_ddec_charge
 _atom_site_pbe_ddec_spin_density
 _atom_site_pbe_ddec_sum_bond_order
 _atom_site_pbe_magmom
Cd  Cd0  1  0.27416132  0.77949300  0.57497437  1  1.215671  0  0.768357  0.820759  0  2.172312  0
Cd  Cd1  1  0.77415904  0.22050386  0.92502972  1  1.215574  0  0.768338  0.820772  0  2.172295  0
Cd  Cd2  1  0.72584564  0.22050994  0.42503111  1  1.215719  0  0.768324  0.820739  0  2.172292  0
Cd  Cd3  1  0.22584522  0.77949515  0.07497100  1  1.215675  0  0.768324  0.82072  0  2.172434  0
H  H4  1  0.94400488  0.65541730  0.31175806  1  0.096163  0  0.103091  0.105015  0  1.004725  0
H  H5  1  0.44401697  0.34459229  0.18825052  1  0.096089  0  0.103118  0.10506  0  1.004727  0
H  H6  1  0.05599532  0.34457972  0.68824581  1  0.095986  0  0.103047  0.10501  0  1.004698  0
H  H7  1  0.55597919  0.65541198  0.81175408  1  0.09594  0  0.103148  0.105116  0  1.004659  0
H  H8  1  0.67105692  0.64977948  0.21753021  1  0.057808  0  0.096704  0.097447  0  1.034503  0
H  H9  1  0.17105362  0.35022679  0.28247167  1  0.057658  0  0.096679  0.097401  0  1.034458  0
H  H10  1  0.32894599  0.35021622  0.78247206  1  0.057794  0  0.0967  0.097442  0  1.034527  0
H  H11  1  0.82893983  0.64977550  0.71753363  1  0.057756  0  0.096703  0.09741  0  1.034553  0
H  H12  1  0.81913960  0.92322207  0.44327040  1  0.121866  0  0.107609  0.116482  0  1.023131  0
H  H13  1  0.31913553  0.07679052  0.05672993  1  0.12209  0  0.107682  0.116521  0  1.023174  0
H  H14  1  0.18087545  0.07677761  0.55672558  1  0.121875  0  0.107635  0.11645  0  1.023172  0
H  H15  1  0.68087008  0.92321175  0.94327844  1  0.121944  0  0.107652  0.116464  0  1.023275  0
H  H16  1  0.26195369  0.88432715  0.34471584  1  0.096318  0  0.110256  0.113479  0  0.992683  0
H  H17  1  0.76195176  0.11567278  0.15527989  1  0.096285  0  0.110221  0.113464  0  0.992677  0
H  H18  1  0.73805327  0.11567055  0.65527898  1  0.096375  0  0.110183  0.113479  0  0.992605  0
H  H19  1  0.23805115  0.88432097  0.84471509  1  0.09666  0  0.110211  0.113394  0  0.992755  0
H  H20  1  0.10112535  0.02944094  0.37083348  1  0.078198  0  0.113125  0.128906  0  0.999454  0
H  H21  1  0.60112800  0.97055726  0.12915953  1  0.078218  0  0.113118  0.128859  0  0.999504  0
H  H22  1  0.89887890  0.97055415  0.62915755  1  0.078124  0  0.113133  0.128907  0  0.999536  0
H  H23  1  0.39887221  0.02943849  0.87082983  1  0.078584  0  0.113119  0.128843  0  0.9995  0
H  H24  1  0.28058782  0.16659544  0.39760135  1  0.086913  0  0.113865  0.085984  0  1.000592  0
H  H25  1  0.78059559  0.83340717  0.10239509  1  0.086931  0  0.113883  0.085997  0  1.000607  0
H  H26  1  0.71941509  0.83340028  0.60239478  1  0.086809  0  0.113854  0.086  0  1.000582  0
H  H27  1  0.21941001  0.16659384  0.89759940  1  0.086973  0  0.113873  0.08596  0  1.0006  0
H  H28  1  0.76346820  0.02831602  0.36922494  1  0.073637  0  0.119476  0.098691  0  1.007697  0
H  H29  1  0.26347398  0.97169708  0.13077806  1  0.073157  0  0.119545  0.098712  0  1.007772  0
H  H30  1  0.23654146  0.97168692  0.63078177  1  0.073314  0  0.119514  0.098664  0  1.007696  0
H  H31  1  0.73653973  0.02830522  0.86922601  1  0.073131  0  0.119521  0.098711  0  1.007736  0
H  H32  1  0.55829772  0.69869815  0.43198761  1  0.095964  0  0.116255  0.085554  0  1.010332  0
H  H33  1  0.05828976  0.30131309  0.06801823  1  0.095783  0  0.116216  0.085473  0  1.010255  0
H  H34  1  0.44169573  0.30130086  0.56801372  1  0.095713  0  0.116252  0.085528  0  1.010258  0
H  H35  1  0.94172530  0.69869517  0.93197761  1  0.095763  0  0.116315  0.085668  0  1.010252  0
H  H36  1  0.80272380  0.58631056  0.39650364  1  0.076259  0  0.108999  0.118698  0  1.011315  0
H  H37  1  0.30272382  0.41369736  0.10349914  1  0.07666  0  0.109048  0.118805  0  1.011275  0
H  H38  1  0.19726830  0.41368711  0.60349918  1  0.077017  0  0.109009  0.118739  0  1.01124  0
H  H39  1  0.69728718  0.58630960  0.89649266  1  0.076111  0  0.109008  0.118696  0  1.011393  0
H  H40  1  0.66643144  0.51409379  0.62609939  1  0.092103  0  0.112024  0.122197  0  0.975768  0
H  H41  1  0.16644284  0.48589755  0.87389595  1  0.092668  0  0.112041  0.122182  0  0.975787  0
H  H42  1  0.33354176  0.48590456  0.37389992  1  0.092663  0  0.112063  0.122255  0  0.975742  0
H  H43  1  0.83354386  0.51410479  0.12609582  1  0.09289  0  0.112062  0.12225  0  0.975697  0
H  H44  1  0.42611967  0.63161348  0.65350563  1  0.107916  0  0.119142  0.098287  0  1.004156  0
H  H45  1  0.92613332  0.36837983  0.84649545  1  0.107774  0  0.119019  0.098186  0  1.004228  0
H  H46  1  0.57385353  0.36838750  0.34649685  1  0.107909  0  0.119031  0.098237  0  1.004312  0
H  H47  1  0.07385608  0.63161920  0.15349973  1  0.107924  0  0.119071  0.098304  0  1.004257  0
H  H48  1  0.90407592  0.43603150  0.42361695  1  0.049048  0  0.097612  0.114515  0  0.991329  0
H  H49  1  0.40409158  0.56397209  0.07638144  1  0.048986  0  0.097622  0.114506  0  0.991407  0
H  H50  1  0.09590133  0.56396617  0.57638771  1  0.049013  0  0.097622  0.114448  0  0.991326  0
H  H51  1  0.59590998  0.43603817  0.92360941  1  0.048557  0  0.097647  0.114466  0  0.991467  0
H  H52  1  0.89519758  0.42926995  0.53009596  1  0.094258  0  0.096698  0.112088  0  1.005474  0
H  H53  1  0.39520812  0.57073319  0.96990044  1  0.09421  0  0.096711  0.112085  0  1.00546  0
H  H54  1  0.10477697  0.57072772  0.46990808  1  0.094227  0  0.096619  0.111812  0  1.005599  0
H  H55  1  0.60478533  0.42927312  0.03008626  1  0.0943  0  0.096605  0.111841  0  1.005631  0
C  C56  1  0.04800548  0.79209918  0.44502963  1  1.562556  0  0.183935  0.547329  0  4.243983  0
C  C57  1  0.54800269  0.20790081  0.05497624  1  1.562717  0  0.183826  0.547192  0  4.244015  0
C  C58  1  0.95200282  0.20790246  0.55497180  1  1.562659  0  0.183944  0.547363  0  4.243777  0
C  C59  1  0.45199616  0.79209752  0.94502798  1  1.562645  0  0.183885  0.547162  0  4.243813  0
C  C60  1  0.89679235  0.78979240  0.38299341  1  -0.014226  0  -0.017717  -0.017587  0  3.985077  0
C  C61  1  0.39680314  0.21021113  0.11701604  1  -0.014085  0  -0.017747  -0.017453  0  3.984947  0
C  C62  1  0.10321460  0.21020529  0.61700756  1  -0.014351  0  -0.017662  -0.017565  0  3.985121  0
C  C63  1  0.60319841  0.78978918  0.88298810  1  -0.01405  0  -0.017739  -0.017323  0  3.984631  0
C  C64  1  0.85616409  0.71238855  0.31910940  1  -0.0891  0  -0.087859  -0.107712  0  4.010529  0
C  C65  1  0.35617413  0.28762017  0.18089536  1  -0.089218  0  -0.08788  -0.107815  0  4.010409  0
C  C66  1  0.14383746  0.28760915  0.68089034  1  -0.088984  0  -0.087831  -0.107745  0  4.010538  0
C  C67  1  0.64382337  0.71238147  0.81910668  1  -0.089227  0  -0.087895  -0.107891  0  4.010341  0
C  C68  1  0.70576152  0.70943455  0.26723368  1  -0.038556  0  -0.092698  -0.11202  0  4.013383  0
C  C69  1  0.20576452  0.29056982  0.23277256  1  -0.038834  0  -0.092633  -0.111902  0  4.013184  0
C  C70  1  0.29424679  0.29056116  0.73276859  1  -0.038291  0  -0.092727  -0.111976  0  4.013195  0
C  C71  1  0.79423569  0.70943183  0.76722764  1  -0.038521  0  -0.09265  -0.111884  0  4.013414  0
C  C72  1  0.59645576  0.78380003  0.27561929  1  -0.00128  0  -0.008282  -0.051655  0  3.916302  0
C  C73  1  0.09645649  0.21620472  0.22438228  1  -0.000934  0  -0.008311  -0.051767  0  3.916459  0
C  C74  1  0.40354579  0.21619633  0.72438255  1  -0.001492  0  -0.008291  -0.051774  0  3.916529  0
C  C75  1  0.90353966  0.78379823  0.77562136  1  -0.001118  0  -0.008321  -0.051853  0  3.916592  0
C  C76  1  0.63703408  0.86268660  0.33920540  1  -0.021458  0  -0.000443  0.049435  0  3.969876  0
C  C77  1  0.13702878  0.13732089  0.16079748  1  -0.021349  0  -0.000432  0.049562  0  3.969936  0
C  C78  1  0.36297558  0.13731241  0.66079347  1  -0.021355  0  -0.000468  0.049298  0  3.970044  0
C  C79  1  0.86296872  0.86268272  0.83920633  1  -0.02131  0  -0.000418  0.04956  0  3.969856  0
C  C80  1  0.78727325  0.86399498  0.39223082  1  -0.045816  0  -0.080342  -0.149907  0  3.92967  0
C  C81  1  0.28727098  0.13601225  0.10777240  1  -0.04578  0  -0.080311  -0.149914  0  3.929558  0
C  C82  1  0.21273775  0.13600338  0.60776787  1  -0.045706  0  -0.080272  -0.149662  0  3.929561  0
C  C83  1  0.71272923  0.86399136  0.89223387  1  -0.045773  0  -0.080411  -0.15005  0  3.929608  0
C  C84  1  0.45166219  0.77729999  0.20943546  1  1.55122  0  0.187553  0.553682  0  4.252638  0
C  C85  1  0.95166350  0.22270239  0.29056500  1  1.551173  0  0.187489  0.5537  0  4.252661  0
C  C86  1  0.54834071  0.22269440  0.79056400  1  1.551318  0  0.187519  0.55372  0  4.252502  0
C  C87  1  0.04833671  0.77729726  0.70943774  1  1.551265  0  0.187612  0.553875  0  4.252382  0
C  C88  1  0.52772970  0.94384159  0.35315531  1  -0.001767  0  0.002147  0.038792  0  3.98038  0
C  C89  1  0.02772613  0.05616432  0.14684297  1  -0.002076  0  0.002051  0.038517  0  3.980531  0
C  C90  1  0.47228131  0.05615743  0.64684233  1  -0.001449  0  0.001994  0.038643  0  3.980408  0
C  C91  1  0.97228083  0.94383600  0.85315933  1  -0.001706  0  0.002106  0.038728  0  3.980378  0
C  C92  1  0.33824102  0.94521746  0.35416215  1  -0.061525  0  -0.056744  -0.05107  0  3.896248  0
C  C93  1  0.83824241  0.05478465  0.14583407  1  -0.061659  0  -0.056692  -0.05094  0  3.895978  0
C  C94  1  0.66176998  0.05477828  0.64583213  1  -0.061465  0  -0.056597  -0.050959  0  3.896207  0
C  C95  1  0.16176590  0.94521436  0.85416603  1  -0.061957  0  -0.056618  -0.050937  0  3.896134  0
C  C96  1  0.24773247  0.02530159  0.36935111  1  0.107019  0  -0.076738  -0.108435  0  3.951517  0
C  C97  1  0.74773246  0.97470159  0.13064799  1  0.107026  0  -0.076695  -0.108354  0  3.951316  0
C  C98  1  0.75227854  0.97469808  0.63064733  1  0.106519  0  -0.076767  -0.108555  0  3.951742  0
C  C99  1  0.25227450  0.02529546  0.86934666  1  0.106385  0  -0.076738  -0.108316  0  3.95148  0
C  C100  1  0.34771155  0.10281744  0.38487796  1  0.401756  0  0.045659  0.090437  0  3.954654  0
C  C101  1  0.84771602  0.89718599  0.11512353  1  0.401976  0  0.04555  0.090352  0  3.954474  0
C  C102  1  0.65229676  0.89717959  0.61512099  1  0.402012  0  0.045668  0.090477  0  3.95434  0
C  C103  1  0.15229093  0.10281368  0.88487675  1  0.40186  0  0.045635  0.090455  0  3.954402  0
C  C104  1  0.61652347  0.02485256  0.36925464  1  0.555923  0  0.048473  0.049609  0  3.903538  0
C  C105  1  0.11652795  0.97515357  0.13074543  1  0.55758  0  0.048388  0.049671  0  3.903723  0
C  C106  1  0.38348753  0.97514644  0.63074669  1  0.55614  0  0.048492  0.049834  0  3.903526  0
C  C107  1  0.88348170  0.02484673  0.86926056  1  0.55723  0  0.048357  0.049544  0  3.903787  0
C  C108  1  0.58742647  0.65684451  0.47377707  1  0.432136  0  0.044494  0.086995  0  3.971881  0
C  C109  1  0.08743012  0.34316153  0.02622671  1  0.432207  0  0.044556  0.087159  0  3.971522  0
C  C110  1  0.41256023  0.34315778  0.52622638  1  0.4324  0  0.044574  0.08718  0  3.971561  0
C  C111  1  0.91257819  0.65684607  0.97376711  1  0.43217  0  0.044491  0.08688  0  3.971673  0
C  C112  1  0.72245073  0.59370399  0.45414132  1  0.070623  0  -0.080145  -0.174395  0  3.934766  0
C  C113  1  0.22245643  0.40630306  0.04586194  1  0.0701  0  -0.080228  -0.174634  0  3.934768  0
C  C114  1  0.27753462  0.40629831  0.54585968  1  0.068819  0  -0.080197  -0.17453  0  3.934853  0
C  C115  1  0.77754378  0.59370717  0.95413444  1  0.070138  0  -0.080112  -0.174339  0  3.934787  0
C  C116  1  0.75652806  0.54092630  0.50905057  1  -0.02854  0  0.019265  0.18007  0  3.939063  0
C  C117  1  0.25653701  0.45907582  0.99094820  1  -0.028668  0  0.019317  0.180125  0  3.938991  0
C  C118  1  0.24344514  0.45906942  0.49094925  1  -0.028754  0  0.019299  0.180026  0  3.938719  0
C  C119  1  0.74345644  0.54093311  0.00904598  1  -0.028882  0  0.019194  0.179809  0  3.939124  0
C  C120  1  0.64802240  0.55436029  0.58191702  1  -0.056769  0  -0.082214  -0.185608  0  3.951292  0
C  C121  1  0.14803705  0.44563429  0.91808107  1  -0.057071  0  -0.082272  -0.185571  0  3.951183  0
C  C122  1  0.35195349  0.44563675  0.41808008  1  -0.057136  0  -0.082265  -0.185692  0  3.950899  0
C  C123  1  0.85196451  0.55436869  0.08191457  1  -0.05747  0  -0.082329  -0.18563  0  3.951334  0
C  C124  1  0.51451721  0.61889236  0.59768266  1  0.460303  0  0.047096  0.091715  0  3.962556  0
C  C125  1  0.01452976  0.38110251  0.90231877  1  0.460433  0  0.047333  0.091905  0  3.962573  0
C  C126  1  0.48546004  0.38110466  0.40231813  1  0.460604  0  0.047183  0.091788  0  3.962606  0
C  C127  1  0.98546775  0.61889783  0.09767615  1  0.460973  0  0.047287  0.091755  0  3.963104  0
C  C128  1  0.90816320  0.47570445  0.49099997  1  -0.009043  0  -0.158135  -0.209261  0  3.909128  0
C  C129  1  0.40817067  0.52429782  0.00899929  1  -0.008764  0  -0.158191  -0.209244  0  3.909181  0
C  C130  1  0.09181135  0.52429322  0.50900408  1  -0.024233  0  -0.158044  -0.208632  0  3.908657  0
C  C131  1  0.59182278  0.47570848  0.99099049  1  -0.023839  0  -0.158018  -0.20868  0  3.909096  0
N  N132  1  0.52940923  0.10238978  0.38550811  1  -1.216036  0  -0.337847  -0.251056  0  3.562606  0
N  N133  1  0.02942225  0.89761546  0.11449183  1  -1.217114  0  -0.337744  -0.25105  0  3.562587  0
N  N134  1  0.47059233  0.89760922  0.61449383  1  -1.216025  0  -0.337849  -0.251137  0  3.562528  0
N  N135  1  0.97058741  0.10238355  0.88550765  1  -1.216782  0  -0.337819  -0.251089  0  3.562557  0
N  N136  1  0.48538586  0.66970546  0.54487834  1  -1.234436  0  -0.338132  -0.24572  0  3.54853  0
N  N137  1  0.98538347  0.33029723  0.95512644  1  -1.234432  0  -0.338203  -0.245813  0  3.548517  0
N  N138  1  0.51460625  0.33029683  0.45512511  1  -1.234505  0  -0.338112  -0.24578  0  3.548415  0
N  N139  1  0.01461809  0.66970510  0.04486964  1  -1.234841  0  -0.338194  -0.245677  0  3.548881  0
O  O140  1  0.11066513  0.71778253  0.45053009  1  -1.161907  0  -0.348452  -0.573221  0  2.186794  0
O  O141  1  0.61067549  0.28221958  0.04948243  1  -1.162056  0  -0.34846  -0.573208  0  2.18677  0
O  O142  1  0.88933103  0.28221777  0.54947898  1  -1.161857  0  -0.348531  -0.573297  0  2.186835  0
O  O143  1  0.38932876  0.71777942  0.95052012  1  -1.161936  0  -0.348511  -0.573264  0  2.186825  0
O  O144  1  0.10354604  0.86572518  0.49141973  1  -1.167885  0  -0.329733  -0.5521  0  2.164119  0
O  O145  1  0.60354124  0.13427299  0.00858496  1  -1.168078  0  -0.329637  -0.552049  0  2.164107  0
O  O146  1  0.89647036  0.13427383  0.50857976  1  -1.168075  0  -0.329703  -0.552108  0  2.164008  0
O  O147  1  0.39647517  0.86572996  0.99141990  1  -1.168084  0  -0.329625  -0.551986  0  2.163998  0
O  O148  1  0.35720575  0.70775928  0.18550274  1  -1.174728  0  -0.341137  -0.573553  0  2.139727  0
O  O149  1  0.85720511  0.29224349  0.31450595  1  -1.174718  0  -0.341178  -0.573628  0  2.139742  0
O  O150  1  0.64278905  0.29223771  0.81450851  1  -1.174524  0  -0.341069  -0.573488  0  2.139617  0
O  O151  1  0.14279779  0.70775878  0.68550365  1  -1.174821  0  -0.341143  -0.573551  0  2.139647  0
O  O152  1  0.43742693  0.84210817  0.17673157  1  -1.152595  0  -0.325227  -0.542949  0  2.237837  0
O  O153  1  0.93742718  0.15789156  0.32326326  1  -1.152529  0  -0.325147  -0.542915  0  2.237884  0
O  O154  1  0.56258272  0.15788097  0.82326215  1  -1.152788  0  -0.325245  -0.543029  0  2.237853  0
O  O155  1  0.06256627  0.84210547  0.67673692  1  -1.15249  0  -0.325291  -0.543121  0  2.237834  0
