# generated using pymatgen
data_Zn4H24C21O13
_symmetry_space_group_name_H-M   'P 1'
_cell_length_a   15.93582184
_cell_length_b   16.30539451
_cell_length_c   16.29991377
_cell_angle_alpha   90.61114554
_cell_angle_beta   118.83382337
_cell_angle_gamma   116.56207052
_symmetry_Int_Tables_number   1
_chemical_formula_structural   Zn4H24C21O13
_chemical_formula_sum   'Zn8 H48 C42 O26'
_cell_volume   3177.20910812
_cell_formula_units_Z   2
loop_
 _symmetry_equiv_pos_site_id
 _symmetry_equiv_pos_as_xyz
  1  'x, y, z'
loop_
 _atom_site_type_symbol
 _atom_site_label
 _atom_site_symmetry_multiplicity
 _atom_site_fract_x
 _atom_site_fract_y
 _atom_site_fract_z
 _atom_site_occupancy
 _atom_site_pbe_bader_charge
 _atom_site_pbe_bader_spin_density
 _atom_site_pbe_cm5_charge
 _atom_site_pbe_ddec_charge
 _atom_site_pbe_ddec_spin_density
 _atom_site_pbe_ddec_sum_bond_order
 _atom_site_pbe_magmom
Zn  Zn0  1  0.04373440  0.06492119  0.11250920  1  1.312176  0  0.668918  0.958293  0  2.358581  0
Zn  Zn1  1  0.02968594  0.00407907  0.91595566  1  1.314458  0  0.667873  0.954691  0  2.411754  0
Zn  Zn2  1  0.85257225  0.05163510  0.90234758  1  1.317534  0  0.671862  0.965419  0  2.384443  0
Zn  Zn3  1  0.84626527  0.86026293  0.95524330  1  1.309388  0  0.663629  0.957366  0  2.37784  0
Zn  Zn4  1  0.85363678  0.49163372  0.32910518  1  1.305426  0  0.662791  0.954402  0  2.389456  0
Zn  Zn5  1  0.84142305  0.43079681  0.51045501  1  1.314501  0  0.673888  0.966651  0  2.383353  0
Zn  Zn6  1  0.03229979  0.63985732  0.54207048  1  1.313864  0  0.670375  0.96047  0  2.367588  0
Zn  Zn7  1  0.03727498  0.45119349  0.48817920  1  1.314208  0  0.671255  0.963804  0  2.381785  0
H  H8  1  0.36492493  0.09058194  0.10814700  1  0.061543  0  0.105275  0.089608  0  0.952653  0
H  H9  1  0.37291645  0.10629613  0.29913743  1  0.058215  0  0.093111  0.095453  0  0.987665  0
H  H10  1  0.37800021  0.01834478  0.24045122  1  0.019451  0  0.087965  0.080492  0  0.990079  0
H  H11  1  0.56889829  0.20073096  0.38704152  1  0.041735  0  0.093253  0.098506  0  0.990976  0
H  H12  1  0.57674961  0.12207645  0.31941816  1  0.012922  0  0.086764  0.078573  0  0.993594  0
H  H13  1  0.56408420  0.20473837  0.19842579  1  0.045601  0  0.104099  0.089898  0  0.953998  0
H  H14  1  0.43526774  0.26387427  0.13531047  1  0.059391  0  0.099625  0.103395  0  0.972222  0
H  H15  1  0.43644788  0.27098485  0.24561443  1  0.054968  0  0.099469  0.103667  0  0.96484  0
H  H16  1  0.98198441  0.34071524  0.04675930  1  0.060883  0  0.104059  0.088011  0  0.954048  0
H  H17  1  0.18044253  0.35170424  0.22575621  1  0.055128  0  0.093414  0.097426  0  0.995894  0
H  H18  1  0.17761007  0.43363764  0.15564061  1  0.022275  0  0.087671  0.078758  0  0.98981  0
H  H19  1  0.16200303  0.42926617  0.33238936  1  0.046842  0  0.094021  0.094751  0  0.988641  0
H  H20  1  0.19112213  0.52638858  0.28188346  1  0.018771  0  0.088403  0.080021  0  0.990786  0
H  H21  1  0.99100775  0.46006803  0.16202779  1  0.032887  0  0.103498  0.089527  0  0.953079  0
H  H22  1  0.85900594  0.28422639  0.10649390  1  0.028705  0  0.100011  0.102794  0  0.974039  0
H  H23  1  0.95892427  0.27222329  0.21274189  1  0.04482  0  0.099402  0.104123  0  0.970274  0
H  H24  1  0.79400928  0.85441966  0.20447587  1  0.048264  0  0.108254  0.094286  0  0.937689  0
H  H25  1  0.04546549  0.95608048  0.35941698  1  0.039197  0  0.092792  0.092574  0  0.979136  0
H  H26  1  0.95341289  0.99265012  0.35067459  1  0.031894  0  0.090287  0.085495  0  0.989926  0
H  H27  1  0.00332025  0.87251689  0.46594831  1  0.053554  0  0.092416  0.097034  0  0.997509  0
H  H28  1  0.87677236  0.87091175  0.41782169  1  -0.001854  0  0.085063  0.074291  0  0.997599  0
H  H29  1  0.77345218  0.72418218  0.30263463  1  0.042247  0  0.106462  0.08957  0  0.945956  0
H  H30  1  0.80281041  0.71100258  0.17342653  1  0.062797  0  0.100044  0.107312  0  0.97863  0
H  H31  1  0.95052810  0.77703069  0.25484932  1  0.030649  0  0.096602  0.096525  0  0.964203  0
H  H32  1  0.80212500  0.03567274  0.60836760  1  0.000657  0  0.106559  0.088569  0  0.945224  0
H  H33  1  0.04457919  0.10625109  0.68120475  1  0.052096  0  0.093238  0.095924  0  0.987509  0
H  H34  1  0.92302407  0.01035506  0.57938644  1  0.03873  0  0.088333  0.081228  0  0.994043  0
H  H35  1  0.04867035  0.21310177  0.58611759  1  0.055435  0  0.092566  0.094793  0  0.988042  0
H  H36  1  0.93159750  0.11829347  0.48052288  1  0.008882  0  0.087973  0.081131  0  0.992304  0
H  H37  1  0.80237762  0.14298038  0.49887671  1  0.036606  0  0.105239  0.088116  0  0.952232  0
H  H38  1  0.83980519  0.19561168  0.66012908  1  0.050298  0  0.099962  0.107683  0  0.978721  0
H  H39  1  0.98606870  0.24573481  0.71518772  1  0.037708  0  0.096705  0.097739  0  0.962103  0
H  H40  1  0.97797917  0.67871973  0.93482594  1  0.052715  0  0.104108  0.0901  0  0.950723  0
H  H41  1  0.14366790  0.83352157  0.89698375  1  0.068792  0  0.094257  0.096567  0  0.987305  0
H  H42  1  0.17864232  0.79187698  0.00199133  1  0.015542  0  0.088585  0.080216  0  0.989043  0
H  H43  1  0.16627768  0.71937724  0.83468084  1  0.052655  0  0.092907  0.09597  0  0.996619  0
H  H44  1  0.15082743  0.65173830  0.91599208  1  0.014131  0  0.087328  0.077734  0  0.990883  0
H  H45  1  0.95848154  0.55344897  0.80610739  1  0.060958  0  0.10434  0.087936  0  0.95655  0
H  H46  1  0.84166600  0.62198069  0.75512615  1  0.018899  0  0.10046  0.102753  0  0.973123  0
H  H47  1  0.93856522  0.72238552  0.74137173  1  0.037923  0  0.09913  0.103386  0  0.971951  0
H  H48  1  0.55962419  0.76504225  0.65474759  1  0.036313  0  0.106974  0.09175  0  0.945467  0
H  H49  1  0.51867998  0.92618599  0.68280514  1  0.041494  0  0.09308  0.096336  0  0.984586  0
H  H50  1  0.54809063  0.89958535  0.59810824  1  0.023787  0  0.087963  0.081292  0  0.989577  0
H  H51  1  0.32711772  0.82530940  0.56517271  1  0.054992  0  0.092532  0.096691  0  0.995161  0
H  H52  1  0.35299881  0.78331881  0.48453081  1  -0.001611  0  0.086743  0.077805  0  0.99103  0
H  H53  1  0.35358134  0.65394410  0.54919807  1  0.050431  0  0.104301  0.086771  0  0.957653  0
H  H54  1  0.45244900  0.67480283  0.72419709  1  0.0473  0  0.100698  0.106624  0  0.973848  0
H  H55  1  0.43358037  0.77093161  0.74645687  1  0.022987  0  0.098294  0.100233  0  0.965153  0
C  C56  1  0.23912474  0.09927253  0.11121612  1  1.569788  0  0.229995  0.631826  0  4.105225  0
C  C57  1  0.35937693  0.12421644  0.16281220  1  -0.00486  0  -0.08639  -0.106785  0  3.87774  0
C  C58  1  0.40519339  0.09465865  0.25674034  1  -0.051841  0  -0.163168  -0.160963  0  3.891267  0
C  C59  1  0.53414558  0.16148900  0.31272044  1  -0.000297  0  -0.162299  -0.160471  0  3.872147  0
C  C60  1  0.55453906  0.23273540  0.25306894  1  0.013855  0  -0.08484  -0.106673  0  3.859189  0
C  C61  1  0.44413369  0.23249221  0.19610740  1  -0.038449  0  -0.149715  -0.173489  0  3.863657  0
C  C62  1  0.65756710  0.33147224  0.31169623  1  1.548492  0  0.228221  0.630082  0  4.100985  0
C  C63  1  0.98469221  0.21562119  0.07448796  1  1.566861  0  0.231211  0.631362  0  4.106756  0
C  C64  1  0.01203323  0.31556768  0.11148711  1  -0.015158  0  -0.083226  -0.102671  0  3.845596  0
C  C65  1  0.13627088  0.38906881  0.18980477  1  -0.033635  0  -0.164166  -0.160585  0  3.872156  0
C  C66  1  0.13553500  0.44891783  0.26371872  1  -0.026749  0  -0.163267  -0.158515  0  3.886188  0
C  C67  1  0.01234874  0.42051667  0.21530073  1  0.046837  0  -0.08575  -0.108095  0  3.873166  0
C  C68  1  0.94865297  0.31401472  0.15978479  1  -0.01805  0  -0.151959  -0.175693  0  3.869403  0
C  C69  1  0.98196151  0.43729835  0.28602850  1  1.55086  0  0.228469  0.632443  0  4.107227  0
C  C70  1  0.90610159  0.90430411  0.15857813  1  1.567326  0  0.230115  0.626852  0  4.114513  0
C  C71  1  0.87839728  0.86684483  0.23223407  1  0.007649  0  -0.08509  -0.107126  0  3.883623  0
C  C72  1  0.95921307  0.92948240  0.33886866  1  -0.035301  0  -0.164742  -0.161251  0  3.913175  0
C  C73  1  0.92886818  0.86081725  0.39768847  1  -0.014481  0  -0.164746  -0.160921  0  3.879035  0
C  C74  1  0.86282568  0.75811538  0.32943450  1  0.014698  0  -0.082562  -0.102732  0  3.831726  0
C  C75  1  0.87216845  0.77057129  0.23970121  1  -0.026253  0  -0.154647  -0.176796  0  3.879895  0
C  C76  1  0.89575586  0.68739143  0.37262695  1  1.566914  0  0.232114  0.62907  0  4.109871  0
C  C77  1  0.91988067  0.07297215  0.75791492  1  1.533936  0  0.229406  0.623183  0  4.123341  0
C  C78  1  0.89159529  0.09018436  0.65927111  1  0.054985  0  -0.082606  -0.101907  0  3.867921  0
C  C79  1  0.96000613  0.08414837  0.61991107  1  -0.028686  0  -0.164944  -0.161812  0  3.882436  0
C  C80  1  0.96294954  0.15338778  0.55532451  1  -0.028765  0  -0.163594  -0.159709  0  3.88806  0
C  C81  1  0.89138060  0.19225853  0.55634304  1  0.026728  0  -0.084826  -0.107489  0  3.877953  0
C  C82  1  0.90239951  0.18835967  0.65518990  1  -0.016014  0  -0.15501  -0.177041  0  3.887982  0
C  C83  1  0.91749448  0.28988802  0.54067276  1  1.543114  0  0.229591  0.627471  0  4.115456  0
C  C84  1  0.97000363  0.80281621  0.90647472  1  1.54847  0  0.228119  0.629469  0  4.112974  0
C  C85  1  0.99823223  0.72847291  0.89328369  1  0.007143  0  -0.086652  -0.106018  0  3.872056  0
C  C86  1  0.11967499  0.76969710  0.92239949  1  -0.041066  0  -0.162358  -0.157839  0  3.897332  0
C  C87  1  0.11688676  0.68985028  0.86726307  1  -0.020851  0  -0.16206  -0.157747  0  3.872817  0
C  C88  1  0.99202772  0.61958031  0.78655835  1  0.003818  0  -0.085062  -0.105264  0  3.835274  0
C  C89  1  0.93072447  0.67162580  0.78499406  1  0.003941  0  -0.151104  -0.17537  0  3.859585  0
C  C90  1  0.96733736  0.58972807  0.68538517  1  1.552791  0  0.231318  0.633104  0  4.101294  0
C  C91  1  0.65430809  0.86131291  0.79383344  1  1.566813  0  0.229764  0.628811  0  4.103445  0
C  C92  1  0.54541956  0.80700217  0.69477677  1  0.016563  0  -0.08512  -0.106482  0  3.874563  0
C  C93  1  0.50324164  0.86704602  0.63402635  1  -0.018902  0  -0.164011  -0.159504  0  3.893958  0
C  C94  1  0.37605657  0.79699362  0.56069066  1  -0.007291  0  -0.164627  -0.162101  0  3.877782  0
C  C95  1  0.34863580  0.70332700  0.59078658  1  -0.002026  0  -0.086485  -0.107577  0  3.85977  0
C  C96  1  0.44482406  0.73449862  0.69858202  1  -0.007361  0  -0.151162  -0.174751  0  3.869292  0
C  C97  1  0.23385073  0.64691153  0.57512001  1  1.569616  0  0.231195  0.634579  0  4.103601  0
O  O98  1  0.94335217  0.99596024  0.97257406  1  -1.235464  0  -0.575797  -1.033305  0  2.554786  0
O  O99  1  0.18909947  0.08499585  0.01867422  1  -1.206904  0  -0.329834  -0.570899  0  2.324863  0
O  O100  1  0.19755613  0.09539780  0.16223122  1  -1.170282  0  -0.314288  -0.545496  0  2.304257  0
O  O101  1  0.68547930  0.36875021  0.39672088  1  -1.188772  0  -0.328116  -0.564887  0  2.299276  0
O  O102  1  0.70937828  0.37069095  0.26992710  1  -1.169963  0  -0.322165  -0.556189  0  2.302014  0
O  O103  1  0.89869566  0.16833580  0.98757103  1  -1.182491  0  -0.325326  -0.560882  0  2.315494  0
O  O104  1  0.04604204  0.18594645  0.13229083  1  -1.18328  0  -0.31273  -0.549649  0  2.330372  0
O  O105  1  0.01202635  0.40627886  0.36048832  1  -1.187447  0  -0.320878  -0.563221  0  2.322994  0
O  O106  1  0.92701517  0.48011039  0.26463558  1  -1.166651  0  -0.323921  -0.557169  0  2.294721  0
O  O107  1  0.83889372  0.84803341  0.07145590  1  -1.178571  0  -0.32306  -0.557645  0  2.323111  0
O  O108  1  0.99187586  0.98722007  0.18815501  1  -1.177471  0  -0.311581  -0.544275  0  2.321257  0
O  O109  1  0.97437235  0.71444493  0.46227876  1  -1.186526  0  -0.314  -0.548254  0  2.325034  0
O  O110  1  0.83960889  0.60441489  0.31264080  1  -1.176096  0  -0.322702  -0.558086  0  2.331048  0
O  O111  1  0.86857896  0.08602309  0.79237718  1  -1.181961  0  -0.322719  -0.56327  0  2.329888  0
O  O112  1  0.99069839  0.04611892  0.79797908  1  -1.164072  0  -0.312351  -0.538132  0  2.331422  0
O  O113  1  0.00423155  0.33956972  0.53778977  1  -1.172493  0  -0.312705  -0.542268  0  2.32014  0
O  O114  1  0.84894520  0.31451291  0.53246260  1  -1.182015  0  -0.322422  -0.564606  0  2.33313  0
O  O115  1  0.90868061  0.78426841  0.94093300  1  -1.163296  0  -0.321573  -0.5558  0  2.295377  0
O  O116  1  0.00798282  0.87715195  0.88011157  1  -1.187025  0  -0.31913  -0.559074  0  2.340398  0
O  O117  1  0.02897484  0.65065924  0.66095596  1  -1.180404  0  -0.314088  -0.551129  0  2.331198  0
O  O118  1  0.88313656  0.50578713  0.63169365  1  -1.179853  0  -0.323644  -0.56016  0  2.31218  0
O  O119  1  0.69914635  0.81268915  0.83406094  1  -1.17882  0  -0.323654  -0.559545  0  2.302198  0
O  O120  1  0.69337798  0.94961406  0.82922750  1  -1.189221  0  -0.321074  -0.556241  0  2.319092  0
O  O121  1  0.18697032  0.69253304  0.57676776  1  -1.178768  0  -0.315246  -0.549915  0  2.320438  0
O  O122  1  0.19398489  0.55692225  0.56264781  1  -1.195029  0  -0.328992  -0.570124  0  2.316848  0
O  O123  1  0.94269848  0.50415472  0.46922007  1  -1.232444  0  -0.576159  -1.03519  0  2.556519  0
