# generated using pymatgen
data_CoH10C13N4O3
_symmetry_space_group_name_H-M   'P 1'
_cell_length_a   6.80727215
_cell_length_b   9.36040858
_cell_length_c   9.50714671
_cell_angle_alpha   94.21490158
_cell_angle_beta   93.34270093
_cell_angle_gamma   93.18408080
_symmetry_Int_Tables_number   1
_chemical_formula_structural   CoH10C13N4O3
_chemical_formula_sum   'Co2 H20 C26 N8 O6'
_cell_volume   602.02815904
_cell_formula_units_Z   2
loop_
 _symmetry_equiv_pos_site_id
 _symmetry_equiv_pos_as_xyz
  1  'x, y, z'
loop_
 _atom_site_type_symbol
 _atom_site_label
 _atom_site_symmetry_multiplicity
 _atom_site_fract_x
 _atom_site_fract_y
 _atom_site_fract_z
 _atom_site_occupancy
 _atom_site_pbe_cm5_charge
 _atom_site_pbe_ddec_charge
 _atom_site_pbe_ddec_spin_density
 _atom_site_pbe_ddec_sum_bond_order
 _atom_site_pbe_magmom
Co  Co0  1  0.00000240  0.50000044  0.99999670  1  0.622563  0.782344  1.189388  2.871638  1.073
Co  Co1  1  0.50000204  0.49999901  0.00000055  1  0.614486  0.767777  -1.192975  2.85394  -1.081
H  H2  1  0.11822254  0.03149483  0.15470592  1  0.108231  0.121707  7.8e-05  1.021482  0.0
H  H3  1  0.88176996  0.96850620  0.84529560  1  0.108249  0.121694  7.8e-05  1.021508  0.0
H  H4  1  0.24584270  0.91619818  0.58119181  1  0.109878  0.124702  5e-06  1.020571  0.0
H  H5  1  0.75416129  0.08379868  0.41880671  1  0.10988  0.124681  5e-06  1.020633  0.0
H  H6  1  0.39186507  0.34513627  0.46485501  1  0.10421  0.11605  -9.2e-05  1.027102  0.0
H  H7  1  0.60812008  0.65486469  0.53514731  1  0.104224  0.11606  -9.2e-05  1.027058  0.0
H  H8  1  0.37246086  0.97879776  0.78373232  1  0.122455  0.127156  -5.8e-05  1.012175  0.0
H  H9  1  0.62754940  0.02120561  0.21626681  1  0.122472  0.127195  -5.8e-05  1.012083  0.0
H  H10  1  0.47530644  0.16106747  0.02261378  1  0.121638  0.117285  -2.8e-05  1.008697  0.0
H  H11  1  0.52470500  0.83892955  0.97739026  1  0.121652  0.117284  -2.8e-05  1.008685  0.0
H  H12  1  0.40458285  0.41312073  0.67792681  1  0.134534  0.10185  0.000256  1.02808  0.0
H  H13  1  0.59541556  0.58688040  0.32207598  1  0.13453  0.101917  0.000256  1.027994  0.0
H  H14  1  0.10017260  0.81350375  0.08891524  1  0.142387  0.116553  -0.000154  1.004552  0.0
H  H15  1  0.89983171  0.18649847  0.91108362  1  0.142389  0.116589  -0.000154  1.00451  0.0
H  H16  1  0.02693310  0.46666539  0.34098609  1  0.118031  0.11006  2e-05  1.022445  0.0
H  H17  1  0.97306961  0.53333568  0.65900843  1  0.118033  0.110071  2e-05  1.022394  0.0
H  H18  1  0.12580632  0.71078667  0.51855056  1  0.12086  0.123866  7.9e-05  1.016791  0.0
H  H19  1  0.87418450  0.28921110  0.48144860  1  0.120859  0.123869  7.9e-05  1.016749  0.0
H  H20  1  0.24827609  0.57709258  0.84435166  1  0.285152  0.344216  9.2e-05  0.963141  0.0
H  H21  1  0.75173241  0.42290645  0.15564505  1  0.285149  0.344212  9.2e-05  0.963187  0.0
C  C22  1  0.25841462  0.30661601  0.19158324  1  0.19343  0.541046  0.00055  4.274157  0.001
C  C23  1  0.74159102  0.69338305  0.80841863  1  0.193451  0.541075  0.000549  4.274065  0.001
C  C24  1  0.17870308  0.05749751  0.26249752  1  -0.101947  -0.23157  -0.000167  3.990179  0.0
C  C25  1  0.82128499  0.94250244  0.73750694  1  -0.102012  -0.231593  -0.000166  3.990076  0.0
C  C26  1  0.18537552  0.95464574  0.36191724  1  0.095555  0.192146  -0.000457  4.042533  -0.001
C  C27  1  0.81461701  0.04535635  0.63808225  1  0.095559  0.192084  -0.000457  4.042566  -0.001
C  C28  1  0.24852576  0.99466796  0.50264975  1  -0.100946  -0.265368  0.000113  3.952587  0.0
C  C29  1  0.75146959  0.00533098  0.49735280  1  -0.100945  -0.26536  0.000113  3.952746  0.0
C  C30  1  0.31527097  0.13685384  0.54168114  1  0.093488  0.191795  0.000575  4.043344  0.001
C  C31  1  0.68472138  0.86314503  0.45831814  1  0.093474  0.191764  0.000576  4.043385  0.001
C  C32  1  0.32830274  0.23649378  0.43934483  1  -0.103944  -0.233812  0.00079  3.996563  0.001
C  C33  1  0.67168684  0.76350723  0.56065764  1  -0.104007  -0.233925  0.000791  3.996586  0.001
C  C34  1  0.25521668  0.19723420  0.30095080  1  -0.018589  0.010475  -7.3e-05  4.020852  0.0
C  C35  1  0.74477286  0.80276678  0.69904957  1  -0.018546  0.010552  -7.4e-05  4.020758  0.0
C  C36  1  0.39093601  0.09456896  0.79737524  1  -0.007149  -0.120492  -0.001432  3.938265  -0.002
C  C37  1  0.60907131  0.90543336  0.20262793  1  -0.007192  -0.120591  -0.001433  3.938128  -0.002
C  C38  1  0.44145757  0.18562381  0.91481246  1  0.008379  -0.015157  0.000742  3.968265  0.001
C  C39  1  0.55854825  0.81437848  0.08518961  1  0.008382  -0.015158  0.000742  3.968164  0.001
C  C40  1  0.40612493  0.32052891  0.73930435  1  0.142131  0.092953  0.007894  3.864834  0.009
C  C41  1  0.59387477  0.67946800  0.26070244  1  0.142111  0.092881  0.007899  3.864538  0.009
C  C42  1  0.09197662  0.75385465  0.18162433  1  0.15236  0.118865  -0.007191  3.819808  -0.009
C  C43  1  0.90802469  0.24614749  0.81837125  1  0.152356  0.118799  -0.007192  3.819821  -0.009
C  C44  1  0.05518578  0.57646833  0.31556669  1  -0.000515  -0.040434  -0.00087  4.000353  -0.002
C  C45  1  0.94481235  0.42352950  0.68442958  1  -0.000493  -0.040428  -0.00087  4.000535  -0.002
C  C46  1  0.10647041  0.69610977  0.40464678  1  -0.009154  -0.120664  0.001451  3.948371  0.002
C  C47  1  0.89352797  0.30389133  0.59535390  1  -0.009187  -0.120715  0.001451  3.948636  0.002
N  N48  1  0.44776396  0.32614221  0.87754802  1  -0.349823  -0.211097  -0.000168  3.626758  0.0
N  N49  1  0.55223728  0.67385783  0.12245059  1  -0.349777  -0.211031  -0.000167  3.626529  0.0
N  N50  1  0.36943353  0.18084032  0.68488291  1  -0.230568  -0.00314  0.000678  3.788867  0.0
N  N51  1  0.63056634  0.81916082  0.31511887  1  -0.230549  -0.003092  0.000679  3.78883  0.0
N  N52  1  0.04755667  0.61389495  0.17698477  1  -0.353743  -0.219852  -2.2e-05  3.631138  -0.001
N  N53  1  0.95244602  0.38610509  0.82301284  1  -0.353717  -0.219763  -2.2e-05  3.63115  -0.001
N  N54  1  0.12887409  0.80943931  0.31897254  1  -0.226379  0.00205  -0.000478  3.78031  0.0
N  N55  1  0.87112276  0.19056171  0.68102388  1  -0.226419  0.00209  -0.000478  3.780472  0.0
O  O56  1  0.41116851  0.39179753  0.19697952  1  -0.31278  -0.560337  -0.026335  2.3006  -0.041
O  O57  1  0.58883678  0.60819512  0.80302405  1  -0.312787  -0.56036  -0.026338  2.3005  -0.041
O  O58  1  0.10839765  0.30235375  0.10576783  1  -0.308247  -0.552004  0.025333  2.296201  0.039
O  O59  1  0.89160506  0.69764733  0.89422669  1  -0.308248  -0.551985  0.02533  2.29633  0.039
O  O60  1  0.25068156  0.57625422  0.94678907  1  -0.54742  -0.75388  0.000663  2.381763  0.001
O  O61  1  0.74932394  0.42374370  0.05320746  1  -0.547454  -0.753903  0.000664  2.381736  0.001
