# generated using pymatgen
data_CdH10C16(NO)4
_symmetry_space_group_name_H-M   'P 1'
_cell_length_a   9.74313586
_cell_length_b   11.28241781
_cell_length_c   14.73237186
_cell_angle_alpha   106.05979272
_cell_angle_beta   90.00004591
_cell_angle_gamma   89.99940124
_symmetry_Int_Tables_number   1
_chemical_formula_structural   CdH10C16(NO)4
_chemical_formula_sum   'Cd4 H40 C64 N16 O16'
_cell_volume   1556.27030565
_cell_formula_units_Z   4
loop_
 _symmetry_equiv_pos_site_id
 _symmetry_equiv_pos_as_xyz
  1  'x, y, z'
loop_
 _atom_site_type_symbol
 _atom_site_label
 _atom_site_symmetry_multiplicity
 _atom_site_fract_x
 _atom_site_fract_y
 _atom_site_fract_z
 _atom_site_occupancy
 _atom_site_hle17_bader_spin_density
 _atom_site_hle17_ddec_charge
 _atom_site_hle17_ddec_spin_density
 _atom_site_hle17_ddec_sum_bond_order
 _atom_site_hle17_magmom
 _atom_site_hse06_10hf_bader_spin_density
 _atom_site_hse06_10hf_ddec_charge
 _atom_site_hse06_10hf_ddec_spin_density
 _atom_site_hse06_10hf_ddec_sum_bond_order
 _atom_site_hse06_10hf_magmom
 _atom_site_hse06_bader_spin_density
 _atom_site_hse06_ddec_charge
 _atom_site_hse06_ddec_spin_density
 _atom_site_hse06_ddec_sum_bond_order
 _atom_site_hse06_magmom
 _atom_site_pbe_bader_spin_density
 _atom_site_pbe_cm5_charge
 _atom_site_pbe_ddec_charge
 _atom_site_pbe_ddec_spin_density
 _atom_site_pbe_ddec_sum_bond_order
 _atom_site_pbe_magmom
Cd  Cd0  1  0.89104574  0.36102147  0.48095423  1  0  1.156654  0  1.668102  0  0  0.967267  0  2.119843  0  0  1.025591  0  2.066805  0  0  0.785547  0.925691  0  2.156027  0
Cd  Cd1  1  0.39104683  0.63897401  0.01903524  1  0  1.156668  0  1.668261  0  0  0.967265  0  2.120018  0  0  1.025594  0  2.066973  0  0  0.785577  0.92568  0  2.156217  0
Cd  Cd2  1  0.10895192  0.63897398  0.51904886  1  0  1.156698  0  1.66808  0  0  0.967312  0  2.119832  0  0  1.025638  0  2.066789  0  0  0.785565  0.925731  0  2.156018  0
Cd  Cd3  1  0.60894775  0.36103224  0.98095914  1  0  1.156718  0  1.668156  0  0  0.967338  0  2.119915  0  0  1.025665  0  2.066868  0  0  0.785582  0.925766  0  2.156114  0
H  H4  1  0.70724631  0.40319732  0.30161162  1  0  0.131946  0  0.980007  0  0  0.136969  0  1.04923  0  0  0.141389  0  1.044779  0  0  0.107562  0.133697  0  1.05265  0
H  H5  1  0.20724798  0.59680631  0.19837797  1  0  0.13191  0  0.980065  0  0  0.136928  0  1.049302  0  0  0.141345  0  1.044856  0  0  0.107518  0.133664  0  1.052705  0
H  H6  1  0.29274519  0.59680136  0.69837310  1  0  0.131928  0  0.980067  0  0  0.136961  0  1.04929  0  0  0.14138  0  1.044837  0  0  0.107532  0.133689  0  1.052705  0
H  H7  1  0.79274352  0.40319816  0.80161876  1  0  0.131858  0  0.980171  0  0  0.136866  0  1.049423  0  0  0.141296  0  1.04496  0  0  0.107529  0.133587  0  1.05285  0
H  H8  1  0.39412481  0.66105437  0.27318828  1  0  0.110006  0  0.971037  0  0  0.116886  0  1.039281  0  0  0.120697  0  1.035711  0  0  0.104725  0.114069  0  1.042018  0
H  H9  1  0.89411773  0.33896814  0.22682015  1  0  0.109911  0  0.971095  0  0  0.116749  0  1.039355  0  0  0.120539  0  1.035842  0  0  0.104673  0.113941  0  1.042081  0
H  H10  1  0.60587490  0.33895292  0.72681106  1  0  0.10991  0  0.971094  0  0  0.116795  0  1.039333  0  0  0.120604  0  1.035769  0  0  0.104699  0.113977  0  1.042077  0
H  H11  1  0.10587788  0.66103915  0.77317918  1  0  0.109872  0  0.971033  0  0  0.11672  0  1.039297  0  0  0.120515  0  1.035771  0  0  0.104637  0.113907  0  1.042026  0
H  H12  1  0.05437329  0.24035259  0.27557398  1  0  0.109456  0  0.993417  0  0  0.116733  0  1.061211  0  0  0.119508  0  1.060401  0  0  0.101273  0.114758  0  1.061848  0
H  H13  1  0.55435394  0.75963587  0.22441179  1  0  0.109471  0  0.993405  0  0  0.116715  0  1.061263  0  0  0.11949  0  1.060447  0  0  0.101213  0.11474  0  1.061895  0
H  H14  1  0.94564900  0.75964914  0.72442289  1  0  0.109471  0  0.993498  0  0  0.116708  0  1.061353  0  0  0.119484  0  1.060541  0  0  0.101265  0.114732  0  1.061984  0
H  H15  1  0.44563448  0.24036599  0.77559121  1  0  0.109472  0  0.99354  0  0  0.116709  0  1.061378  0  0  0.119483  0  1.060563  0  0  0.101215  0.114737  0  1.062015  0
H  H16  1  0.39825020  0.76464241  0.44717736  1  0  0.123574  0  0.970208  0  0  0.131446  0  1.031622  0  0  0.135531  0  1.028844  0  0  0.103328  0.128569  0  1.033634  0
H  H17  1  0.89823404  0.23537092  0.05283263  1  0  0.123652  0  0.970063  0  0  0.131492  0  1.031548  0  0  0.135583  0  1.02876  0  0  0.103346  0.128618  0  1.033559  0
H  H18  1  0.60174643  0.23534752  0.55282530  1  0  0.123587  0  0.970156  0  0  0.131524  0  1.031486  0  0  0.135613  0  1.028703  0  0  0.103388  0.128648  0  1.033501  0
H  H19  1  0.10176157  0.76463267  0.94716528  1  0  0.123618  0  0.970051  0  0  0.131515  0  1.031464  0  0  0.135602  0  1.028683  0  0  0.103381  0.128639  0  1.033474  0
H  H20  1  0.26214561  0.85459011  0.32758279  1  0  0.132256  0  0.939286  0  0  0.143765  0  0.996297  0  0  0.147309  0  0.993586  0  0  0.113842  0.141259  0  0.998272  0
H  H21  1  0.76214084  0.14540240  0.17242432  1  0  0.132079  0  0.939336  0  0  0.143624  0  0.996339  0  0  0.147168  0  0.993629  0  0  0.113785  0.141103  0  0.998342  0
H  H22  1  0.73786847  0.14541555  0.67242573  1  0  0.132217  0  0.939244  0  0  0.143709  0  0.996301  0  0  0.147253  0  0.993591  0  0  0.113815  0.141225  0  0.998253  0
H  H23  1  0.23790403  0.85458215  0.82758407  1  0  0.132208  0  0.939052  0  0  0.143623  0  0.996239  0  0  0.147166  0  0.993531  0  0  0.113803  0.141139  0  0.998189  0
H  H24  1  0.13999047  0.07009138  0.14035042  1  0  0.091653  0  0.966415  0  0  0.100326  0  1.030275  0  0  0.103846  0  1.028286  0  0  0.096445  0.09785  0  1.031649  0
H  H25  1  0.63996911  0.92989095  0.35964303  1  0  0.091666  0  0.966355  0  0  0.100326  0  1.030237  0  0  0.103847  0  1.028252  0  0  0.096433  0.097847  0  1.03161  0
H  H26  1  0.86003490  0.92990670  0.85964776  1  0  0.091657  0  0.966465  0  0  0.10033  0  1.030323  0  0  0.10385  0  1.028337  0  0  0.096443  0.097848  0  1.031699  0
H  H27  1  0.36002137  0.07011191  0.64036289  1  0  0.09164  0  0.96644  0  0  0.100305  0  1.030316  0  0  0.103827  0  1.028328  0  0  0.096405  0.097825  0  1.031688  0
H  H28  1  0.72470568  0.60101076  0.65067823  1  0  0.089124  0  0.927261  0  0  0.10252  0  0.985186  0  0  0.103875  0  0.98334  0  0  0.141085  0.101434  0  0.986489  0
H  H29  1  0.22469646  0.39897023  0.84931804  1  0  0.089169  0  0.927216  0  0  0.102552  0  0.985188  0  0  0.103909  0  0.983338  0  0  0.141074  0.101475  0  0.98646  0
H  H30  1  0.27528274  0.39897257  0.34931701  1  0  0.089184  0  0.927358  0  0  0.102589  0  0.985255  0  0  0.103945  0  0.983411  0  0  0.141135  0.101509  0  0.986563  0
H  H31  1  0.77529094  0.60104063  0.15067725  1  0  0.089138  0  0.927443  0  0  0.102498  0  0.985433  0  0  0.103848  0  0.983588  0  0  0.141063  0.101434  0  0.986701  0
H  H32  1  0.07953494  0.19477359  0.60274252  1  0  0.092726  0  0.916507  0  0  0.105657  0  0.972779  0  0  0.108126  0  0.969475  0  0  0.139569  0.103707  0  0.975272  0
H  H33  1  0.57953665  0.80522512  0.89724630  1  0  0.092684  0  0.916341  0  0  0.105649  0  0.972595  0  0  0.108118  0  0.969291  0  0  0.139542  0.103694  0  0.975092  0
H  H34  1  0.92044014  0.80522079  0.39725424  1  0  0.092704  0  0.916421  0  0  0.105711  0  0.972631  0  0  0.108181  0  0.969324  0  0  0.139541  0.103756  0  0.975135  0
H  H35  1  0.42045998  0.19476847  0.10275573  1  0  0.092781  0  0.916501  0  0  0.105754  0  0.972724  0  0  0.108225  0  0.96942  0  0  0.139562  0.103799  0  0.975224  0
H  H36  1  0.54213731  0.74290923  0.61604424  1  0  0.318264  0  0.84106  0  0  0.312626  0  0.878831  0  0  0.318439  0  0.876025  0  0  0.347601  0.308385  0  0.881184  0
H  H37  1  0.04213495  0.25708651  0.88395958  1  0  0.318364  0  0.841126  0  0  0.31274  0  0.878883  0  0  0.318547  0  0.876074  0  0  0.347623  0.308507  0  0.881242  0
H  H38  1  0.45784598  0.25707588  0.38394865  1  0  0.31836  0  0.841036  0  0  0.31273  0  0.87881  0  0  0.318537  0  0.876002  0  0  0.347611  0.308491  0  0.881166  0
H  H39  1  0.95785655  0.74291984  0.11603888  1  0  0.318363  0  0.84107  0  0  0.312745  0  0.878816  0  0  0.318549  0  0.87601  0  0  0.347625  0.308505  0  0.881175  0
H  H40  1  0.19948741  0.98673690  0.52416309  1  0  0.324042  0  0.938572  0  0  0.301532  0  1.004178  0  0  0.311355  0  0.995995  0  0  0.303445  0.294614  0  1.009927  0
H  H41  1  0.69949051  0.01326364  0.97583434  1  0  0.32393  0  0.938657  0  0  0.301524  0  1.004129  0  0  0.311336  0  0.995961  0  0  0.303421  0.294607  0  1.009875  0
H  H42  1  0.80050922  0.01326402  0.47583837  1  0  0.324037  0  0.938597  0  0  0.301572  0  1.004115  0  0  0.311403  0  0.995923  0  0  0.303424  0.294656  0  1.009865  0
H  H43  1  0.30052460  0.98673085  0.02416720  1  0  0.324041  0  0.938433  0  0  0.301537  0  1.004059  0  0  0.311364  0  0.995864  0  0  0.303456  0.294622  0  1.009805  0
C  C44  1  0.56081667  0.64372566  0.46943279  1  0  0.164521  0  3.779283  0  0  0.153046  0  4.029097  0  0  0.159075  0  4.050148  0  0  0.095699  0.149265  0  4.014724  0
C  C45  1  0.06081195  0.35627134  0.03056759  1  0  0.164615  0  3.779422  0  0  0.153335  0  4.029091  0  0  0.159359  0  4.050137  0  0  0.095793  0.149549  0  4.014727  0
C  C46  1  0.43918099  0.35626226  0.53056269  1  0  0.164544  0  3.779289  0  0  0.153218  0  4.028989  0  0  0.159242  0  4.050033  0  0  0.095812  0.149438  0  4.014608  0
C  C47  1  0.93918981  0.64372304  0.96942917  1  0  0.164387  0  3.77964  0  0  0.153108  0  4.029311  0  0  0.159128  0  4.050356  0  0  0.095711  0.149321  0  4.014945  0
C  C48  1  0.55250481  0.52874401  0.27768059  1  0  -0.090486  0  3.79472  0  0  -0.068087  0  4.03504  0  0  -0.078829  0  4.060566  0  0  -0.034018  -0.061089  0  4.017761  0
C  C49  1  0.05250185  0.47126589  0.22231828  1  0  -0.090641  0  3.794664  0  0  -0.068207  0  4.034941  0  0  -0.078943  0  4.060459  0  0  -0.034111  -0.061207  0  4.017661  0
C  C50  1  0.44749285  0.47125848  0.72230964  1  0  -0.090746  0  3.795061  0  0  -0.068123  0  4.035141  0  0  -0.078858  0  4.060662  0  0  -0.034006  -0.061123  0  4.017859  0
C  C51  1  0.94749375  0.52873959  0.77768205  1  0  -0.090741  0  3.794994  0  0  -0.068219  0  4.035167  0  0  -0.078953  0  4.060693  0  0  -0.034047  -0.061217  0  4.017878  0
C  C52  1  0.55307682  0.47048565  0.17314939  1  0  0.635038  0  3.930627  0  0  0.588026  0  4.215432  0  0  0.623296  0  4.209123  0  0  0.191176  0.564192  0  4.218307  0
C  C53  1  0.05308347  0.52953636  0.32685732  1  0  0.635127  0  3.930303  0  0  0.588092  0  4.215154  0  0  0.623358  0  4.208849  0  0  0.191223  0.564255  0  4.218034  0
C  C54  1  0.44691160  0.52952253  0.82684876  1  0  0.634878  0  3.930361  0  0  0.587792  0  4.215221  0  0  0.623059  0  4.208916  0  0  0.191031  0.563962  0  4.218097  0
C  C55  1  0.94691214  0.47046360  0.67314260  1  0  0.635092  0  3.930083  0  0  0.588047  0  4.214915  0  0  0.623311  0  4.208612  0  0  0.191266  0.56421  0  4.217794  0
C  C56  1  0.64728739  0.54139806  0.42973264  1  0  0.139739  0  3.813602  0  0  0.140306  0  4.059357  0  0  0.142102  0  4.083429  0  0  0.082512  0.138837  0  4.043288  0
C  C57  1  0.14728350  0.45860272  0.07026788  1  0  0.139723  0  3.813322  0  0  0.140108  0  4.059249  0  0  0.1419  0  4.083317  0  0  0.082477  0.138641  0  4.043182  0
C  C58  1  0.35271027  0.45859439  0.57026035  1  0  0.139623  0  3.813326  0  0  0.140083  0  4.059188  0  0  0.141877  0  4.083259  0  0  0.082427  0.138614  0  4.043116  0
C  C59  1  0.85271724  0.54140180  0.92973090  1  0  0.139888  0  3.813257  0  0  0.14033  0  4.059119  0  0  0.142124  0  4.083189  0  0  0.082533  0.13886  0  4.043057  0
C  C60  1  0.64360923  0.48304662  0.33308914  1  0  -0.137137  0  3.698672  0  0  -0.172382  0  3.952362  0  0  -0.170986  0  3.969839  0  0  -0.089587  -0.173171  0  3.940854  0
C  C61  1  0.14360673  0.51696059  0.16690994  1  0  -0.137096  0  3.698644  0  0  -0.1723  0  3.952341  0  0  -0.170904  0  3.969821  0  0  -0.089569  -0.173088  0  3.940807  0
C  C62  1  0.35638842  0.51695420  0.66690823  1  0  -0.136982  0  3.698768  0  0  -0.172294  0  3.952432  0  0  -0.170902  0  3.969916  0  0  -0.089566  -0.173085  0  3.940908  0
C  C63  1  0.85638477  0.48304393  0.83308884  1  0  -0.137016  0  3.698703  0  0  -0.172266  0  3.952382  0  0  -0.170882  0  3.969856  0  0  -0.089583  -0.173048  0  3.940878  0
C  C64  1  0.46555786  0.63005311  0.31868711  1  0  -0.071653  0  3.746619  0  0  -0.098347  0  4.002899  0  0  -0.097868  0  4.024352  0  0  -0.090476  -0.098427  0  3.98849  0
C  C65  1  0.96555654  0.36996033  0.18131549  1  0  -0.071555  0  3.747067  0  0  -0.098194  0  4.003333  0  0  -0.097711  0  4.024767  0  0  -0.090454  -0.098277  0  3.988936  0
C  C66  1  0.53443569  0.36995408  0.68130813  1  0  -0.071395  0  3.747054  0  0  -0.098146  0  4.003304  0  0  -0.097671  0  4.024765  0  0  -0.09041  -0.098229  0  3.988899  0
C  C67  1  0.03443906  0.63003775  0.81868269  1  0  -0.071446  0  3.747162  0  0  -0.098106  0  4.003397  0  0  -0.097622  0  4.024828  0  0  -0.090392  -0.098183  0  3.988988  0
C  C68  1  0.10113389  0.15814212  0.28688796  1  0  -0.146516  0  3.766746  0  0  -0.165628  0  4.021926  0  0  -0.169823  0  4.043293  0  0  -0.100649  -0.162881  0  4.007709  0
C  C69  1  0.60111970  0.84184778  0.21309949  1  0  -0.146527  0  3.766274  0  0  -0.165647  0  4.021488  0  0  -0.169854  0  4.042839  0  0  -0.100593  -0.162908  0  4.007266  0
C  C70  1  0.89888635  0.84185413  0.71311053  1  0  -0.146649  0  3.766294  0  0  -0.165766  0  4.02152  0  0  -0.169969  0  4.042883  0  0  -0.100693  -0.163017  0  4.00729  0
C  C71  1  0.39887899  0.15816055  0.78690480  1  0  -0.146557  0  3.766008  0  0  -0.165658  0  4.021161  0  0  -0.169863  0  4.042511  0  0  -0.100584  -0.162925  0  4.006953  0
C  C72  1  0.11145306  0.14315811  0.37777481  1  0  0.149145  0  3.830743  0  0  0.143173  0  4.078743  0  0  0.14814  0  4.102279  0  0  0.082901  0.139845  0  4.062832  0
C  C73  1  0.61144378  0.85683915  0.12221751  1  0  0.149293  0  3.830804  0  0  0.143385  0  4.07872  0  0  0.1484  0  4.102193  0  0  0.083129  0.140065  0  4.0628  0
C  C74  1  0.88856000  0.85685101  0.62222421  1  0  0.14934  0  3.830405  0  0  0.143359  0  4.078337  0  0  0.148344  0  4.101848  0  0  0.083077  0.140035  0  4.062416  0
C  C75  1  0.38855285  0.14316560  0.87779082  1  0  0.149187  0  3.830825  0  0  0.143364  0  4.078666  0  0  0.148374  0  4.102143  0  0  0.083162  0.140044  0  4.062751  0
C  C76  1  0.46809880  0.68927799  0.41496140  1  0  -0.161914  0  3.745862  0  0  -0.179342  0  4.00164  0  0  -0.184259  0  4.020982  0  0  -0.098898  -0.176249  0  3.988627  0
C  C77  1  0.96809816  0.31073282  0.08504748  1  0  -0.161995  0  3.746208  0  0  -0.179467  0  4.001943  0  0  -0.184384  0  4.021282  0  0  -0.098935  -0.176371  0  3.988943  0
C  C78  1  0.53189065  0.31072752  0.58504030  1  0  -0.161911  0  3.746246  0  0  -0.17943  0  4.001987  0  0  -0.184351  0  4.021333  0  0  -0.098938  -0.176341  0  3.98898  0
C  C79  1  0.03190463  0.68926345  0.91495170  1  0  -0.161969  0  3.746057  0  0  -0.179495  0  4.001805  0  0  -0.184412  0  4.021144  0  0  -0.099028  -0.176404  0  3.988802  0
C  C80  1  0.20702311  0.95439041  0.22667129  1  0  -0.087265  0  3.812947  0  0  -0.066952  0  4.055502  0  0  -0.076228  0  4.080626  0  0  -0.036028  -0.061056  0  4.038963  0
C  C81  1  0.70700726  0.04559230  0.27332636  1  0  -0.087516  0  3.812881  0  0  -0.067194  0  4.055423  0  0  -0.076463  0  4.080544  0  0  -0.035981  -0.061294  0  4.038884  0
C  C82  1  0.79299816  0.04561340  0.77333618  1  0  -0.087564  0  3.812522  0  0  -0.067208  0  4.055069  0  0  -0.07649  0  4.080186  0  0  -0.036001  -0.061309  0  4.038535  0
C  C83  1  0.29299553  0.95440691  0.72668087  1  0  -0.087639  0  3.812946  0  0  -0.067237  0  4.055401  0  0  -0.076516  0  4.080528  0  0  -0.035982  -0.061334  0  4.038856  0
C  C84  1  0.25443862  0.85385197  0.14333933  1  0  0.628624  0  3.943186  0  0  0.577168  0  4.23847  0  0  0.611983  0  4.231548  0  0  0.192739  0.553635  0  4.242209  0
C  C85  1  0.75442672  0.14613222  0.35666204  1  0  0.628832  0  3.942776  0  0  0.57741  0  4.238018  0  0  0.612225  0  4.231096  0  0  0.192865  0.553878  0  4.241755  0
C  C86  1  0.74557444  0.14614076  0.85666525  1  0  0.628799  0  3.94286  0  0  0.577373  0  4.238093  0  0  0.612194  0  4.23117  0  0  0.192833  0.553846  0  4.241818  0
C  C87  1  0.24557196  0.85386879  0.64334351  1  0  0.628787  0  3.942962  0  0  0.577334  0  4.238236  0  0  0.61215  0  4.231316  0  0  0.192885  0.553809  0  4.241961  0
C  C88  1  0.21947198  0.93925741  0.31762419  1  0  -0.14131  0  3.703273  0  0  -0.171027  0  3.94935  0  0  -0.170176  0  3.966839  0  0  -0.086136  -0.17161  0  3.937913  0
C  C89  1  0.71946003  0.06073074  0.18237522  1  0  -0.140848  0  3.703104  0  0  -0.170571  0  3.949142  0  0  -0.16973  0  3.966641  0  0  -0.086032  -0.171149  0  3.937729  0
C  C90  1  0.78054826  0.06074804  0.68237477  1  0  -0.141116  0  3.702729  0  0  -0.170904  0  3.948842  0  0  -0.170055  0  3.966326  0  0  -0.086142  -0.171509  0  3.937413  0
C  C91  1  0.28056021  0.93926563  0.81762805  1  0  -0.140887  0  3.703085  0  0  -0.170512  0  3.949242  0  0  -0.169667  0  3.966739  0  0  -0.086044  -0.171121  0  3.937808  0
C  C92  1  0.17191679  0.03542356  0.39239813  1  0  0.141705  0  3.797776  0  0  0.136062  0  4.042781  0  0  0.138557  0  4.06521  0  0  0.087997  0.134377  0  4.027628  0
C  C93  1  0.67191134  0.96457411  0.10759703  1  0  0.141445  0  3.797708  0  0  0.135781  0  4.042783  0  0  0.138258  0  4.065209  0  0  0.087824  0.134093  0  4.027632  0
C  C94  1  0.82810139  0.96458387  0.60760734  1  0  0.141662  0  3.797862  0  0  0.136119  0  4.042696  0  0  0.138618  0  4.065124  0  0  0.087942  0.134429  0  4.027557  0
C  C95  1  0.32809966  0.03542220  0.89240419  1  0  0.141486  0  3.797671  0  0  0.135707  0  4.042844  0  0  0.138188  0  4.065268  0  0  0.087734  0.134024  0  4.027697  0
C  C96  1  0.14918879  0.06307099  0.21237762  1  0  -0.093872  0  3.784443  0  0  -0.119716  0  4.037138  0  0  -0.120517  0  4.059412  0  0  -0.102832  -0.119038  0  4.022375  0
C  C97  1  0.64917861  0.93691681  0.28761829  1  0  -0.093859  0  3.783943  0  0  -0.119683  0  4.036642  0  0  -0.120496  0  4.058925  0  0  -0.102903  -0.119002  0  4.021876  0
C  C98  1  0.85083042  0.93692903  0.78762502  1  0  -0.093698  0  3.783908  0  0  -0.119509  0  4.036533  0  0  -0.120314  0  4.058812  0  0  -0.102787  -0.118835  0  4.021765  0
C  C99  1  0.35081699  0.06308137  0.71238399  1  0  -0.093719  0  3.783657  0  0  -0.119573  0  4.036338  0  0  -0.120382  0  4.058618  0  0  -0.10283  -0.11889  0  4.021567  0
C  C100  1  0.68565256  0.59604537  0.58079560  1  0  0.282423  0  3.670458  0  0  0.214674  0  3.958007  0  0  0.23305  0  3.968612  0  0  0.167704  0.202627  0  3.950479  0
C  C101  1  0.18564741  0.40394899  0.91920669  1  0  0.282421  0  3.6707  0  0  0.21466  0  3.958285  0  0  0.233022  0  3.968892  0  0  0.167736  0.20263  0  3.950762  0
C  C102  1  0.31433792  0.40394807  0.41920029  1  0  0.282386  0  3.67079  0  0  0.21463  0  3.95835  0  0  0.23299  0  3.968957  0  0  0.167713  0.20257  0  3.950833  0
C  C103  1  0.81434409  0.59605555  0.08079277  1  0  0.282417  0  3.670905  0  0  0.214674  0  3.958487  0  0  0.23304  0  3.969085  0  0  0.167732  0.20262  0  3.950976  0
C  C104  1  0.10257186  0.16051041  0.52791022  1  0  0.276708  0  3.658477  0  0  0.21043  0  3.939544  0  0  0.229345  0  3.94847  0  0  0.162815  0.198293  0  3.932727  0
C  C105  1  0.60257729  0.83949652  0.97208637  1  0  0.276857  0  3.658712  0  0  0.210566  0  3.9398  0  0  0.229478  0  3.948728  0  0  0.16293  0.198428  0  3.932981  0
C  C106  1  0.89742169  0.83949322  0.47208974  1  0  0.27687  0  3.658496  0  0  0.210484  0  3.939567  0  0  0.229414  0  3.948491  0  0  0.162854  0.198348  0  3.932751  0
C  C107  1  0.39742447  0.16050544  0.02792073  1  0  0.27659  0  3.658817  0  0  0.210303  0  3.939887  0  0  0.229215  0  3.948819  0  0  0.162819  0.198166  0  3.933071  0
N  N108  1  0.58913489  0.67585284  0.56528565  1  0  -0.334574  0  3.371574  0  0  -0.276684  0  3.611276  0  0  -0.293582  0  3.621877  0  0  -0.372209  -0.265566  0  3.60415  0
N  N109  1  0.08912661  0.32414154  0.93471794  1  0  -0.334777  0  3.371835  0  0  -0.276962  0  3.611503  0  0  -0.293832  0  3.622083  0  0  -0.372266  -0.265852  0  3.604389  0
N  N110  1  0.41085661  0.32413788  0.43471175  1  0  -0.334704  0  3.371524  0  0  -0.276893  0  3.611227  0  0  -0.293755  0  3.62179  0  0  -0.372306  -0.265764  0  3.604095  0
N  N111  1  0.91087207  0.67585653  0.06527956  1  0  -0.33463  0  3.371695  0  0  -0.27681  0  3.611343  0  0  -0.293668  0  3.621912  0  0  -0.372201  -0.265684  0  3.604217  0
N  N112  1  0.72347043  0.51443779  0.50162704  1  0  -0.436882  0  3.169318  0  0  -0.369585  0  3.453062  0  0  -0.392644  0  3.469213  0  0  -0.344276  -0.353767  0  3.441771  0
N  N113  1  0.22346638  0.48555511  0.99836753  1  0  -0.436882  0  3.169492  0  0  -0.369511  0  3.453247  0  0  -0.392571  0  3.469414  0  0  -0.344252  -0.353698  0  3.441956  0
N  N114  1  0.27652518  0.48555462  0.49836390  1  0  -0.436911  0  3.169516  0  0  -0.369549  0  3.453252  0  0  -0.392607  0  3.469411  0  0  -0.344316  -0.353729  0  3.441962  0
N  N115  1  0.77652614  0.51444941  0.00163125  1  0  -0.436948  0  3.169278  0  0  -0.369607  0  3.453033  0  0  -0.392669  0  3.469198  0  0  -0.344278  -0.353791  0  3.44175  0
N  N116  1  0.06862452  0.21930042  0.46405683  1  0  -0.449624  0  3.164117  0  0  -0.382831  0  3.451104  0  0  -0.406251  0  3.465624  0  0  -0.355729  -0.36684  0  3.440554  0
N  N117  1  0.56861920  0.78070000  0.03593609  1  0  -0.449795  0  3.164441  0  0  -0.383007  0  3.451387  0  0  -0.406437  0  3.465893  0  0  -0.355857  -0.367012  0  3.440827  0
N  N118  1  0.93138135  0.78070047  0.53594394  1  0  -0.449694  0  3.16404  0  0  -0.382902  0  3.45106  0  0  -0.406326  0  3.465569  0  0  -0.355772  -0.366901  0  3.440489  0
N  N119  1  0.43136819  0.21930736  0.96406666  1  0  -0.449616  0  3.16435  0  0  -0.38284  0  3.451258  0  0  -0.406274  0  3.465772  0  0  -0.355786  -0.366854  0  3.440716  0
N  N120  1  0.16554710  0.05108647  0.48901990  1  0  -0.348592  0  3.368657  0  0  -0.284644  0  3.60432  0  0  -0.303131  0  3.615902  0  0  -0.37331  -0.27218  0  3.596063  0
N  N121  1  0.66555001  0.94890940  0.01097423  1  0  -0.348417  0  3.368845  0  0  -0.284601  0  3.604532  0  0  -0.303077  0  3.616138  0  0  -0.373269  -0.272138  0  3.596273  0
N  N122  1  0.83445363  0.94891807  0.51097957  1  0  -0.348785  0  3.36874  0  0  -0.284845  0  3.604308  0  0  -0.303364  0  3.615906  0  0  -0.373315  -0.272381  0  3.59606  0
N  N123  1  0.33446407  0.05108601  0.98902750  1  0  -0.348507  0  3.368635  0  0  -0.284608  0  3.604448  0  0  -0.303093  0  3.616032  0  0  -0.373279  -0.272145  0  3.596188  0
O  O124  1  0.49798845  0.52770444  0.11869184  1  0  -0.679712  0  2.046464  0  0  -0.610009  0  2.313741  0  0  -0.640248  0  2.302068  0  0  -0.340298  -0.588431  0  2.32063  0
O  O125  1  0.99799726  0.47232441  0.38131522  1  0  -0.679705  0  2.046715  0  0  -0.609987  0  2.313955  0  0  -0.640227  0  2.30229  0  0  -0.340272  -0.5884  0  2.320831  0
O  O126  1  0.50199483  0.47231680  0.88131503  1  0  -0.679622  0  2.046762  0  0  -0.609911  0  2.314055  0  0  -0.640155  0  2.302388  0  0  -0.340245  -0.588307  0  2.320875  0
O  O127  1  0.00200142  0.52766627  0.61868013  1  0  -0.67966  0  2.046598  0  0  -0.609951  0  2.313865  0  0  -0.640191  0  2.302192  0  0  -0.340323  -0.588357  0  2.320721  0
O  O128  1  0.61470852  0.36731409  0.14140943  1  0  -0.635437  0  1.950789  0  0  -0.57618  0  2.192911  0  0  -0.604622  0  2.183309  0  0  -0.333013  -0.55605  0  2.198339  0
O  O129  1  0.11471804  0.63269792  0.35858719  1  0  -0.635448  0  1.950524  0  0  -0.576228  0  2.192684  0  0  -0.604665  0  2.183077  0  0  -0.333034  -0.5561  0  2.198113  0
O  O130  1  0.38527169  0.63269478  0.85857935  1  0  -0.635308  0  1.950424  0  0  -0.576091  0  2.192643  0  0  -0.604532  0  2.18304  0  0  -0.332989  -0.555964  0  2.198072  0
O  O131  1  0.88527449  0.36730123  0.64141732  1  0  -0.635426  0  1.950374  0  0  -0.576202  0  2.192526  0  0  -0.604639  0  2.182924  0  0  -0.333086  -0.556078  0  2.197959  0
O  O132  1  0.29500933  0.75303814  0.15803162  1  0  -0.632344  0  2.048322  0  0  -0.561476  0  2.300345  0  0  -0.591322  0  2.290476  0  0  -0.319888  -0.540567  0  2.306336  0
O  O133  1  0.79500135  0.24693825  0.34196687  1  0  -0.632441  0  2.048208  0  0  -0.561646  0  2.30029  0  0  -0.591462  0  2.290355  0  0  -0.319967  -0.540757  0  2.306332  0
O  O134  1  0.70499346  0.24695554  0.84197451  1  0  -0.632393  0  2.048075  0  0  -0.56163  0  2.300204  0  0  -0.591453  0  2.290271  0  0  -0.320026  -0.540737  0  2.306231  0
O  O135  1  0.20500350  0.75305992  0.65803540  1  0  -0.632433  0  2.048322  0  0  -0.561668  0  2.300484  0  0  -0.591487  0  2.290547  0  0  -0.320008  -0.540775  0  2.3065  0
O  O136  1  0.25239912  0.86989307  0.06093238  1  0  -0.65029  0  1.994605  0  0  -0.59568  0  2.223836  0  0  -0.620702  0  2.213179  0  0  -0.330593  -0.578152  0  2.230473  0
O  O137  1  0.75238130  0.13009110  0.43906695  1  0  -0.650398  0  1.994553  0  0  -0.595829  0  2.223763  0  0  -0.620854  0  2.213104  0  0  -0.330702  -0.578293  0  2.230396  0
O  O138  1  0.74760675  0.13009874  0.93907202  1  0  -0.650309  0  1.994433  0  0  -0.595723  0  2.223608  0  0  -0.620743  0  2.212955  0  0  -0.330578  -0.578191  0  2.230238  0
O  O139  1  0.24760815  0.86991545  0.56093970  1  0  -0.650329  0  1.994548  0  0  -0.595707  0  2.223764  0  0  -0.620729  0  2.213111  0  0  -0.330677  -0.578184  0  2.230395  0
