# generated using pymatgen
data_CdH14C13(NCl)2
_symmetry_space_group_name_H-M   'P 1'
_cell_length_a   4.24425376
_cell_length_b   11.93512274
_cell_length_c   13.55075552
_cell_angle_alpha   108.24789179
_cell_angle_beta   89.99991292
_cell_angle_gamma   89.99927186
_symmetry_Int_Tables_number   1
_chemical_formula_structural   CdH14C13(NCl)2
_chemical_formula_sum   'Cd2 H28 C26 N4 Cl4'
_cell_volume   651.90310388
_cell_formula_units_Z   2
loop_
 _symmetry_equiv_pos_site_id
 _symmetry_equiv_pos_as_xyz
  1  'x, y, z'
loop_
 _atom_site_type_symbol
 _atom_site_label
 _atom_site_symmetry_multiplicity
 _atom_site_fract_x
 _atom_site_fract_y
 _atom_site_fract_z
 _atom_site_occupancy
 _atom_site_hle17_bader_spin_density
 _atom_site_hle17_ddec_charge
 _atom_site_hle17_ddec_spin_density
 _atom_site_hle17_ddec_sum_bond_order
 _atom_site_hle17_magmom
 _atom_site_hse06_10hf_bader_spin_density
 _atom_site_hse06_10hf_ddec_charge
 _atom_site_hse06_10hf_ddec_spin_density
 _atom_site_hse06_10hf_ddec_sum_bond_order
 _atom_site_hse06_10hf_magmom
 _atom_site_hse06_bader_spin_density
 _atom_site_hse06_ddec_charge
 _atom_site_hse06_ddec_spin_density
 _atom_site_hse06_ddec_sum_bond_order
 _atom_site_hse06_magmom
 _atom_site_pbe_bader_spin_density
 _atom_site_pbe_cm5_charge
 _atom_site_pbe_ddec_charge
 _atom_site_pbe_ddec_spin_density
 _atom_site_pbe_ddec_sum_bond_order
 _atom_site_pbe_magmom
Cd  Cd0  1  0.04968282  0.24999974  0.49999974  1  0  0.989016  0  1.792727  0  0  0.821243  0  2.235732  0  0  0.867446  0  2.194887  0  0  0.612766  0.788876  0  2.263376  0
Cd  Cd1  1  0.95031527  0.75000250  0.50000162  1  0  0.989035  0  1.792681  0  0  0.821263  0  2.235671  0  0  0.867467  0  2.194821  0  0  0.61277  0.788901  0  2.263322  0
H  H2  1  0.28847838  0.11496551  0.61623247  1  0  0.310729  0  0.911039  0  0  0.296191  0  0.974293  0  0  0.302374  0  0.970331  0  0  0.277233  0.291744  0  0.977181  0
H  H3  1  0.28846709  0.38503359  0.38376606  1  0  0.310781  0  0.910986  0  0  0.296252  0  0.974213  0  0  0.302437  0  0.970244  0  0  0.277271  0.291805  0  0.977098  0
H  H4  1  0.71152443  0.88503938  0.38376890  1  0  0.310748  0  0.910965  0  0  0.296213  0  0.974198  0  0  0.3024  0  0.970243  0  0  0.277222  0.291766  0  0.977082  0
H  H5  1  0.71153807  0.61496337  0.61623234  1  0  0.310811  0  0.910941  0  0  0.296261  0  0.974204  0  0  0.302449  0  0.97025  0  0  0.277233  0.291815  0  0.977091  0
H  H6  1  0.40025988  0.25517435  0.66517736  1  0  0.298462  0  0.918084  0  0  0.285529  0  0.979091  0  0  0.290578  0  0.977232  0  0  0.283106  0.281924  0  0.98045  0
H  H7  1  0.40025375  0.24482594  0.33481924  1  0  0.298456  0  0.918133  0  0  0.285535  0  0.979102  0  0  0.290583  0  0.97724  0  0  0.283133  0.281919  0  0.980489  0
H  H8  1  0.59973586  0.74483054  0.33482401  1  0  0.298479  0  0.918018  0  0  0.285552  0  0.97901  0  0  0.290601  0  0.977152  0  0  0.283095  0.281937  0  0.980398  0
H  H9  1  0.59975377  0.75517189  0.66518014  1  0  0.298473  0  0.91805  0  0  0.285542  0  0.979067  0  0  0.29059  0  0.977209  0  0  0.28313  0.281938  0  0.980427  0
H  H10  1  0.05165623  0.40393392  0.79123950  1  0  0.099909  0  0.970212  0  0  0.112253  0  1.032346  0  0  0.114539  0  1.032073  0  0  0.099039  0.110602  0  1.032671  0
H  H11  1  0.05164413  0.09606820  0.20876000  1  0  0.099963  0  0.970126  0  0  0.112316  0  1.032232  0  0  0.114603  0  1.031958  0  0  0.09906  0.110665  0  1.032555  0
H  H12  1  0.94832065  0.59607010  0.20875942  1  0  0.09994  0  0.97012  0  0  0.112256  0  1.032287  0  0  0.114543  0  1.032016  0  0  0.099032  0.110606  0  1.032613  0
H  H13  1  0.94834925  0.90393053  0.79123743  1  0  0.099984  0  0.970159  0  0  0.112317  0  1.03229  0  0  0.114603  0  1.032018  0  0  0.099077  0.110666  0  1.032616  0
H  H14  1  0.70937774  0.42458135  0.94376271  1  0  0.082037  0  0.953816  0  0  0.095955  0  1.013632  0  0  0.09864  0  1.012069  0  0  0.096072  0.094015  0  1.014829  0
H  H15  1  0.70938120  0.07542525  0.05623478  1  0  0.082059  0  0.953806  0  0  0.095958  0  1.01365  0  0  0.098639  0  1.012094  0  0  0.096069  0.094021  0  1.014845  0
H  H16  1  0.29058972  0.57542004  0.05623399  1  0  0.082054  0  0.953724  0  0  0.095942  0  1.013589  0  0  0.098624  0  1.012028  0  0  0.096057  0.094003  0  1.01479  0
H  H17  1  0.29061218  0.92457611  0.94376486  1  0  0.081975  0  0.953858  0  0  0.095923  0  1.013653  0  0  0.098602  0  1.0121  0  0  0.096065  0.093988  0  1.014844  0
H  H18  1  0.54404572  0.05019100  0.83989327  1  0  0.084251  0  0.96152  0  0  0.094675  0  1.028353  0  0  0.097018  0  1.027556  0  0  0.094452  0.092998  0  1.028931  0
H  H19  1  0.54403789  0.44981643  0.16010970  1  0  0.084298  0  0.961808  0  0  0.094764  0  1.028567  0  0  0.0971  0  1.027811  0  0  0.094537  0.093089  0  1.029156  0
H  H20  1  0.45597122  0.94980592  0.16010955  1  0  0.084261  0  0.961645  0  0  0.094729  0  1.028427  0  0  0.097072  0  1.027646  0  0  0.094483  0.093051  0  1.029008  0
H  H21  1  0.45596491  0.55018314  0.83989239  1  0  0.08426  0  0.961804  0  0  0.094723  0  1.028577  0  0  0.09706  0  1.027816  0  0  0.0945  0.093047  0  1.029163  0
H  H22  1  0.89765159  0.02898417  0.68935039  1  0  0.099471  0  0.989106  0  0  0.107713  0  1.05745  0  0  0.110676  0  1.05577  0  0  0.085912  0.105514  0  1.058852  0
H  H23  1  0.89763762  0.47101961  0.31065360  1  0  0.099515  0  0.98899  0  0  0.107717  0  1.057375  0  0  0.110683  0  1.05569  0  0  0.085912  0.105518  0  1.058775  0
H  H24  1  0.10236299  0.97101981  0.31065367  1  0  0.099495  0  0.989027  0  0  0.107725  0  1.057385  0  0  0.110685  0  1.055711  0  0  0.085918  0.105526  0  1.058782  0
H  H25  1  0.10237461  0.52897997  0.68934849  1  0  0.099501  0  0.98906  0  0  0.107733  0  1.057397  0  0  0.110685  0  1.055727  0  0  0.085908  0.105532  0  1.058799  0
H  H26  1  0.25382211  0.32718856  0.01517357  1  0  0.083403  0  0.946234  0  0  0.099498  0  1.010355  0  0  0.100212  0  1.011051  0  0  0.092752  0.098943  0  1.009937  0
H  H27  1  0.25382731  0.17282572  0.98482851  1  0  0.083236  0  0.946221  0  0  0.099372  0  1.010311  0  0  0.100053  0  1.011041  0  0  0.092692  0.098785  0  1.00993  0
H  H28  1  0.74617127  0.67280925  0.98482802  1  0  0.083404  0  0.946212  0  0  0.099509  0  1.010332  0  0  0.100216  0  1.011036  0  0  0.092748  0.098948  0  1.009921  0
H  H29  1  0.74618256  0.82717209  0.01517308  1  0  0.08329  0  0.946115  0  0  0.099411  0  1.010226  0  0  0.100108  0  1.010944  0  0  0.092694  0.098828  0  1.009837  0
C  C30  1  0.00302925  0.21423390  0.73183323  1  0  0.270916  0  3.797794  0  0  0.268363  0  4.04132  0  0  0.274795  0  4.064119  0  0  0.074467  0.263866  0  4.025917  0
C  C31  1  0.00301492  0.28576846  0.26816783  1  0  0.271048  0  3.797646  0  0  0.268436  0  4.041236  0  0  0.27487  0  4.064021  0  0  0.074498  0.263942  0  4.02582  0
C  C32  1  0.99697591  0.78576745  0.26816788  1  0  0.271078  0  3.797577  0  0  0.268474  0  4.041151  0  0  0.27491  0  4.063948  0  0  0.074494  0.263978  0  4.025736  0
C  C33  1  0.99698553  0.71422849  0.73183057  1  0  0.27103  0  3.797731  0  0  0.268465  0  4.041273  0  0  0.274901  0  4.064066  0  0  0.074503  0.263967  0  4.02587  0
C  C34  1  0.94314999  0.32605507  0.80245204  1  0  -0.172785  0  3.752427  0  0  -0.19115  0  4.003764  0  0  -0.195073  0  4.024599  0  0  -0.103857  -0.188479  0  3.989739  0
C  C35  1  0.94313991  0.17394673  0.19754842  1  0  -0.172793  0  3.752419  0  0  -0.191137  0  4.003781  0  0  -0.195057  0  4.024612  0  0  -0.103877  -0.188464  0  3.989748  0
C  C36  1  0.05684104  0.67394895  0.19754687  1  0  -0.172815  0  3.752446  0  0  -0.191144  0  4.003805  0  0  -0.195069  0  4.024639  0  0  -0.103862  -0.18847  0  3.989775  0
C  C37  1  0.05685583  0.82605022  0.80245072  1  0  -0.172814  0  3.752423  0  0  -0.191163  0  4.003794  0  0  -0.195087  0  4.024631  0  0  -0.103867  -0.188493  0  3.989776  0
C  C38  1  0.74895527  0.33714157  0.88800773  1  0  -0.113964  0  3.768924  0  0  -0.132192  0  4.017557  0  0  -0.133775  0  4.038216  0  0  -0.09635  -0.130984  0  4.003498  0
C  C39  1  0.74894833  0.16286212  0.11199483  1  0  -0.114097  0  3.768995  0  0  -0.132354  0  4.017635  0  0  -0.133936  0  4.038288  0  0  -0.096406  -0.13115  0  4.003573  0
C  C40  1  0.25102869  0.66285802  0.11199215  1  0  -0.113994  0  3.768817  0  0  -0.132205  0  4.017447  0  0  -0.133786  0  4.038102  0  0  -0.096322  -0.131002  0  4.003391  0
C  C41  1  0.25105683  0.83713482  0.88800431  1  0  -0.113984  0  3.76899  0  0  -0.13228  0  4.017626  0  0  -0.133862  0  4.038282  0  0  -0.096394  -0.131075  0  4.003565  0
C  C42  1  0.60709928  0.23843984  0.90460034  1  0  0.087702  0  3.755863  0  0  0.108356  0  3.992003  0  0  0.107424  0  4.017397  0  0  -0.015732  0.108935  0  3.974743  0
C  C43  1  0.60710073  0.26156991  0.09540251  1  0  0.087732  0  3.755848  0  0  0.108479  0  3.991865  0  0  0.107549  0  4.017258  0  0  -0.015695  0.109057  0  3.974608  0
C  C44  1  0.39289174  0.76156242  0.09539881  1  0  0.087691  0  3.755875  0  0  0.108365  0  3.99201  0  0  0.107435  0  4.017409  0  0  -0.015699  0.108946  0  3.974745  0
C  C45  1  0.39290914  0.73843145  0.90459713  1  0  0.087715  0  3.755926  0  0  0.108472  0  3.99194  0  0  0.107545  0  4.017334  0  0  -0.015663  0.109051  0  3.974683  0
C  C46  1  0.66059254  0.12808861  0.83112037  1  0  -0.108475  0  3.754096  0  0  -0.128149  0  4.003061  0  0  -0.129773  0  4.024279  0  0  -0.096579  -0.126915  0  3.988639  0
C  C47  1  0.66058270  0.37191909  0.16888115  1  0  -0.108478  0  3.754438  0  0  -0.128216  0  4.003336  0  0  -0.129853  0  4.024557  0  0  -0.096638  -0.126991  0  3.988927  0
C  C48  1  0.33941733  0.87191187  0.16887902  1  0  -0.108484  0  3.754178  0  0  -0.128209  0  4.003138  0  0  -0.129841  0  4.024363  0  0  -0.096645  -0.126976  0  3.988709  0
C  C49  1  0.33942010  0.62808051  0.83111726  1  0  -0.108521  0  3.754512  0  0  -0.128262  0  4.003415  0  0  -0.129897  0  4.024628  0  0  -0.096676  -0.127035  0  3.989001  0
C  C50  1  0.85648841  0.11550395  0.74572477  1  0  -0.164761  0  3.738774  0  0  -0.182598  0  3.98798  0  0  -0.18653  0  4.008163  0  0  -0.106741  -0.179923  0  3.974464  0
C  C51  1  0.85647773  0.38450096  0.25427513  1  0  -0.16484  0  3.738442  0  0  -0.182616  0  3.987677  0  0  -0.186539  0  4.007841  0  0  -0.106723  -0.179942  0  3.974162  0
C  C52  1  0.14351675  0.88449918  0.25427463  1  0  -0.164845  0  3.738392  0  0  -0.182677  0  3.987674  0  0  -0.186594  0  4.007834  0  0  -0.106749  -0.179999  0  3.974151  0
C  C53  1  0.14352978  0.61549598  0.74572475  1  0  -0.164735  0  3.738589  0  0  -0.18255  0  3.987798  0  0  -0.186465  0  4.007975  0  0  -0.106689  -0.179874  0  3.974287  0
C  C54  1  0.40902393  0.25000591  0.00000074  1  0  -0.194427  0  3.742532  0  0  -0.244  0  3.980367  0  0  -0.244742  0  3.993586  0  0  -0.158021  -0.243251  0  3.97132  0
C  C55  1  0.59097652  0.74999368  0.99999914  1  0  -0.194462  0  3.742495  0  0  -0.244029  0  3.980291  0  0  -0.244785  0  3.99353  0  0  -0.158029  -0.243277  0  3.971242  0
N  N56  1  0.20850280  0.20040673  0.64545715  1  0  -0.663522  0  3.184955  0  0  -0.599303  0  3.409642  0  0  -0.621305  0  3.411694  0  0  -0.610292  -0.583901  0  3.40796  0
N  N57  1  0.20849465  0.29959279  0.35454154  1  0  -0.663627  0  3.184927  0  0  -0.599397  0  3.409652  0  0  -0.621426  0  3.411768  0  0  -0.610371  -0.583998  0  3.407958  0
N  N58  1  0.79150001  0.79959728  0.35454397  1  0  -0.66367  0  3.184854  0  0  -0.599404  0  3.409508  0  0  -0.621417  0  3.411559  0  0  -0.610288  -0.584013  0  3.407848  0
N  N59  1  0.79151051  0.70040239  0.64545710  1  0  -0.663692  0  3.184979  0  0  -0.599475  0  3.409663  0  0  -0.621493  0  3.411726  0  0  -0.610338  -0.584069  0  3.407983  0
Cl  Cl60  1  0.61415946  0.09780661  0.42259436  1  0  -0.590607  0  0.927957  0  0  -0.523749  0  1.199651  0  0  -0.541109  0  1.179318  0  0  -0.300852  -0.511114  0  1.213519  0
Cl  Cl61  1  0.61416082  0.40219252  0.57740550  1  0  -0.590607  0  0.927973  0  0  -0.523737  0  1.199664  0  0  -0.541095  0  1.179328  0  0  -0.300841  -0.511108  0  1.213537  0
Cl  Cl62  1  0.38584099  0.90219297  0.57740773  1  0  -0.590608  0  0.927951  0  0  -0.523747  0  1.199642  0  0  -0.541108  0  1.179308  0  0  -0.300855  -0.51111  0  1.213512  0
Cl  Cl63  1  0.38584198  0.59780708  0.42259438  1  0  -0.590601  0  0.927919  0  0  -0.523738  0  1.199603  0  0  -0.541096  0  1.179268  0  0  -0.300847  -0.511098  0  1.213472  0
