# generated using pymatgen
data_HgH5C6SO2
_symmetry_space_group_name_H-M   'P 1'
_cell_length_a   5.18687719
_cell_length_b   8.36753622
_cell_length_c   17.07580439
_cell_angle_alpha   98.85005403
_cell_angle_beta   89.99937387
_cell_angle_gamma   89.99927825
_symmetry_Int_Tables_number   1
_chemical_formula_structural   HgH5C6SO2
_chemical_formula_sum   'Hg4 H20 C24 S4 O8'
_cell_volume   732.29008771
_cell_formula_units_Z   4
loop_
 _symmetry_equiv_pos_site_id
 _symmetry_equiv_pos_as_xyz
  1  'x, y, z'
loop_
 _atom_site_type_symbol
 _atom_site_label
 _atom_site_symmetry_multiplicity
 _atom_site_fract_x
 _atom_site_fract_y
 _atom_site_fract_z
 _atom_site_occupancy
 _atom_site_hle17_bader_spin_density
 _atom_site_hle17_ddec_charge
 _atom_site_hle17_ddec_spin_density
 _atom_site_hle17_ddec_sum_bond_order
 _atom_site_hle17_magmom
 _atom_site_hse06_10hf_bader_charge
 _atom_site_hse06_10hf_bader_spin_density
 _atom_site_hse06_10hf_ddec_charge
 _atom_site_hse06_10hf_ddec_spin_density
 _atom_site_hse06_10hf_ddec_sum_bond_order
 _atom_site_hse06_10hf_magmom
 _atom_site_hse06_bader_spin_density
 _atom_site_hse06_ddec_charge
 _atom_site_hse06_ddec_spin_density
 _atom_site_hse06_ddec_sum_bond_order
 _atom_site_hse06_magmom
 _atom_site_pbe_bader_spin_density
 _atom_site_pbe_cm5_charge
 _atom_site_pbe_ddec_charge
 _atom_site_pbe_ddec_spin_density
 _atom_site_pbe_ddec_sum_bond_order
 _atom_site_pbe_magmom
Hg  Hg0  1  0.23453246  0.13016982  0.23638609  1  0  0.780215  0  1.824288  0  0.792168  0  0.651362  0  2.232946  0  0  0.693249  0  2.206391  0  0  0.55995  0.622353  0  2.251013  0
Hg  Hg1  1  0.73451311  0.36982950  0.76361467  1  0  0.780236  0  1.824253  0  0.792177  0  0.651395  0  2.232929  0  0  0.693284  0  2.206371  0  0  0.559978  0.622384  0  2.250997  0
Hg  Hg2  1  0.76546884  0.86982786  0.76361739  1  0  0.780253  0  1.824268  0  0.792162  0  0.65142  0  2.232937  0  0  0.693306  0  2.206378  0  0  0.559963  0.62241  0  2.251003  0
Hg  Hg3  1  0.26546506  0.63017667  0.23638771  1  0  0.780199  0  1.824289  0  0.792175  0  0.651349  0  2.232945  0  0  0.693237  0  2.206389  0  0  0.559956  0.622339  0  2.251013  0
H  H4  1  0.76255976  0.39203531  0.27310304  1  0  0.104397  0  0.968317  0  0.095402  0  0.117087  0  1.029515  0  0  0.118564  0  1.029361  0  0  0.092843  0.115913  0  1.029779  0
H  H5  1  0.26255424  0.10795643  0.72690466  1  0  0.104368  0  0.968288  0  0.095321  0  0.117025  0  1.029519  0  0  0.1185  0  1.029365  0  0  0.092834  0.115852  0  1.029782  0
H  H6  1  0.23746275  0.60796358  0.72690112  1  0  0.104345  0  0.968328  0  0.095218  0  0.11705  0  1.029524  0  0  0.118527  0  1.029369  0  0  0.09285  0.115873  0  1.029786  0
H  H7  1  0.73743164  0.89204247  0.27309716  1  0  0.104435  0  0.968387  0  0.095373  0  0.11712  0  1.029552  0  0  0.118595  0  1.029399  0  0  0.09285  0.115945  0  1.029814  0
H  H8  1  0.66934908  0.57535579  0.40901999  1  0  0.102575  0  0.986538  0  0.079706  0  0.109541  0  1.056972  0  0  0.111899  0  1.05665  0  0  0.088701  0.107846  0  1.057248  0
H  H9  1  0.16933041  0.92464958  0.59098958  1  0  0.102602  0  0.986567  0  0.07965  0  0.109557  0  1.057019  0  0  0.111929  0  1.056685  0  0  0.088702  0.107858  0  1.057299  0
H  H10  1  0.33068500  0.42465763  0.59098353  1  0  0.102659  0  0.986694  0  0.079636  0  0.109631  0  1.057098  0  0  0.111999  0  1.056765  0  0  0.088687  0.107932  0  1.057377  0
H  H11  1  0.83067282  0.07534690  0.40901380  1  0  0.102569  0  0.986512  0  0.079717  0  0.109536  0  1.056947  0  0  0.111908  0  1.056611  0  0  0.088659  0.107837  0  1.057226  0
H  H12  1  0.93594402  0.91883972  0.05026461  1  0  0.141833  0  0.954877  0  0.090282  0  0.159307  0  1.016085  0  0  0.161557  0  1.015533  0  0  0.096929  0.15768  0  1.016519  0
H  H13  1  0.43591176  0.58112713  0.94971885  1  0  0.141923  0  0.954761  0  0.090215  0  0.159358  0  1.016021  0  0  0.161611  0  1.015465  0  0  0.096907  0.157733  0  1.016453  0
H  H14  1  0.06405535  0.08115322  0.94972679  1  0  0.141872  0  0.954798  0  0.090431  0  0.159307  0  1.016062  0  0  0.161558  0  1.015506  0  0  0.096902  0.157678  0  1.016499  0
H  H15  1  0.56407411  0.41886214  0.05027754  1  0  0.14186  0  0.954864  0  0.090397  0  0.159321  0  1.016078  0  0  0.161573  0  1.015521  0  0  0.096946  0.157692  0  1.016515  0
H  H16  1  0.62527472  0.87744876  0.00443857  1  0  0.138883  0  0.952739  0  0.058947  0  0.158972  0  1.011333  0  0  0.160881  0  1.011401  0  0  0.099134  0.15759  0  1.011322  0
H  H17  1  0.12525732  0.62253776  0.99555623  1  0  0.138869  0  0.952587  0  0.059059  0  0.158928  0  1.011216  0  0  0.160834  0  1.011286  0  0  0.099076  0.157538  0  1.01122  0
H  H18  1  0.37471695  0.12254295  0.99555449  1  0  0.138858  0  0.952646  0  0.059104  0  0.158941  0  1.011264  0  0  0.160842  0  1.011349  0  0  0.099144  0.157559  0  1.011256  0
H  H19  1  0.87473627  0.37746356  0.00444636  1  0  0.138884  0  0.952554  0  0.059053  0  0.158918  0  1.011219  0  0  0.160822  0  1.011295  0  0  0.099117  0.157534  0  1.011209  0
H  H20  1  0.73868397  0.75779558  0.07401999  1  0  0.15009  0  0.961115  0  0.099144  0  0.170096  0  1.01803  0  0  0.172305  0  1.017943  0  0  0.101396  0.16851  0  1.018125  0
H  H21  1  0.23867627  0.74219355  0.92597404  1  0  0.150235  0  0.960959  0  0.099309  0  0.170216  0  1.017883  0  0  0.172425  0  1.017795  0  0  0.101429  0.168627  0  1.017977  0
H  H22  1  0.26130577  0.24219976  0.92597393  1  0  0.150175  0  0.961086  0  0.099127  0  0.17014  0  1.018034  0  0  0.172349  0  1.017947  0  0  0.101419  0.168552  0  1.018131  0
H  H23  1  0.76132118  0.25780899  0.07402747  1  0  0.150211  0  0.961006  0  0.099218  0  0.170162  0  1.017955  0  0  0.172371  0  1.017867  0  0  0.10141  0.168575  0  1.018049  0
C  C24  1  0.09115774  0.29102687  0.32851617  1  0  -0.342458  0  3.77081  0  -0.371278  0  -0.289783  0  4.083081  0  0  -0.305792  0  4.11458  0  0  -0.14913  -0.279002  0  4.061662  0
C  C25  1  0.59114112  0.20895557  0.67148786  1  0  -0.342475  0  3.770818  0  -0.370633  0  -0.289811  0  4.083098  0  0  -0.305822  0  4.114596  0  0  -0.149095  -0.279029  0  4.061677  0
C  C26  1  0.90886284  0.70896113  0.67148773  1  0  -0.342496  0  3.770755  0  -0.37091  0  -0.28984  0  4.083075  0  0  -0.305848  0  4.114572  0  0  -0.149101  -0.279057  0  4.061649  0
C  C27  1  0.40884476  0.79104696  0.32851541  1  0  -0.342462  0  3.770799  0  -0.370879  0  -0.289792  0  4.083069  0  0  -0.305801  0  4.114568  0  0  -0.149113  -0.279011  0  4.061649  0
C  C28  1  0.87862480  0.39083850  0.32602674  1  0  -0.100057  0  3.895028  0  -0.041727  0  -0.122604  0  4.147719  0  0  -0.12354  0  4.175109  0  0  -0.132808  -0.121956  0  4.129124  0
C  C29  1  0.37861923  0.10915827  0.67397862  1  0  -0.099863  0  3.895218  0  -0.042456  0  -0.122378  0  4.147908  0  0  -0.123307  0  4.175295  0  0  -0.132733  -0.121728  0  4.129307  0
C  C30  1  0.12139578  0.60915920  0.67397557  1  0  -0.099939  0  3.895378  0  -0.042125  0  -0.12248  0  4.148007  0  0  -0.123414  0  4.175397  0  0  -0.132764  -0.12183  0  4.129402  0
C  C31  1  0.62137629  0.89084671  0.32602132  1  0  -0.100081  0  3.895338  0  -0.042422  0  -0.122624  0  4.14805  0  0  -0.123557  0  4.175442  0  0  -0.132821  -0.121975  0  4.129449  0
C  C32  1  0.82704232  0.48853708  0.39971034  1  0  -0.136948  0  3.773478  0  0.052789  0  -0.157041  0  4.030384  0  0  -0.159304  0  4.050262  0  0  -0.123057  -0.155263  0  4.016644  0
C  C33  1  0.32702210  0.01146254  0.60029834  1  0  -0.137058  0  3.773118  0  0.052895  0  -0.157071  0  4.029955  0  0  -0.159343  0  4.049826  0  0  -0.123096  -0.155288  0  4.016214  0
C  C34  1  0.17299176  0.51146664  0.60029419  1  0  -0.137157  0  3.773634  0  0.052567  0  -0.157162  0  4.030418  0  0  -0.159434  0  4.050291  0  0  -0.123088  -0.15538  0  4.016674  0
C  C35  1  0.67297342  0.98853636  0.39970465  1  0  -0.136909  0  3.773211  0  0.052958  0  -0.15698  0  4.030084  0  0  -0.159251  0  4.049953  0  0  -0.122985  -0.155197  0  4.016342  0
C  C36  1  0.99718821  0.46221962  0.45914513  1  0  -0.028051  0  3.827305  0  -0.24853  0  -0.017343  0  4.091342  0  0  -0.015721  0  4.111782  0  0  -0.031629  -0.018407  0  4.077369  0
C  C37  1  0.49719466  0.03778576  0.54085933  1  0  -0.028035  0  3.826853  0  -0.192387  0  -0.01744  0  4.091063  0  0  -0.015838  0  4.111548  0  0  -0.031678  -0.018505  0  4.077098  0
C  C38  1  0.00283623  0.53778410  0.54085999  1  0  -0.02796  0  3.826885  0  -0.192043  0  -0.017391  0  4.091102  0  0  -0.015777  0  4.111567  0  0  -0.031676  -0.018458  0  4.077139  0
C  C39  1  0.50281436  0.96221555  0.45914443  1  0  -0.028178  0  3.827065  0  -0.248617  0  -0.017488  0  4.091162  0  0  -0.015876  0  4.111634  0  0  -0.031716  -0.018553  0  4.077192  0
C  C40  1  0.61465227  0.98978952  0.12688472  1  0  0.72579  0  3.82883  0  1.57557  0  0.686477  0  4.118306  0  0  0.720754  0  4.111682  0  0  0.20394  0.663132  0  4.121998  0
C  C41  1  0.11458565  0.51022492  0.87311227  1  0  0.725685  0  3.828658  0  1.575292  0  0.686388  0  4.118162  0  0  0.720672  0  4.111534  0  0  0.20394  0.663038  0  4.121851  0
C  C42  1  0.38536060  0.01021791  0.87311131  1  0  0.725772  0  3.828668  0  1.575048  0  0.686513  0  4.118075  0  0  0.720793  0  4.111447  0  0  0.204118  0.663164  0  4.121767  0
C  C43  1  0.88537710  0.48978608  0.12689107  1  0  0.725432  0  3.82903  0  1.575315  0  0.686022  0  4.118679  0  0  0.720291  0  4.112075  0  0  0.203846  0.662675  0  4.122366  0
C  C44  1  0.73779035  0.88056364  0.05893161  1  0  -0.460325  0  3.642328  0  -0.107751  0  -0.534685  0  3.867174  0  0  -0.542762  0  3.871275  0  0  -0.249233  -0.528958  0  3.864251  0
C  C45  1  0.23775762  0.61942070  0.94105737  1  0  -0.460467  0  3.642124  0  -0.107909  0  -0.534681  0  3.866945  0  0  -0.542758  0  3.871039  0  0  -0.249124  -0.528951  0  3.864036  0
C  C46  1  0.26220517  0.11943534  0.94106142  1  0  -0.460375  0  3.642201  0  -0.107854  0  -0.534662  0  3.867072  0  0  -0.54274  0  3.871169  0  0  -0.249266  -0.528937  0  3.864163  0
C  C47  1  0.76222633  0.38057702  0.05894142  1  0  -0.46031  0  3.642184  0  -0.108006  0  -0.534485  0  3.867024  0  0  -0.542557  0  3.871125  0  0  -0.249173  -0.528755  0  3.864106  0
S  S48  1  0.22342999  0.31681193  0.42211655  1  0  0.153162  0  2.731954  0  0.230284  0  0.159214  0  3.067562  0  0  0.156554  0  3.084321  0  0  0.0774  0.160784  0  3.056275  0
S  S49  1  0.72340955  0.18317419  0.57788206  1  0  0.153192  0  2.731986  0  0.230323  0  0.159255  0  3.06767  0  0  0.156603  0  3.084436  0  0  0.077412  0.160824  0  3.056384  0
S  S50  1  0.77658866  0.68318455  0.57788625  1  0  0.153225  0  2.731759  0  0.230369  0  0.159305  0  3.067407  0  0  0.156646  0  3.084166  0  0  0.077413  0.160871  0  3.056124  0
S  S51  1  0.27657826  0.81682230  0.42211898  1  0  0.153273  0  2.731969  0  0.230428  0  0.159355  0  3.067551  0  0  0.1567  0  3.084313  0  0  0.077467  0.160923  0  3.056267  0
O  O52  1  0.36759230  0.96563724  0.13719923  1  0  -0.587831  0  1.985069  0  -1.112329  0  -0.510834  0  2.238697  0  0  -0.542212  0  2.228772  0  0  -0.31385  -0.489174  0  2.244803  0
O  O53  1  0.86755309  0.53437497  0.86278855  1  0  -0.587785  0  1.985272  0  -1.112693  0  -0.510846  0  2.238979  0  0  -0.542219  0  2.22904  0  0  -0.313928  -0.48919  0  2.245091  0
O  O54  1  0.63241093  0.03437508  0.86278957  1  0  -0.58778  0  1.985342  0  -1.112324  0  -0.510829  0  2.238996  0  0  -0.542204  0  2.229065  0  0  -0.313921  -0.489172  0  2.245106  0
O  O55  1  0.13242314  0.46563241  0.13721216  1  0  -0.587742  0  1.985405  0  -1.11239  0  -0.510741  0  2.239118  0  0  -0.542112  0  2.229189  0  0  -0.313901  -0.489081  0  2.245225  0
O  O56  1  0.73970308  0.09580217  0.17085902  1  0  -0.641335  0  1.975434  0  -1.220723  0  -0.579818  0  2.211466  0  0  -0.606479  0  2.201686  0  0  -0.320594  -0.561094  0  2.217466  0
O  O57  1  0.23966085  0.40417660  0.82913253  1  0  -0.641371  0  1.975044  0  -1.220094  0  -0.579865  0  2.211106  0  0  -0.606541  0  2.201333  0  0  -0.32061  -0.561134  0  2.217103  0
O  O58  1  0.26031365  0.90418347  0.82913709  1  0  -0.641422  0  1.975217  0  -1.220381  0  -0.579933  0  2.211265  0  0  -0.6066  0  2.201485  0  0  -0.32069  -0.561204  0  2.217262  0
O  O59  1  0.76031925  0.59581748  0.17086774  1  0  -0.641205  0  1.975236  0  -1.220367  0  -0.57966  0  2.211336  0  0  -0.606325  0  2.201571  0  0  -0.320536  -0.560931  0  2.217331  0
