# generated using pymatgen
data_TbH15C26(NO5)2
_symmetry_space_group_name_H-M   'P 1'
_cell_length_a   7.65374083
_cell_length_b   10.63439454
_cell_length_c   14.37500000
_cell_angle_alpha   75.80821133
_cell_angle_beta   84.59806482
_cell_angle_gamma   75.91305545
_symmetry_Int_Tables_number   1
_chemical_formula_structural   TbH15C26(NO5)2
_chemical_formula_sum   'Tb2 H30 C52 N4 O20'
_cell_volume   1099.46330983
_cell_formula_units_Z   2
loop_
 _symmetry_equiv_pos_site_id
 _symmetry_equiv_pos_as_xyz
  1  'x, y, z'
loop_
 _atom_site_type_symbol
 _atom_site_label
 _atom_site_symmetry_multiplicity
 _atom_site_fract_x
 _atom_site_fract_y
 _atom_site_fract_z
 _atom_site_occupancy
 _atom_site_hle17_bader_spin_density
 _atom_site_hle17_ddec_charge
 _atom_site_hle17_ddec_spin_density
 _atom_site_hle17_ddec_sum_bond_order
 _atom_site_hle17_magmom
 _atom_site_hse06_10hf_bader_spin_density
 _atom_site_hse06_10hf_ddec_charge
 _atom_site_hse06_10hf_ddec_spin_density
 _atom_site_hse06_10hf_ddec_sum_bond_order
 _atom_site_hse06_10hf_magmom
 _atom_site_hse06_bader_spin_density
 _atom_site_hse06_ddec_charge
 _atom_site_hse06_ddec_spin_density
 _atom_site_hse06_ddec_sum_bond_order
 _atom_site_hse06_magmom
 _atom_site_pbe_bader_charge
 _atom_site_pbe_bader_spin_density
 _atom_site_pbe_cm5_charge
 _atom_site_pbe_ddec_charge
 _atom_site_pbe_ddec_spin_density
 _atom_site_pbe_ddec_sum_bond_order
 _atom_site_pbe_magmom
Tb  Tb0  1  0.19662701  0.08718272  0.33626772  1  0  2.260781  0  1.666985  0  0  2.123826  0  2.134013  0  0  2.238335  0  1.965478  0  2.198927  0  1.51776  2.085948  0  2.168768  0
Tb  Tb1  1  0.80337149  0.91281787  0.66373184  1  0  2.260784  0  1.666984  0  0  2.123794  0  2.134067  0  0  2.238335  0  1.965476  0  2.198921  0  1.517756  2.085911  0  2.168831  0
H  H2  1  0.50146328  0.23092846  0.10750093  1  0  0.394143  0  0.931978  0  0  0.363532  0  0.997652  0  0  0.376807  0  0.979365  0  0.647976  0  0.295063  0.354495  0  1.009996  0
H  H3  1  0.49853553  0.76907113  0.89249949  1  0  0.394197  0  0.931904  0  0  0.363584  0  0.997576  0  0  0.37686  0  0.979288  0  0.647994  0  0.295085  0.354546  0  1.009922  0
H  H4  1  0.85747645  0.04455125  0.90076388  1  0  0.119878  0  0.942384  0  0  0.126885  0  1.003167  0  0  0.131087  0  1.000724  0  0.145107  0  0.11595  0.123896  0  1.004921  0
H  H5  1  0.14252406  0.95545133  0.09923660  1  0  0.119871  0  0.942315  0  0  0.126835  0  1.003148  0  0  0.131037  0  1.000704  0  0.145108  0  0.11592  0.123847  0  1.004901  0
H  H6  1  0.96186330  0.80047688  0.94118144  1  0  0.124651  0  0.95086  0  0  0.135272  0  1.008343  0  0  0.138639  0  1.006576  0  0.116437  0  0.115598  0.132838  0  1.009746  0
H  H7  1  0.03813852  0.19952570  0.05881828  1  0  0.124652  0  0.950887  0  0  0.135276  0  1.008358  0  0  0.138642  0  1.006593  0  0.11642  0  0.11559  0.132842  0  1.00976  0
H  H8  1  0.61587367  0.78704246  0.19690423  1  0  0.120353  0  0.965408  0  0  0.126063  0  1.034791  0  0  0.13009  0  1.03191  0  0.124366  0  0.113261  0.123264  0  1.036627  0
H  H9  1  0.38412776  0.21295713  0.80309535  1  0  0.120379  0  0.965373  0  0  0.126086  0  1.034753  0  0  0.130106  0  1.031895  0  0.124371  0  0.113292  0.123278  0  1.036611  0
H  H10  1  0.12631825  0.64112689  0.07471550  1  0  0.106041  0  0.983505  0  0  0.114048  0  1.04723  0  0  0.117182  0  1.044266  0  0.17532  0  0.124451  0.111708  0  1.049371  0
H  H11  1  0.87368752  0.35887569  0.92528611  1  0  0.106047  0  0.983467  0  0  0.114067  0  1.047186  0  0  0.117208  0  1.044215  0  0.175373  0  0.124442  0.111726  0  1.049328  0
H  H12  1  0.23982520  0.39828828  0.13584156  1  0  0.147572  0  0.929042  0  0  0.160291  0  0.979551  0  0  0.16437  0  0.978261  0  0.102397  0  0.121688  0.157389  0  0.980704  0
H  H13  1  0.76018087  0.60171330  0.86415673  1  0  0.147567  0  0.929105  0  0  0.160265  0  0.979648  0  0  0.164344  0  0.978359  0  0.102287  0  0.121678  0.157389  0  0.980768  0
H  H14  1  0.68472549  0.36539115  0.19766712  1  0  0.140631  0  0.92396  0  0  0.153078  0  0.973611  0  0  0.156804  0  0.973134  0  0.098025  0  0.117867  0.150385  0  0.97414  0
H  H15  1  0.31527857  0.63460844  0.80232955  1  0  0.140599  0  0.924002  0  0  0.153061  0  0.973638  0  0  0.156782  0  0.973159  0  0.097732  0  0.117832  0.150368  0  0.974166  0
H  H16  1  0.58954443  0.61030395  0.12974785  1  0  0.108874  0  0.962799  0  0  0.115388  0  1.028411  0  0  0.11898  0  1.024414  0  0.168249  0  0.125535  0.1128  0  1.031238  0
H  H17  1  0.41046094  0.38969564  0.87025014  1  0  0.10886  0  0.962862  0  0  0.115385  0  1.028446  0  0  0.118978  0  1.024449  0  0.168351  0  0.125545  0.112793  0  1.031277  0
H  H18  1  0.71625953  0.49706236  0.65878942  1  0  0.094692  0  0.990522  0  0  0.104417  0  1.054293  0  0  0.107206  0  1.05268  0  0.114715  0  0.10263  0.102412  0  1.055366  0
H  H19  1  0.28373898  0.50293823  0.34120944  1  0  0.094624  0  0.990587  0  0  0.104393  0  1.054313  0  0  0.107181  0  1.052702  0  0.114891  0  0.10264  0.102388  0  1.055386  0
H  H20  1  0.55930736  0.31478869  0.66610539  1  0  0.126479  0  0.939649  0  0  0.136332  0  1.001096  0  0  0.140419  0  0.998002  0  0.141885  0  0.117086  0.133378  0  1.003397  0
H  H21  1  0.44069276  0.68521090  0.33389495  1  0  0.126437  0  0.939718  0  0  0.13633  0  1.001115  0  0  0.140392  0  0.998056  0  0.141903  0  0.117075  0.133377  0  1.003418  0
H  H22  1  0.08320130  0.61456491  0.56303552  1  0  0.129731  0  0.938244  0  0  0.138499  0  0.999278  0  0  0.142621  0  0.996886  0  0.08832  0  0.116256  0.135531  0  1.001109  0
H  H23  1  0.91679721  0.38543568  0.43696473  1  0  0.129758  0  0.938222  0  0  0.138518  0  0.999258  0  0  0.142647  0  0.996851  0  0.088343  0  0.116271  0.135551  0  1.001089  0
H  H24  1  0.42651351  0.22143919  0.57417813  1  0  0.105146  0  0.965318  0  0  0.110867  0  1.034521  0  0  0.11445  0  1.030611  0  0.166448  0  0.12917  0.108294  0  1.037179  0
H  H25  1  0.57348206  0.77856239  0.42582209  1  0  0.105146  0  0.965289  0  0  0.110841  0  1.034521  0  0  0.114421  0  1.030615  0  0.166457  0  0.129157  0.108272  0  1.037165  0
H  H26  1  0.27556614  0.03411953  0.61154623  1  0  0.160645  0  0.940906  0  0  0.168138  0  0.998724  0  0  0.173139  0  0.996193  0  0.174259  0  0.127528  0.164748  0  1.00039  0
H  H27  1  0.72443368  0.96588106  0.38845464  1  0  0.160642  0  0.940911  0  0  0.168143  0  0.998725  0  0  0.173145  0  0.996188  0  0.174218  0  0.127531  0.164752  0  1.000391  0
H  H28  1  0.83234387  0.27986420  0.74444158  1  0  0.146432  0  0.943181  0  0  0.157139  0  0.999234  0  0  0.161219  0  0.997317  0  0.131818  0  0.118193  0.154317  0  1.00057  0
H  H29  1  0.16765425  0.72013340  0.25555923  1  0  0.146441  0  0.943193  0  0  0.157125  0  0.999275  0  0  0.161204  0  0.99736  0  0.131836  0  0.118178  0.154303  0  1.000612  0
H  H30  1  0.99458121  0.46596146  0.69194945  1  0  0.098402  0  0.961184  0  0  0.108056  0  1.026485  0  0  0.110667  0  1.023937  0  0.141261  0  0.126003  0.105992  0  1.028573  0
H  H31  1  0.00541367  0.53403813  0.30805116  1  0  0.098421  0  0.961201  0  0  0.108062  0  1.026502  0  0  0.110675  0  1.023951  0  0.141461  0  0.125983  0.105997  0  1.028591  0
C  C32  1  0.68609122  0.05679016  0.02663241  1  0  -0.094086  0  3.687035  0  0  -0.081726  0  3.921802  0  0  -0.088177  0  3.945105  0  0.026447  0  -0.010737  -0.077621  0  3.906372  0
C  C33  1  0.31390891  0.94320943  0.97336933  1  0  -0.094187  0  3.687098  0  0  -0.081809  0  3.921836  0  0  -0.088267  0  3.945134  0  0.026425  0  -0.010774  -0.077705  0  3.906404  0
C  C34  1  0.80909613  0.98713304  0.96744657  1  0  -0.043109  0  3.715964  0  0  -0.067056  0  3.97307  0  0  -0.067845  0  3.992679  0  -0.034115  0  -0.071298  -0.066442  0  3.959861  0
C  C35  1  0.19090469  0.01286854  0.03255338  1  0  -0.042969  0  3.715841  0  0  -0.066879  0  3.972927  0  0  -0.067666  0  3.992538  0  -0.034067  0  -0.071207  -0.066264  0  3.959717  0
C  C36  1  0.86736167  0.84935981  0.98991004  1  0  -0.109686  0  3.675991  0  0  -0.137343  0  3.937099  0  0  -0.138903  0  3.954043  0  0.017421  0  -0.073772  -0.13639  0  3.925702  0
C  C37  1  0.13263784  0.15064177  0.01008928  1  0  -0.10977  0  3.676157  0  0  -0.13743  0  3.937261  0  0  -0.138991  0  3.954206  0  0.017407  0  -0.073793  -0.136475  0  3.925863  0
C  C38  1  0.79760079  0.77671037  0.07331374  1  0  0.174878  0  3.759409  0  0  0.16768  0  4.013678  0  0  0.172824  0  4.035721  0  0.209708  0  0.098137  0.16413  0  3.998857  0
C  C39  1  0.20240064  0.22328922  0.92668515  1  0  0.174902  0  3.759406  0  0  0.1677  0  4.01369  0  0  0.172844  0  4.035733  0  0.209711  0  0.098163  0.164152  0  3.998866  0
C  C40  1  0.67351479  0.84249068  0.13249671  1  0  -0.13996  0  3.707032  0  0  -0.175764  0  3.964234  0  0  -0.178689  0  3.984746  0  0.040036  0  -0.080151  -0.17354  0  3.950042  0
C  C41  1  0.32648563  0.15750792  0.86750311  1  0  -0.140014  0  3.707031  0  0  -0.175798  0  3.964235  0  0  -0.17873  0  3.984738  0  0.040037  0  -0.080179  -0.173575  0  3.950041  0
C  C42  1  0.48297499  0.03236314  0.18596733  1  0  0.647522  0  3.889777  0  0  0.599964  0  4.183102  0  0  0.632882  0  4.181831  0  1.545721  0  0.21503  0.577222  0  4.187584  0
C  C43  1  0.51702675  0.96763545  0.81403311  1  0  0.647535  0  3.889841  0  0  0.599977  0  4.183172  0  0  0.632891  0  4.181901  0  1.545706  0  0.215046  0.577234  0  4.187652  0
C  C44  1  0.64026641  0.20611489  0.98706624  1  0  0.633329  0  3.848955  0  0  0.582677  0  4.158141  0  0  0.615284  0  4.149895  0  1.549075  0  0.220137  0.560429  0  4.163375  0
C  C45  1  0.35973109  0.79388470  0.01293493  1  0  0.633296  0  3.849012  0  0  0.582676  0  4.158137  0  0  0.615282  0  4.149892  0  1.549095  0  0.220148  0.560428  0  4.163371  0
C  C46  1  0.03474898  0.57484049  0.09949687  1  0  0.089369  0  3.669775  0  0  0.044213  0  3.931794  0  0  0.055512  0  3.94633  0  0.321359  0  0.044762  0.03739  0  3.921244  0
C  C47  1  0.96525547  0.42516209  0.90050341  1  0  0.089341  0  3.669735  0  0  0.044194  0  3.931729  0  0  0.055486  0  3.946271  0  0.321507  0  0.04473  0.037369  0  3.921188  0
C  C48  1  0.09559695  0.44115188  0.13556728  1  0  -0.245613  0  3.668471  0  0  -0.267322  0  3.93112  0  0  -0.280257  0  3.948242  0  0.02321  0  -0.095431  -0.259167  0  3.919451  0
C  C49  1  0.90440881  0.55885070  0.86443085  1  0  -0.245641  0  3.66863  0  0  -0.26737  0  3.931273  0  0  -0.280305  0  3.948395  0  0.023306  0  -0.095364  -0.259235  0  3.919593  0
C  C50  1  0.97243446  0.35843933  0.17688310  1  0  0.459379  0  3.87209  0  0  0.444683  0  4.138716  0  0  0.469452  0  4.145881  0  0.805808  0  0.124644  0.428588  0  4.134633  0
C  C51  1  0.02757192  0.64156126  0.82311467  1  0  0.459571  0  3.871948  0  0  0.444954  0  4.138441  0  0  0.469724  0  4.145605  0  0.805699  0  0.124736  0.428858  0  4.134365  0
C  C52  1  0.78507628  0.42381516  0.17101594  1  0  -0.232786  0  3.673951  0  0  -0.25186  0  3.930825  0  0  -0.265194  0  3.949192  0  0.044892  0  -0.09228  -0.243047  0  3.918188  0
C  C53  1  0.21493102  0.57618244  0.82898093  1  0  -0.232915  0  3.674072  0  0  -0.252055  0  3.930978  0  0  -0.265382  0  3.949335  0  0.045054  0  -0.092358  -0.243241  0  3.91834  0
C  C54  1  0.73093180  0.55792917  0.13456090  1  0  0.094108  0  3.649775  0  0  0.050484  0  3.907876  0  0  0.062422  0  3.920963  0  0.307305  0  0.045945  0.042662  0  3.898857  0
C  C55  1  0.26907419  0.44206843  0.86543604  1  0  0.094153  0  3.64985  0  0  0.050545  0  3.90794  0  0  0.062486  0  3.921021  0  0.307212  0  0.04601  0.042726  0  3.898921  0
C  C56  1  0.31439321  0.68908232  0.57645565  1  0  -0.023581  0  3.653698  0  0  -0.0094  0  3.883984  0  0  -0.010543  0  3.900621  0  -0.008099  0  0.011318  -0.008411  0  3.871999  0
C  C57  1  0.68560398  0.31091826  0.42354467  1  0  -0.023514  0  3.653623  0  0  -0.009359  0  3.883936  0  0  -0.010497  0  3.900576  0  -0.008096  0  0.011288  -0.008377  0  3.871945  0
C  C58  1  0.49385193  0.65542804  0.60626206  1  0  -0.076764  0  3.699294  0  0  -0.064389  0  3.932775  0  0  -0.070664  0  3.952237  0  -0.0423  0  -0.011401  -0.060054  0  3.918909  0
C  C59  1  0.50614526  0.34457254  0.39373825  1  0  -0.076761  0  3.699259  0  0  -0.06437  0  3.932745  0  0  -0.07065  0  3.952211  0  -0.042363  0  -0.011375  -0.060009  0  3.918847  0
C  C60  1  0.57850222  0.52042738  0.63626432  1  0  -0.045172  0  3.74073  0  0  -0.06822  0  3.989617  0  0  -0.067042  0  4.00921  0  -0.001962  0  -0.081842  -0.068706  0  3.975742  0
C  C61  1  0.42149497  0.47957321  0.36373669  1  0  -0.045052  0  3.740704  0  0  -0.068133  0  3.989596  0  0  -0.066953  0  4.009182  0  -0.002149  0  -0.081822  -0.068627  0  3.975714  0
C  C62  1  0.49127275  0.41904712  0.64043563  1  0  -0.14836  0  3.728939  0  0  -0.174227  0  3.991923  0  0  -0.178628  0  4.011592  0  -0.073374  0  -0.0843  -0.171254  0  3.978453  0
C  C63  1  0.50872475  0.58095248  0.35956624  1  0  -0.148473  0  3.728994  0  0  -0.174379  0  3.99201  0  0  -0.178771  0  4.011685  0  -0.073385  0  -0.084349  -0.171406  0  3.978545  0
C  C64  1  0.31099891  0.45410411  0.61550505  1  0  0.178125  0  3.784866  0  0  0.168518  0  4.040786  0  0  0.174676  0  4.064071  0  0.231442  0  0.096021  0.164554  0  4.024858  0
C  C65  1  0.68900021  0.54589448  0.38449553  1  0  0.178232  0  3.784803  0  0  0.168619  0  4.040724  0  0  0.174801  0  4.063974  0  0.231732  0  0.096013  0.164644  0  4.024808  0
C  C66  1  0.22366231  0.58741315  0.58315817  1  0  -0.163354  0  3.685793  0  0  -0.194213  0  3.939744  0  0  -0.198423  0  3.958546  0  0.049164  0  -0.082361  -0.191465  0  3.926828  0
C  C67  1  0.77633519  0.41258644  0.41684161  1  0  -0.163453  0  3.685821  0  0  -0.194286  0  3.939739  0  0  -0.198506  0  3.958536  0  0.048917  0  -0.082364  -0.191537  0  3.92683  0
C  C68  1  0.20937337  0.82787372  0.53206200  1  0  0.746778  0  3.837606  0  0  0.700954  0  4.127954  0  0  0.737499  0  4.117136  0  1.642308  0  0.247785  0.67623  0  4.136888  0
C  C69  1  0.79062352  0.17212787  0.46793745  1  0  0.746746  0  3.837534  0  0  0.700922  0  4.127885  0  0  0.737464  0  4.117071  0  1.642208  0  0.247786  0.676198  0  4.136819  0
C  C70  1  0.60070388  0.75300164  0.61532317  1  0  0.623974  0  3.958959  0  0  0.579704  0  4.256138  0  0  0.61201  0  4.256197  0  1.535896  0  0.186101  0.55724  0  4.259959  0
C  C71  1  0.39929300  0.24699994  0.38467698  1  0  0.62401  0  3.959021  0  0  0.579738  0  4.256199  0  0  0.612045  0  4.256256  0  1.535888  0  0.186125  0.557266  0  4.260019  0
C  C72  1  0.29195404  0.23111874  0.60795263  1  0  0.11457  0  3.632445  0  0  0.071022  0  3.890994  0  0  0.082203  0  3.904978  0  0.328643  0  0.055961  0.063962  0  3.881609  0
C  C73  1  0.70804315  0.76888184  0.39204768  1  0  0.11453  0  3.632423  0  0  0.071014  0  3.890978  0  0  0.082196  0  3.904962  0  0.328635  0  0.055948  0.063957  0  3.881591  0
C  C74  1  0.20722229  0.12789343  0.62989165  1  0  -0.226754  0  3.617388  0  0  -0.247234  0  3.874192  0  0  -0.259856  0  3.889865  0  0.006317  0  -0.082877  -0.239486  0  3.86361  0
C  C75  1  0.79277489  0.87210716  0.37010867  1  0  -0.226716  0  3.617401  0  0  -0.247223  0  3.874208  0  0  -0.259846  0  3.889887  0  0.006291  0  -0.082855  -0.239477  0  3.863627  0
C  C76  1  0.03674123  0.13972886  0.68125029  1  0  0.475392  0  3.855002  0  0  0.462158  0  4.112445  0  0  0.487325  0  4.119656  0  0.81465  0  0.128707  0.445615  0  4.108525  0
C  C77  1  0.96325789  0.86026973  0.31875098  1  0  0.475398  0  3.85496  0  0  0.462177  0  4.112401  0  0  0.48734  0  4.119616  0  0.813427  0  0.128715  0.445634  0  4.10848  0
C  C78  1  0.95924577  0.26698868  0.70287508  1  0  -0.246057  0  3.666481  0  0  -0.263614  0  3.921127  0  0  -0.276577  0  3.938439  0  0.047241  0  -0.095326  -0.254944  0  3.908845  0
C  C79  1  0.04075335  0.73300992  0.29712550  1  0  -0.246029  0  3.66648  0  0  -0.263578  0  3.921128  0  0  -0.27654  0  3.938441  0  0.04847  0  -0.095306  -0.254907  0  3.908845  0
C  C80  1  0.04695753  0.36845561  0.67598200  1  0  0.081025  0  3.685292  0  0  0.035651  0  3.945156  0  0  0.047395  0  3.95907  0  0.256863  0  0.037616  0.028069  0  3.935658  0
C  C81  1  0.95304028  0.63154298  0.32401865  1  0  0.080917  0  3.685412  0  0  0.035566  0  3.945248  0  0  0.047311  0  3.959165  0  0.256676  0  0.037614  0.027983  0  3.93575  0
C  C82  1  0.61713749  0.98175628  0.11194688  1  0  -0.048133  0  3.673163  0  0  -0.028613  0  3.899982  0  0  -0.033044  0  3.921359  0  -0.058512  0  -0.002602  -0.025538  0  3.885283  0
C  C83  1  0.38286425  0.01824231  0.88805427  1  0  -0.04811  0  3.67318  0  0  -0.028624  0  3.900039  0  0  -0.033034  0  3.921391  0  -0.058496  0  -0.002627  -0.025547  0  3.885337  0
N  N84  1  0.85454158  0.63418404  0.10046708  1  0  -0.089335  0  3.589178  0  0  0.00059  0  3.798526  0  0  -0.017244  0  3.826093  0  -1.240789  0  -0.218748  0.012573  0  3.779605  0
N  N85  1  0.14546117  0.36581555  0.89953244  1  0  -0.089239  0  3.588928  0  0  0.000674  0  3.798287  0  0  -0.017162  0  3.825856  0  -1.240774  0  -0.218771  0.012657  0  3.779364  0
N  N86  1  0.21311050  0.35151640  0.62956772  1  0  -0.096011  0  3.580364  0  0  -0.004094  0  3.788747  0  0  -0.021608  0  3.814013  0  -1.267177  0  -0.223584  0.007217  0  3.771392  0
N  N87  1  0.78688831  0.64848319  0.37043339  1  0  -0.095978  0  3.5804  0  0  -0.004061  0  3.788765  0  0  -0.021582  0  3.814029  0  -1.267166  0  -0.223571  0.007253  0  3.771412  0
O  O88  1  0.41898348  0.94879639  0.24975982  1  0  -0.666661  0  2.025135  0  0  -0.624315  0  2.277566  0  0  -0.655151  0  2.268751  0  -1.181233  0  -0.359449  -0.608107  0  2.283099  0
O  O89  1  0.58101856  0.05120121  0.75024079  1  0  -0.666662  0  2.025229  0  0  -0.624322  0  2.2777  0  0  -0.655164  0  2.26889  0  -1.181215  0  -0.359447  -0.608111  0  2.28323  0
O  O90  1  0.43275145  0.15716421  0.18542224  1  0  -0.653441  0  2.076333  0  0  -0.599639  0  2.301263  0  0  -0.629528  0  2.29119  0  -1.167697  0  -0.323082  -0.582369  0  2.30826  0
O  O91  1  0.56725029  0.84283438  0.81457890  1  0  -0.653444  0  2.076349  0  0  -0.59963  0  2.301277  0  0  -0.629523  0  2.291206  0  -1.167686  0  -0.323093  -0.582361  0  2.308275  0
O  O92  1  0.55002101  0.28594032  0.04076036  1  0  -0.559025  0  2.076352  0  0  -0.511368  0  2.289093  0  0  -0.533419  0  2.272045  0  -1.182563  0  -0.336756  -0.495897  0  2.300518  0
O  O93  1  0.44997285  0.71405828  0.95924117  1  0  -0.55903  0  2.076257  0  0  -0.511375  0  2.288973  0  0  -0.533427  0  2.271927  0  -1.18257  0  -0.336748  -0.495905  0  2.300398  0
O  O94  1  0.69032421  0.25292563  0.90377899  1  0  -0.56138  0  1.940926  0  0  -0.520645  0  2.164478  0  0  -0.5406  0  2.15554  0  -1.174554  0  -0.297864  -0.506946  0  2.170301  0
O  O95  1  0.30967792  0.74707595  0.09622299  1  0  -0.561373  0  1.940951  0  0  -0.520662  0  2.16451  0  0  -0.540614  0  2.155571  0  -1.174608  0  -0.297891  -0.506964  0  2.170336  0
O  O96  1  0.05357031  0.86468511  0.56802282  1  0  -0.749855  0  2.085548  0  0  -0.704586  0  2.354514  0  0  -0.740913  0  2.338395  0  -1.195968  0  -0.403228  -0.68637  0  2.362994  0
O  O97  1  0.94642657  0.13531648  0.43197594  1  0  -0.74982  0  2.085498  0  0  -0.704557  0  2.35447  0  0  -0.740883  0  2.338362  0  -1.195907  0  -0.403218  -0.686342  0  2.36295  0
O  O98  1  0.27898763  0.89278829  0.45782923  1  0  -0.712197  0  2.010873  0  0  -0.665875  0  2.266199  0  0  -0.701189  0  2.251509  0  -1.184208  0  -0.380488  -0.64729  0  2.27324  0
O  O99  1  0.72101218  0.10721230  0.54217096  1  0  -0.712217  0  2.010855  0  0  -0.665884  0  2.266182  0  0  -0.701203  0  2.251493  0  -1.184191  0  -0.380491  -0.647298  0  2.273225  0
O  O100  1  0.52793510  0.87582217  0.60760093  1  0  -0.658932  0  1.974267  0  0  -0.614581  0  2.210687  0  0  -0.644612  0  2.202775  0  -1.163009  0  -0.354755  -0.597987  0  2.215032  0
O  O101  1  0.47206340  0.12417842  0.39240140  1  0  -0.658893  0  1.974263  0  0  -0.614557  0  2.210696  0  0  -0.644584  0  2.202785  0  -1.162974  0  -0.354731  -0.597963  0  2.215043  0
O  O102  1  0.76826368  0.70685739  0.63496804  1  0  -0.727401  0  1.980019  0  0  -0.684875  0  2.229705  0  0  -0.717431  0  2.221814  0  -1.184373  0  -0.398539  -0.666699  0  2.234382  0
O  O103  1  0.23173513  0.29314220  0.36503099  1  0  -0.72745  0  1.98006  0  0  -0.684935  0  2.229755  0  0  -0.717487  0  2.221863  0  -1.184405  0  -0.398576  -0.66676  0  2.234434  0
O  O104  1  0.02388754  0.23439042  0.21590826  1  0  -0.696  0  2.059279  0  0  -0.650686  0  2.314565  0  0  -0.683661  0  2.301832  0  -1.19088  0  -0.41426  -0.634053  0  2.320413  0
O  O105  1  0.97611853  0.76561116  0.78408934  1  0  -0.696074  0  2.059201  0  0  -0.650781  0  2.314465  0  0  -0.683759  0  2.301729  0  -1.190846  0  -0.414309  -0.634148  0  2.320317  0
O  O106  1  0.95899983  0.04277394  0.70863744  1  0  -0.689262  0  2.063475  0  0  -0.638473  0  2.313492  0  0  -0.672306  0  2.300835  0  -1.188209  0  -0.42107  -0.621479  0  2.319224  0
O  O107  1  0.04099929  0.95722466  0.29136383  1  0  -0.689259  0  2.06345  0  0  -0.638474  0  2.313443  0  0  -0.672301  0  2.300788  0  -1.188163  0  -0.421077  -0.621483  0  2.319176  0
