# generated using pymatgen
data_CaH4(C2O3)2
_symmetry_space_group_name_H-M   'P 1'
_cell_length_a   6.27490525
_cell_length_b   6.27490805
_cell_length_c   7.23737536
_cell_angle_alpha   89.99998893
_cell_angle_beta   90.00000608
_cell_angle_gamma   104.80671659
_symmetry_Int_Tables_number   1
_chemical_formula_structural   CaH4(C2O3)2
_chemical_formula_sum   'Ca2 H8 C8 O12'
_cell_volume   275.50490126
_cell_formula_units_Z   2
loop_
 _symmetry_equiv_pos_site_id
 _symmetry_equiv_pos_as_xyz
  1  'x, y, z'
loop_
 _atom_site_type_symbol
 _atom_site_label
 _atom_site_symmetry_multiplicity
 _atom_site_fract_x
 _atom_site_fract_y
 _atom_site_fract_z
 _atom_site_occupancy
 _atom_site_hle17_bader_spin_density
 _atom_site_hle17_ddec_charge
 _atom_site_hle17_ddec_spin_density
 _atom_site_hle17_ddec_sum_bond_order
 _atom_site_hle17_magmom
 _atom_site_hse06_10hf_bader_spin_density
 _atom_site_hse06_10hf_ddec_charge
 _atom_site_hse06_10hf_ddec_spin_density
 _atom_site_hse06_10hf_ddec_sum_bond_order
 _atom_site_hse06_10hf_magmom
 _atom_site_hse06_bader_spin_density
 _atom_site_hse06_ddec_charge
 _atom_site_hse06_ddec_spin_density
 _atom_site_hse06_ddec_sum_bond_order
 _atom_site_hse06_magmom
 _atom_site_pbe_bader_spin_density
 _atom_site_pbe_cm5_charge
 _atom_site_pbe_ddec_charge
 _atom_site_pbe_ddec_spin_density
 _atom_site_pbe_ddec_sum_bond_order
 _atom_site_pbe_magmom
Ca  Ca0  1  0.59063135  0.40936951  0.25000085  1  0  1.556408  0  1.096564  0  0  1.418274  0  1.452449  0  0  1.461319  0  1.407982  0  0  0.884612  1.385603  0  1.484432  0
Ca  Ca1  1  0.40936967  0.59063126  0.74999976  1  0  1.556418  0  1.096533  0  0  1.418279  0  1.452413  0  0  1.461326  0  1.407943  0  0  0.884595  1.385614  0  1.484393  0
H  H2  1  0.78771783  0.88853636  0.26142346  1  0  0.390303  0  0.894315  0  0  0.363406  0  0.966695  0  0  0.375114  0  0.953425  0  0  0.312322  0.35507  0  0.976166  0
H  H3  1  0.21228117  0.11146277  0.76142382  1  0  0.390302  0  0.894314  0  0  0.363398  0  0.9667  0  0  0.375105  0  0.953434  0  0  0.312309  0.35506  0  0.976179  0
H  H4  1  0.11146419  0.21228263  0.23857681  1  0  0.390303  0  0.89431  0  0  0.363415  0  0.966679  0  0  0.375123  0  0.953409  0  0  0.312321  0.355078  0  0.976153  0
H  H5  1  0.88853641  0.78771650  0.73857574  1  0  0.390298  0  0.894312  0  0  0.36341  0  0.966682  0  0  0.375119  0  0.953413  0  0  0.312311  0.355073  0  0.976158  0
H  H6  1  0.12277595  0.88620998  0.45807898  1  0  0.076381  0  0.928024  0  0  0.081165  0  0.996038  0  0  0.083836  0  0.993524  0  0  0.121568  0.079163  0  0.998118  0
H  H7  1  0.87722147  0.11378911  0.95807940  1  0  0.076385  0  0.928007  0  0  0.081154  0  0.996016  0  0  0.083827  0  0.993499  0  0  0.121563  0.079153  0  0.998094  0
H  H8  1  0.11378932  0.87722372  0.04192121  1  0  0.076396  0  0.928042  0  0  0.081171  0  0.996045  0  0  0.083844  0  0.993531  0  0  0.121565  0.07917  0  0.998124  0
H  H9  1  0.88621168  0.12277710  0.54192163  1  0  0.076336  0  0.928057  0  0  0.081152  0  0.996049  0  0  0.083827  0  0.993531  0  0  0.12156  0.07915  0  0.998129  0
C  C10  1  0.11959740  0.56799247  0.35320673  1  0  0.683832  0  3.824926  0  0  0.629504  0  4.126892  0  0  0.664213  0  4.117105  0  0  0.242374  0.605734  0  4.132926  0
C  C11  1  0.88039959  0.43200499  0.85320848  1  0  0.683953  0  3.824841  0  0  0.629603  0  4.126805  0  0  0.664317  0  4.117015  0  0  0.242455  0.605832  0  4.132839  0
C  C12  1  0.43200628  0.88040307  0.14679211  1  0  0.683933  0  3.82479  0  0  0.629539  0  4.126811  0  0  0.664251  0  4.117018  0  0  0.242397  0.605767  0  4.132846  0
C  C13  1  0.56799356  0.11959937  0.64679112  1  0  0.683966  0  3.824768  0  0  0.629588  0  4.1268  0  0  0.664303  0  4.117008  0  0  0.242469  0.605818  0  4.132832  0
C  C14  1  0.07016892  0.79301550  0.32962772  1  0  0.073068  0  3.613253  0  0  0.04815  0  3.862959  0  0  0.050081  0  3.868315  0  0  0.010102  0.046675  0  3.859425  0
C  C15  1  0.92983008  0.20698361  0.82962813  1  0  0.072981  0  3.61327  0  0  0.048153  0  3.862917  0  0  0.050083  0  3.868272  0  0  0.010107  0.046679  0  3.859381  0
C  C16  1  0.20698342  0.92983113  0.17037247  1  0  0.072958  0  3.613338  0  0  0.048108  0  3.862993  0  0  0.050034  0  3.868357  0  0  0.010117  0.046634  0  3.859459  0
C  C17  1  0.79301557  0.07016801  0.67037289  1  0  0.073111  0  3.613179  0  0  0.048142  0  3.862991  0  0  0.050067  0  3.868354  0  0  0.010116  0.046668  0  3.859454  0
O  O18  1  0.97646482  0.39866492  0.29554362  1  0  -0.655416  0  2.006451  0  0  -0.592949  0  2.24356  0  0  -0.619768  0  2.233063  0  0  -0.324516  -0.574115  0  2.250349  0
O  O19  1  0.02353663  0.60133749  0.79554388  1  0  -0.655509  0  2.006368  0  0  -0.593048  0  2.24351  0  0  -0.619856  0  2.232978  0  0  -0.324567  -0.574216  0  2.250299  0
O  O20  1  0.60133617  0.02353623  0.20445536  1  0  -0.655507  0  2.006413  0  0  -0.592977  0  2.243495  0  0  -0.619797  0  2.232996  0  0  -0.324517  -0.574144  0  2.250284  0
O  O21  1  0.39866124  0.97646291  0.70445559  1  0  -0.655605  0  2.006435  0  0  -0.593058  0  2.243512  0  0  -0.619869  0  2.232991  0  0  -0.324584  -0.574224  0  2.2503  0
O  O22  1  0.30272273  0.56598216  0.42677347  1  0  -0.725445  0  2.022364  0  0  -0.669219  0  2.285509  0  0  -0.697114  0  2.275105  0  0  -0.365787  -0.649231  0  2.291908  0
O  O23  1  0.69727787  0.43401693  0.92677243  1  0  -0.725422  0  2.022352  0  0  -0.669205  0  2.285504  0  0  -0.697115  0  2.27513  0  0  -0.36582  -0.649217  0  2.2919  0
O  O24  1  0.43401849  0.69727765  0.07322679  1  0  -0.72549  0  2.022376  0  0  -0.669213  0  2.285492  0  0  -0.697122  0  2.275118  0  0  -0.365815  -0.649226  0  2.291894  0
O  O25  1  0.56598209  0.30272151  0.57322714  1  0  -0.725434  0  2.022337  0  0  -0.669187  0  2.285476  0  0  -0.697093  0  2.275089  0  0  -0.365823  -0.649205  0  2.291884  0
O  O26  1  0.84112314  0.75680731  0.29838025  1  0  -0.620878  0  2.20331  0  0  -0.569184  0  2.452687  0  0  -0.587007  0  2.43932  0  0  -0.438374  -0.556085  0  2.4616  0
O  O27  1  0.15887746  0.24319180  0.79838196  1  0  -0.620864  0  2.203348  0  0  -0.569174  0  2.452697  0  0  -0.587001  0  2.439333  0  0  -0.438338  -0.556075  0  2.461609  0
O  O28  1  0.24319366  0.15887759  0.20162005  1  0  -0.620868  0  2.203358  0  0  -0.569196  0  2.452722  0  0  -0.58702  0  2.439358  0  0  -0.438363  -0.556097  0  2.461634  0
O  O29  1  0.75680693  0.84112154  0.70161896  1  0  -0.620894  0  2.203289  0  0  -0.569202  0  2.452706  0  0  -0.587028  0  2.439343  0  0  -0.438362  -0.556104  0  2.461618  0
