# generated using pymatgen
data_CuH7C9(N3O)2
_symmetry_space_group_name_H-M   'P 1'
_cell_length_a   9.18047401
_cell_length_b   10.28442698
_cell_length_c   12.20087872
_cell_angle_alpha   90.00002475
_cell_angle_beta   106.60203393
_cell_angle_gamma   89.99983630
_symmetry_Int_Tables_number   1
_chemical_formula_structural   CuH7C9(N3O)2
_chemical_formula_sum   'Cu4 H28 C36 N24 O8'
_cell_volume   1103.93483159
_cell_formula_units_Z   4
loop_
 _symmetry_equiv_pos_site_id
 _symmetry_equiv_pos_as_xyz
  1  'x, y, z'
loop_
 _atom_site_type_symbol
 _atom_site_label
 _atom_site_symmetry_multiplicity
 _atom_site_fract_x
 _atom_site_fract_y
 _atom_site_fract_z
 _atom_site_occupancy
 _atom_site_hle17_bader_spin_density
 _atom_site_hle17_ddec_charge
 _atom_site_hle17_ddec_spin_density
 _atom_site_hle17_ddec_sum_bond_order
 _atom_site_hle17_magmom
 _atom_site_hse06_10hf_bader_spin_density
 _atom_site_hse06_10hf_ddec_charge
 _atom_site_hse06_10hf_ddec_spin_density
 _atom_site_hse06_10hf_ddec_sum_bond_order
 _atom_site_hse06_10hf_magmom
 _atom_site_hse06_bader_spin_density
 _atom_site_hse06_ddec_charge
 _atom_site_hse06_ddec_spin_density
 _atom_site_hse06_ddec_sum_bond_order
 _atom_site_hse06_magmom
 _atom_site_pbe_bader_spin_density
 _atom_site_pbe_cm5_charge
 _atom_site_pbe_ddec_charge
 _atom_site_pbe_ddec_spin_density
 _atom_site_pbe_ddec_sum_bond_order
 _atom_site_pbe_magmom
Cu  Cu0  1  0.92517702  0.41679990  0.10123434  1  0  0.465186  0  2.102947  0  0  0.341526  0  2.626999  0  0  0.327045  0  2.591327  0  0  0.620808  0.358978  0  2.644738  0
Cu  Cu1  1  0.57481742  0.91680215  0.89876693  1  0  0.465161  0  2.102883  0  0  0.341468  0  2.626925  0  0  0.327031  0  2.591288  0  0  0.620809  0.358917  0  2.64468  0
Cu  Cu2  1  0.07481576  0.58319743  0.89876615  1  0  0.465165  0  2.102893  0  0  0.341464  0  2.626916  0  0  0.326987  0  2.591248  0  0  0.620809  0.358913  0  2.644658  0
Cu  Cu3  1  0.42517873  0.08320101  0.10123180  1  0  0.465239  0  2.102947  0  0  0.341487  0  2.626954  0  0  0.327064  0  2.591334  0  0  0.620792  0.358924  0  2.644691  0
H  H4  1  0.61463262  0.43492770  0.09983421  1  0  0.100418  0  0.998555  0  0  0.099794  0  1.078048  0  0  0.104603  0  1.074298  0  0  0.103312  0.095799  0  1.08159  0
H  H5  1  0.88537074  0.93492722  0.90016072  1  0  0.100398  0  0.99857  0  0  0.099809  0  1.078038  0  0  0.104613  0  1.074293  0  0  0.103302  0.095816  0  1.08158  0
H  H6  1  0.38536686  0.56507060  0.90015947  1  0  0.100387  0  0.998556  0  0  0.099792  0  1.078028  0  0  0.1046  0  1.074279  0  0  0.103275  0.095799  0  1.08157  0
H  H7  1  0.11463331  0.06506913  0.09983555  1  0  0.100401  0  0.998573  0  0  0.099782  0  1.078058  0  0  0.104589  0  1.074311  0  0  0.103293  0.095788  0  1.0816  0
H  H8  1  0.47202657  0.41896884  0.24430418  1  0  0.122873  0  0.937394  0  0  0.128134  0  1.001216  0  0  0.131505  0  0.999525  0  0  0.115517  0.125298  0  1.003212  0
H  H9  1  0.02798152  0.91897503  0.75569343  1  0  0.122862  0  0.937432  0  0  0.128125  0  1.00124  0  0  0.131496  0  0.999548  0  0  0.115528  0.125293  0  1.003237  0
H  H10  1  0.52797755  0.58102751  0.75569703  1  0  0.122882  0  0.937372  0  0  0.128144  0  1.001182  0  0  0.131516  0  0.999489  0  0  0.115531  0.125308  0  1.003173  0
H  H11  1  0.97202255  0.08102910  0.24430448  1  0  0.122872  0  0.937415  0  0  0.128135  0  1.001234  0  0  0.131507  0  0.99954  0  0  0.115532  0.125297  0  1.003227  0
H  H12  1  0.49036668  0.83594976  0.28321861  1  0  0.117068  0  0.9608  0  0  0.120878  0  1.031159  0  0  0.124336  0  1.028675  0  0  0.11081  0.118219  0  1.033189  0
H  H13  1  0.00963497  0.33595180  0.71678419  1  0  0.117046  0  0.960832  0  0  0.120885  0  1.031167  0  0  0.124345  0  1.028681  0  0  0.110799  0.118229  0  1.033196  0
H  H14  1  0.50963748  0.16405048  0.71678506  1  0  0.117042  0  0.960873  0  0  0.120883  0  1.0312  0  0  0.124341  0  1.028716  0  0  0.110795  0.118226  0  1.033232  0
H  H15  1  0.99036799  0.66404942  0.28321513  1  0  0.117051  0  0.960902  0  0  0.12091  0  1.03121  0  0  0.124368  0  1.028724  0  0  0.110823  0.118252  0  1.033242  0
H  H16  1  0.62873828  0.85303655  0.13615736  1  0  0.099066  0  0.96147  0  0  0.097086  0  1.046894  0  0  0.103792  0  1.039958  0  0  0.101452  0.092062  0  1.051877  0
H  H17  1  0.87125862  0.35303871  0.86384194  1  0  0.099093  0  0.961433  0  0  0.097104  0  1.046866  0  0  0.103811  0  1.039931  0  0  0.101451  0.092081  0  1.051847  0
H  H18  1  0.37125791  0.14695980  0.86384384  1  0  0.099094  0  0.961399  0  0  0.097077  0  1.046871  0  0  0.103781  0  1.03994  0  0  0.10144  0.092056  0  1.051853  0
H  H19  1  0.12874089  0.64695959  0.13615421  1  0  0.099107  0  0.961415  0  0  0.097111  0  1.046854  0  0  0.103818  0  1.039917  0  0  0.10144  0.092085  0  1.05184  0
H  H20  1  0.78692860  0.44029589  0.46924925  1  0  0.157087  0  0.925821  0  0  0.170066  0  0.988786  0  0  0.172714  0  0.98664  0  0  0.112717  0.168557  0  0.989986  0
H  H21  1  0.71307365  0.94029566  0.53074873  1  0  0.157085  0  0.925852  0  0  0.17006  0  0.988816  0  0  0.172709  0  0.986668  0  0  0.112719  0.16855  0  0.990016  0
H  H22  1  0.21307331  0.55970338  0.53075559  1  0  0.157082  0  0.925812  0  0  0.170057  0  0.98877  0  0  0.172705  0  0.986622  0  0  0.112737  0.168548  0  0.989971  0
H  H23  1  0.28692360  0.05970556  0.46924777  1  0  0.157093  0  0.925882  0  0  0.17007  0  0.988839  0  0  0.172719  0  0.98669  0  0  0.112719  0.16856  0  0.990039  0
H  H24  1  0.89812846  0.29504021  0.49005066  1  0  0.157816  0  0.950061  0  0  0.170662  0  1.014319  0  0  0.172859  0  1.012982  0  0  0.111513  0.16954  0  1.014947  0
H  H25  1  0.60187090  0.79503734  0.50994913  1  0  0.157778  0  0.950062  0  0  0.170627  0  1.014313  0  0  0.172823  0  1.012976  0  0  0.111503  0.169508  0  1.014936  0
H  H26  1  0.10187335  0.70496490  0.50994761  1  0  0.157758  0  0.950062  0  0  0.170593  0  1.014317  0  0  0.172788  0  1.012981  0  0  0.111486  0.169475  0  1.01494  0
H  H27  1  0.39812520  0.20496193  0.49004631  1  0  0.157819  0  0.950103  0  0  0.170682  0  1.014327  0  0  0.172877  0  1.012991  0  0  0.111515  0.169558  0  1.014956  0
H  H28  1  0.71434611  0.29789911  0.38824620  1  0  0.159867  0  0.910752  0  0  0.178498  0  0.966886  0  0  0.180644  0  0.965415  0  0  0.119511  0.177184  0  0.967777  0
H  H29  1  0.78564877  0.79789387  0.61175758  1  0  0.159908  0  0.910662  0  0  0.178513  0  0.96683  0  0  0.18066  0  0.965355  0  0  0.11949  0.177199  0  0.96772  0
H  H30  1  0.28565353  0.70210502  0.61175818  1  0  0.159873  0  0.910662  0  0  0.178464  0  0.966839  0  0  0.18061  0  0.965367  0  0  0.119472  0.177151  0  0.967731  0
H  H31  1  0.21434515  0.20210442  0.38824314  1  0  0.159897  0  0.91065  0  0  0.178479  0  0.966849  0  0  0.180626  0  0.965377  0  0  0.119485  0.177165  0  0.967738  0
C  C32  1  0.63118063  0.64524762  0.10779328  1  0  0.039432  0  3.743202  0  0  0.053393  0  3.973871  0  0  0.055525  0  3.994682  0  0  0.009829  0.050844  0  3.960914  0
C  C33  1  0.86882156  0.14524882  0.89221032  1  0  0.039326  0  3.743204  0  0  0.053354  0  3.973876  0  0  0.055483  0  3.994688  0  0  0.009817  0.050814  0  3.960916  0
C  C34  1  0.36882013  0.35474971  0.89221051  1  0  0.039293  0  3.743163  0  0  0.05332  0  3.973805  0  0  0.05545  0  3.994616  0  0  0.009869  0.050781  0  3.960849  0
C  C35  1  0.13118033  0.85475045  0.10779288  1  0  0.039462  0  3.7431  0  0  0.053409  0  3.973774  0  0  0.055545  0  3.994587  0  0  0.009823  0.050853  0  3.960825  0
C  C36  1  0.58720411  0.52291126  0.13920777  1  0  -0.082868  0  3.703837  0  0  -0.10044  0  3.952817  0  0  -0.103783  0  3.971486  0  0  -0.080346  -0.098495  0  3.941652  0
C  C37  1  0.91279729  0.02291234  0.86079153  1  0  -0.082706  0  3.703785  0  0  -0.100316  0  3.952736  0  0  -0.103653  0  3.9714  0  0  -0.080284  -0.098378  0  3.941574  0
C  C38  1  0.41280001  0.47708704  0.86079344  1  0  -0.082673  0  3.703775  0  0  -0.1003  0  3.95276  0  0  -0.103639  0  3.971425  0  0  -0.080297  -0.098366  0  3.9416  0
C  C39  1  0.08720340  0.97708791  0.13920732  1  0  -0.082786  0  3.703802  0  0  -0.100353  0  3.952786  0  0  -0.103701  0  3.971458  0  0  -0.080297  -0.098413  0  3.941622  0
C  C40  1  0.50873916  0.51282137  0.22063856  1  0  -0.081306  0  3.699329  0  0  -0.106698  0  3.955123  0  0  -0.106871  0  3.975952  0  0  -0.077266  -0.106792  0  3.94188  0
C  C41  1  0.99126112  0.01282512  0.77935968  1  0  -0.081408  0  3.699436  0  0  -0.10676  0  3.955266  0  0  -0.106932  0  3.976093  0  0  -0.077306  -0.106855  0  3.942027  0
C  C42  1  0.49125927  0.48717207  0.77936064  1  0  -0.081436  0  3.699575  0  0  -0.106809  0  3.955357  0  0  -0.106981  0  3.976186  0  0  -0.077319  -0.106896  0  3.942106  0
C  C43  1  0.00874072  0.98717318  0.22064023  1  0  -0.081354  0  3.699548  0  0  -0.106776  0  3.955322  0  0  -0.106946  0  3.976149  0  0  -0.077317  -0.106861  0  3.94207  0
C  C44  1  0.47617973  0.62622686  0.27220700  1  0  0.068419  0  3.709202  0  0  0.054136  0  3.957707  0  0  0.050085  0  3.981544  0  0  0.074381  0.056618  0  3.941703  0
C  C45  1  0.02381801  0.12623179  0.72779082  1  0  0.06858  0  3.709278  0  0  0.05412  0  3.957919  0  0  0.050068  0  3.981757  0  0  0.074367  0.056601  0  3.94192  0
C  C46  1  0.52382211  0.37377241  0.72779291  1  0  0.068462  0  3.709227  0  0  0.05421  0  3.957749  0  0  0.050158  0  3.981585  0  0  0.07438  0.056693  0  3.941749  0
C  C47  1  0.97617810  0.87377332  0.27220462  1  0  0.068445  0  3.709305  0  0  0.054265  0  3.957739  0  0  0.050209  0  3.981577  0  0  0.074435  0.056741  0  3.941746  0
C  C48  1  0.51824819  0.74902412  0.24261599  1  0  -0.083228  0  3.710524  0  0  -0.111413  0  3.974214  0  0  -0.110616  0  3.993102  0  0  -0.0788  -0.111893  0  3.961952  0
C  C49  1  0.98174910  0.24902691  0.75738664  1  0  -0.083169  0  3.710684  0  0  -0.111372  0  3.974436  0  0  -0.11058  0  3.993336  0  0  -0.078761  -0.111853  0  3.962175  0
C  C50  1  0.48175255  0.25097126  0.75738698  1  0  -0.083179  0  3.710457  0  0  -0.111388  0  3.974123  0  0  -0.110599  0  3.993032  0  0  -0.078754  -0.111871  0  3.961868  0
C  C51  1  0.01825051  0.75097139  0.24261609  1  0  -0.083179  0  3.710435  0  0  -0.111438  0  3.974098  0  0  -0.110644  0  3.992996  0  0  -0.078784  -0.11192  0  3.961841  0
C  C52  1  0.59513914  0.75788108  0.15995989  1  0  -0.076703  0  3.694978  0  0  -0.100824  0  3.954612  0  0  -0.104107  0  3.972341  0  0  -0.082929  -0.098791  0  3.943749  0
C  C53  1  0.90486037  0.25788119  0.84004156  1  0  -0.076742  0  3.695168  0  0  -0.100842  0  3.954774  0  0  -0.104125  0  3.972501  0  0  -0.082938  -0.098812  0  3.943912  0
C  C54  1  0.40485817  0.24211819  0.84004072  1  0  -0.076718  0  3.695007  0  0  -0.100815  0  3.954618  0  0  -0.1041  0  3.97235  0  0  -0.08294  -0.098788  0  3.943763  0
C  C55  1  0.09514717  0.74211710  0.15996118  1  0  -0.076794  0  3.694916  0  0  -0.10088  0  3.954548  0  0  -0.104169  0  3.972281  0  0  -0.082928  -0.098842  0  3.943684  0
C  C56  1  0.71525506  0.65490772  0.02307648  1  0  0.262587  0  3.76318  0  0  0.244494  0  4.019336  0  0  0.249691  0  4.039234  0  0  0.213729  0.242002  0  4.005678  0
C  C57  1  0.78474483  0.15490724  0.97692747  1  0  0.262665  0  3.762946  0  0  0.244412  0  4.019323  0  0  0.24961  0  4.039216  0  0  0.213726  0.241916  0  4.005663  0
C  C58  1  0.28474571  0.34509446  0.97692813  1  0  0.262676  0  3.762972  0  0  0.244506  0  4.01922  0  0  0.249704  0  4.039119  0  0  0.213699  0.242007  0  4.005567  0
C  C59  1  0.21525248  0.84509300  0.02307314  1  0  0.262581  0  3.763195  0  0  0.244507  0  4.019324  0  0  0.249701  0  4.039225  0  0  0.213701  0.242018  0  4.00566  0
C  C60  1  0.88412356  0.39290077  0.33745007  1  0  0.421288  0  3.66264  0  0  0.411527  0  3.936171  0  0  0.422061  0  3.950883  0  0  0.209808  0.405642  0  3.925834  0
C  C61  1  0.61587441  0.89290474  0.66255356  1  0  0.421242  0  3.662567  0  0  0.411484  0  3.936077  0  0  0.422014  0  3.950792  0  0  0.209814  0.405602  0  3.925745  0
C  C62  1  0.11587607  0.60709267  0.66255348  1  0  0.421232  0  3.662716  0  0  0.411474  0  3.936202  0  0  0.421999  0  3.950918  0  0  0.209787  0.405592  0  3.925872  0
C  C63  1  0.38412292  0.10709842  0.33744787  1  0  0.421291  0  3.662654  0  0  0.411539  0  3.936158  0  0  0.422074  0  3.950874  0  0  0.209835  0.405652  0  3.92582  0
C  C64  1  0.81756760  0.35510781  0.42619097  1  0  -0.375668  0  3.75684  0  0  -0.445008  0  3.989533  0  0  -0.447268  0  3.992398  0  0  -0.209181  -0.4435  0  3.986569  0
C  C65  1  0.68243268  0.85510768  0.57380739  1  0  -0.375687  0  3.756585  0  0  -0.444989  0  3.989243  0  0  -0.44725  0  3.992109  0  0  -0.209128  -0.443482  0  3.986276  0
C  C66  1  0.18243535  0.64489632  0.57380753  1  0  -0.375644  0  3.756492  0  0  -0.444914  0  3.989173  0  0  -0.447173  0  3.992041  0  0  -0.209125  -0.443411  0  3.986211  0
C  C67  1  0.31756345  0.14489256  0.42618970  1  0  -0.375696  0  3.756781  0  0  -0.445005  0  3.989466  0  0  -0.447262  0  3.992329  0  0  -0.209155  -0.443495  0  3.986503  0
N  N68  1  0.82185743  0.56933840  0.01174375  1  0  -0.296322  0  3.262788  0  0  -0.246813  0  3.585634  0  0  -0.252547  0  3.589271  0  0  -0.269969  -0.244571  0  3.582976  0
N  N69  1  0.67814046  0.06933820  0.98825894  1  0  -0.296413  0  3.262581  0  0  -0.246852  0  3.585483  0  0  -0.252596  0  3.589143  0  0  -0.270043  -0.244612  0  3.582834  0
N  N70  1  0.17813992  0.43066378  0.98825933  1  0  -0.296408  0  3.262726  0  0  -0.246855  0  3.585601  0  0  -0.252586  0  3.58923  0  0  -0.270015  -0.244614  0  3.58295  0
N  N71  1  0.32185574  0.93066301  0.01174308  1  0  -0.296362  0  3.262873  0  0  -0.246837  0  3.585667  0  0  -0.252588  0  3.58935  0  0  -0.269968  -0.24459  0  3.583005  0
N  N72  1  0.87321139  0.61720706  0.92643182  1  0  -0.091747  0  3.291061  0  0  -0.053987  0  3.634908  0  0  -0.050196  0  3.634319  0  0  -0.153625  -0.057226  0  3.63519  0
N  N73  1  0.62678748  0.11720847  0.07357109  1  0  -0.091621  0  3.290809  0  0  -0.053839  0  3.6346  0  0  -0.050064  0  3.634054  0  0  -0.153539  -0.057075  0  3.634875  0
N  N74  1  0.12678480  0.38279221  0.07356938  1  0  -0.091594  0  3.290965  0  0  -0.053852  0  3.634805  0  0  -0.050063  0  3.634225  0  0  -0.15354  -0.057095  0  3.635088  0
N  N75  1  0.37321100  0.88279372  0.92643141  1  0  -0.091684  0  3.291094  0  0  -0.053917  0  3.634926  0  0  -0.050142  0  3.634374  0  0  -0.153575  -0.057162  0  3.635219  0
N  N76  1  0.80009191  0.72519955  0.88598338  1  0  -0.075565  0  2.95224  0  0  -0.067935  0  3.243738  0  0  -0.069282  0  3.254126  0  0  -0.100398  -0.065742  0  3.236422  0
N  N77  1  0.69990660  0.22520274  0.11401949  1  0  -0.075657  0  2.952051  0  0  -0.068016  0  3.243532  0  0  -0.069366  0  3.253924  0  0  -0.100415  -0.06582  0  3.236212  0
N  N78  1  0.19990428  0.27479680  0.11401782  1  0  -0.075657  0  2.952229  0  0  -0.068004  0  3.24371  0  0  -0.069353  0  3.254105  0  0  -0.100414  -0.065809  0  3.236392  0
N  N79  1  0.30009185  0.77480042  0.88598136  1  0  -0.075602  0  2.952166  0  0  -0.067975  0  3.243653  0  0  -0.069323  0  3.254045  0  0  -0.10043  -0.06578  0  3.23634  0
N  N80  1  0.70136063  0.75181858  0.94554800  1  0  -0.286995  0  3.226006  0  0  -0.235588  0  3.544118  0  0  -0.242844  0  3.552296  0  0  -0.250479  -0.231061  0  3.537307  0
N  N81  1  0.79864005  0.25181954  0.05445451  1  0  -0.286967  0  3.225982  0  0  -0.235521  0  3.544156  0  0  -0.242762  0  3.552305  0  0  -0.250463  -0.230995  0  3.537342  0
N  N82  1  0.29863899  0.24818069  0.05445555  1  0  -0.286988  0  3.226066  0  0  -0.235565  0  3.544208  0  0  -0.242827  0  3.552399  0  0  -0.250468  -0.231038  0  3.537394  0
N  N83  1  0.20135723  0.74818070  0.94554364  1  0  -0.287037  0  3.225964  0  0  -0.235626  0  3.544063  0  0  -0.242869  0  3.552218  0  0  -0.250489  -0.231098  0  3.537249  0
N  N84  1  0.39627524  0.61594931  0.35959599  1  0  0.466355  0  3.950207  0  0  0.526068  0  4.202341  0  0  0.547691  0  4.209895  0  0  0.053222  0.511092  0  4.197989  0
N  N85  1  0.10372709  0.11594524  0.64040360  1  0  0.46611  0  3.95079  0  0  0.526031  0  4.202691  0  0  0.54766  0  4.210239  0  0  0.053237  0.511055  0  4.198338  0
N  N86  1  0.60372885  0.38404704  0.64040274  1  0  0.466465  0  3.950106  0  0  0.526016  0  4.202476  0  0  0.547642  0  4.210028  0  0  0.053193  0.511038  0  4.198123  0
N  N87  1  0.89627474  0.88403945  0.35959631  1  0  0.466564  0  3.949934  0  0  0.526157  0  4.202179  0  0  0.547785  0  4.209732  0  0  0.053299  0.511184  0  4.197824  0
N  N88  1  0.93295036  0.42109672  0.26229034  1  0  -0.462435  0  3.040475  0  0  -0.426907  0  3.366446  0  0  -0.430309  0  3.365717  0  0  -0.385354  -0.426263  0  3.36586  0
N  N89  1  0.56704624  0.92109891  0.73770400  1  0  -0.462339  0  3.040548  0  0  -0.426799  0  3.366498  0  0  -0.430213  0  3.365789  0  0  -0.385344  -0.426157  0  3.365922  0
N  N90  1  0.06704911  0.57890547  0.73770252  1  0  -0.462308  0  3.040737  0  0  -0.426758  0  3.366667  0  0  -0.430161  0  3.365942  0  0  -0.385285  -0.426116  0  3.366089  0
N  N91  1  0.43294870  0.07890328  0.26228957  1  0  -0.462456  0  3.040514  0  0  -0.426897  0  3.366422  0  0  -0.430316  0  3.365727  0  0  -0.38536  -0.426249  0  3.365831  0
O  O92  1  0.37595101  0.71767111  0.40905948  1  0  -0.371923  0  1.770867  0  0  -0.354749  0  1.955463  0  0  -0.368123  0  1.95358  0  0  -0.13391  -0.347187  0  1.957725  0
O  O93  1  0.12405096  0.21768251  0.59093843  1  0  -0.371977  0  1.770768  0  0  -0.354796  0  1.95521  0  0  -0.368182  0  1.953333  0  0  -0.133953  -0.347226  0  1.957468  0
O  O94  1  0.62405080  0.28232622  0.59093878  1  0  -0.371909  0  1.770925  0  0  -0.354653  0  1.955585  0  0  -0.368025  0  1.953694  0  0  -0.13383  -0.347091  0  1.957847  0
O  O95  1  0.87595082  0.78232843  0.40905737  1  0  -0.371858  0  1.771179  0  0  -0.354644  0  1.95582  0  0  -0.368018  0  1.95394  0  0  -0.133822  -0.347088  0  1.958082  0
O  O96  1  0.35194465  0.50687767  0.38050366  1  0  -0.352735  0  1.728848  0  0  -0.345959  0  1.90969  0  0  -0.356665  0  1.906379  0  0  -0.134394  -0.340363  0  1.913089  0
O  O97  1  0.14805577  0.00689000  0.61949550  1  0  -0.352581  0  1.72951  0  0  -0.345881  0  1.910277  0  0  -0.35658  0  1.906959  0  0  -0.134361  -0.340297  0  1.913696  0
O  O98  1  0.64806173  0.49311771  0.61949720  1  0  -0.352852  0  1.728716  0  0  -0.346023  0  1.909623  0  0  -0.356728  0  1.906308  0  0  -0.134431  -0.340435  0  1.91304  0
O  O99  1  0.85194155  0.99312289  0.38050511  1  0  -0.353014  0  1.728254  0  0  -0.3462  0  1.909125  0  0  -0.356909  0  1.905814  0  0  -0.134605  -0.340608  0  1.912538  0
