# generated using pymatgen
data_Zn6H60C67O26
_symmetry_space_group_name_H-M   'P 1'
_cell_length_a   18.62298782
_cell_length_b   18.60197706
_cell_length_c   18.74817435
_cell_angle_alpha   109.18296946
_cell_angle_beta   109.82886491
_cell_angle_gamma   109.22792723
_symmetry_Int_Tables_number   1
_chemical_formula_structural   Zn6H60C67O26
_chemical_formula_sum   'Zn6 H60 C67 O26'
_cell_volume   5010.27079721
_cell_formula_units_Z   1
loop_
 _symmetry_equiv_pos_site_id
 _symmetry_equiv_pos_as_xyz
  1  'x, y, z'
loop_
 _atom_site_type_symbol
 _atom_site_label
 _atom_site_symmetry_multiplicity
 _atom_site_fract_x
 _atom_site_fract_y
 _atom_site_fract_z
 _atom_site_occupancy
 _atom_site_pbe_bader_charge
 _atom_site_pbe_bader_spin_density
 _atom_site_pbe_cm5_charge
 _atom_site_pbe_ddec_charge
 _atom_site_pbe_ddec_spin_density
 _atom_site_pbe_ddec_sum_bond_order
 _atom_site_pbe_magmom
Zn  Zn0  1  0.92509250  0.99210634  0.43377464  1  1.309962  0  0.723018  0.950924  0  2.146298  0
Zn  Zn1  1  0.05396551  0.99450710  0.55798816  1  1.306873  0  0.723717  0.954238  0  2.135118  0
Zn  Zn2  1  0.05690228  0.55427659  0.99612713  1  1.305483  0  0.71992  0.945842  0  2.163323  0
Zn  Zn3  1  0.92819502  0.43145039  0.99441121  1  1.305818  0  0.720082  0.954397  0  2.1459  0
Zn  Zn4  1  0.49895105  0.56937147  0.56664628  1  1.309073  0  0.723526  0.954415  0  2.140766  0
Zn  Zn5  1  0.49608932  0.43712753  0.44749251  1  1.310487  0  0.721954  0.952529  0  2.162819  0
H  H6  1  0.75231982  0.74427148  0.37200558  1  0.098237  0  0.11053  0.116138  0  0.987165  0
H  H7  1  0.78126490  0.55341644  0.91196966  1  0.084214  0  0.109797  0.114987  0  0.984758  0
H  H8  1  0.66025170  0.56463804  0.81328481  1  0.08166  0  0.111029  0.115025  0  0.982146  0
H  H9  1  0.75780010  0.53477629  0.63365601  1  0.086181  0  0.108188  0.112298  0  0.990318  0
H  H10  1  0.88792361  0.54050806  0.73998976  1  0.088923  0  0.110687  0.115429  0  0.982844  0
H  H11  1  0.08892461  0.81018564  0.15124034  1  0.071091  0  0.099207  0.120023  0  0.990103  0
H  H12  1  0.98167141  0.76896863  0.06363507  1  0.066118  0  0.093168  0.111034  0  0.991486  0
H  H13  1  0.96621461  0.88496807  0.16467530  1  0.042381  0  0.098397  0.040221  0  0.966628  0
H  H14  1  0.90090872  0.82848058  0.64436279  1  0.097078  0  0.111932  0.11536  0  0.982849  0
H  H15  1  0.77491877  0.70620031  0.62753338  1  0.078277  0  0.10738  0.110076  0  0.991394  0
H  H16  1  0.63280518  0.61323199  0.35167231  1  0.098134  0  0.110878  0.114083  0  0.98159  0
H  H17  1  0.09529801  0.23341715  0.73947299  1  0.073727  0  0.109413  0.115319  0  0.987956  0
H  H18  1  0.95828735  0.73721894  0.52984143  1  0.039816  0  0.07857  0.109516  0  1.045449  0
H  H19  1  0.91105100  0.62309761  0.46081166  1  0.002783  0  0.08106  0.105649  0  1.007844  0
H  H20  1  0.02527090  0.68777231  0.53883573  1  0.004486  0  0.083624  0.109168  0  1.004737  0
H  H21  1  0.00696269  0.65878343  0.39293015  1  0.007715  0  0.084406  0.069395  0  0.984473  0
H  H22  1  0.04592007  0.77130058  0.45760349  1  0.04099  0  0.086945  0.081791  0  0.982529  0
H  H23  1  0.89283452  0.74620532  0.38517306  1  0.007452  0  0.087591  0.085053  0  1.030603  0
H  H24  1  0.85315926  0.63348062  0.32156868  1  0.03323  0  0.09245  0.091315  0  0.975213  0
H  H25  1  0.35579781  0.11400141  0.57621290  1  0.054321  0  0.098464  0.095132  0  0.985195  0
H  H26  1  0.36848591  0.10867858  0.48396455  1  0.034777  0  0.095493  0.088509  0  1.004496  0
H  H27  1  0.30304558  0.01020817  0.47934416  1  0.074861  0  0.111323  0.117125  0  0.97226  0
H  H28  1  0.09852821  0.34463470  0.86254018  1  0.098434  0  0.109398  0.114761  0  0.98619  0
H  H29  1  0.11144436  0.27954685  0.34459834  1  0.012948  0  0.08359  0.111317  0  1.006156  0
H  H30  1  0.07762355  0.35648247  0.38146398  1  0.022016  0  0.083511  0.108637  0  1.01297  0
H  H31  1  0.11765601  0.35741474  0.30835528  1  0.040244  0  0.084156  0.113384  0  1.018014  0
H  H32  1  0.23263524  0.48007236  0.46015525  1  0.023499  0  0.088721  0.083278  0  0.970495  0
H  H33  1  0.26651899  0.40643079  0.41957349  1  0.006935  0  0.081403  0.065777  0  1.045879  0
H  H34  1  0.19216030  0.40493094  0.54181765  1  0.000523  0  0.092999  0.092342  0  1.014456  0
H  H35  1  0.30518027  0.46051710  0.57730808  1  0.071687  0  0.093144  0.101761  0  0.994667  0
H  H36  1  0.97981913  0.26305258  0.56875447  1  0.026169  0  0.078188  0.105766  0  1.038046  0
H  H37  1  0.03246592  0.36426902  0.57290520  1  -0.034729  0  0.080073  0.10182  0  1.009976  0
H  H38  1  0.93017559  0.27753154  0.47941581  1  0.012238  0  0.085089  0.112006  0  1.001245  0
H  H39  1  0.81575175  0.21107882  0.72283527  1  0.075283  0  0.110462  0.114196  0  0.984194  0
H  H40  1  0.05385582  0.28914733  0.44931804  1  -0.008471  0  0.085121  0.071895  0  1.030853  0
H  H41  1  0.00140351  0.18789021  0.44323709  1  0.046689  0  0.084857  0.084077  0  0.99761  0
H  H42  1  0.11599920  0.23995407  0.59033203  1  0.00175  0  0.090958  0.090999  0  0.997912  0
H  H43  1  0.16646938  0.34702870  0.60877140  1  0.040665  0  0.092794  0.087936  0  0.991185  0
H  H44  1  0.30510190  0.23825154  0.23653931  1  0.031571  0  0.082528  0.113021  0  1.01079  0
H  H45  1  0.20567969  0.18684132  0.13674843  1  0.020707  0  0.082198  0.105995  0  1.005847  0
H  H46  1  0.30701165  0.21609189  0.13757485  1  0.014839  0  0.084319  0.108742  0  1.006982  0
H  H47  1  0.25886960  0.32567482  0.12655362  1  -0.012977  0  0.083856  0.069137  0  0.982373  0
H  H48  1  0.35696430  0.37666373  0.22655460  1  0.022837  0  0.085612  0.081026  0  0.98836  0
H  H49  1  0.26772687  0.35328032  0.30030763  1  0.069835  0  0.091943  0.096154  0  1.019283  0
H  H50  1  0.81339619  0.10875080  0.59400397  1  0.081168  0  0.110956  0.114748  0  0.983655  0
H  H51  1  0.17112733  0.30695887  0.20046087  1  -0.016925  0  0.09148  0.08601  0  0.982977  0
H  H52  1  0.25774882  0.81880075  0.24494336  1  0.006592  0  0.08438  0.111031  0  1.006905  0
H  H53  1  0.34001201  0.87306048  0.35619457  1  0.02892  0  0.081288  0.102107  0  1.013627  0
H  H54  1  0.37066033  0.87192260  0.27595216  1  0.028531  0  0.084413  0.10834  0  1.006561  0
H  H55  1  0.39095505  0.76200122  0.31901192  1  0.00498  0  0.084888  0.071358  0  0.980177  0
H  H56  1  0.30876520  0.70842722  0.20828840  1  0.032949  0  0.086672  0.083384  0  0.992848  0
H  H57  1  0.19267989  0.67957243  0.25110466  1  0.044218  0  0.093181  0.097718  0  0.987277  0
H  H58  1  0.27505275  0.72956128  0.36099721  1  0.030898  0  0.092885  0.090094  0  0.976306  0
H  H59  1  0.08134445  0.02594446  0.21430130  1  0.027785  0  0.088765  0.076472  0  1.001201  0
H  H60  1  0.14289476  0.97486996  0.18911616  1  0.023492  0  0.088001  0.078966  0  0.999721  0
H  H61  1  0.35529547  0.21337446  0.46124134  1  0.111826  0  0.107574  0.125791  0  1.012215  0
H  H62  1  0.18875886  0.06098370  0.29782242  1  0.054973  0  0.101051  0.109765  0  1.000533  0
H  H63  1  0.14154561  0.38743609  0.13002270  1  0.076143  0  0.1054  0.113061  0  0.994224  0
H  H64  1  0.90765816  0.58307673  0.22192334  1  0.078328  0  0.106445  0.114247  0  0.994151  0
H  H65  1  0.35999693  0.66173327  0.40959473  1  0.092602  0  0.105818  0.113676  0  0.995835  0
C  C66  1  0.90132749  0.87136687  0.51833123  1  1.536299  0  0.219233  0.596269  0  4.153955  0
C  C67  1  0.83293367  0.79380467  0.50923142  1  -0.04086  0  -0.013095  -0.032683  0  3.979954  0
C  C68  1  0.03477066  0.23076604  0.73580170  1  -0.05023  0  -0.079815  -0.093274  0  3.975328  0
C  C69  1  0.96188149  0.87174772  0.35673882  1  1.542325  0  0.230665  0.633492  0  4.118718  0
C  C70  1  0.03644056  0.29140634  0.80440674  1  0.018295  0  -0.080176  -0.094035  0  3.976868  0
C  C71  1  0.95731963  0.28384107  0.79988187  1  -0.042824  0  -0.009819  -0.017852  0  3.961129  0
C  C72  1  0.87674334  0.21668960  0.72512478  1  -0.005667  0  -0.078672  -0.096307  0  3.965753  0
C  C73  1  0.87539600  0.15938930  0.65376337  1  -0.024175  0  -0.077807  -0.094973  0  3.96781  0
C  C74  1  0.95437298  0.16553665  0.65944384  1  -0.002954  0  -0.00991  -0.023308  0  3.967981  0
C  C75  1  0.25025517  0.16283668  0.48734410  1  0.472674  0  0.084884  0.231258  0  4.078809  0
C  C76  1  0.30843640  0.22468618  0.47885291  1  -0.01753  0  -0.103009  -0.23601  0  4.015669  0
C  C77  1  0.98257594  0.73778887  0.16947312  1  -0.004964  0  -0.004429  0.076929  0  3.916183  0
C  C78  1  0.30739962  0.30299689  0.49282700  1  -0.030102  0  -0.017336  -0.065479  0  3.956161  0
C  C79  1  0.24653409  0.32072170  0.51389768  1  0.036975  0  -0.002971  0.052126  0  3.85633  0
C  C80  1  0.18917181  0.25863779  0.52465774  1  -0.025687  0  0.0021  0.066861  0  3.886593  0
C  C81  1  0.12631837  0.11110083  0.51544515  1  1.550732  0  0.229791  0.640296  0  4.115444  0
C  C82  1  0.19123326  0.18021027  0.51065886  1  0.013515  0  -0.01814  -0.174075  0  3.919617  0
C  C83  1  0.12951574  0.52040937  0.12119023  1  1.55233  0  0.22539  0.612893  0  4.127105  0
C  C84  1  0.96155825  0.58603029  0.10478717  1  1.507005  0  0.217653  0.609703  0  4.146922  0
C  C85  1  0.90787669  0.53199318  0.88723544  1  1.53108  0  0.220119  0.604243  0  4.144926  0
C  C86  1  0.96222012  0.35169737  0.87421957  1  1.533837  0  0.223569  0.607431  0  4.135286  0
C  C87  1  0.38306798  0.52845044  0.41009303  1  1.50538  0  0.222883  0.603483  0  4.136317  0
C  C88  1  0.02065389  0.79303530  0.13381353  1  -0.080526  0  -0.158923  -0.283816  0  3.862777  0
C  C89  1  0.61993260  0.58579003  0.48206650  1  1.561441  0  0.22155  0.608067  0  4.138205  0
C  C90  1  0.62204033  0.53867174  0.64965137  1  1.539989  0  0.220062  0.605351  0  4.139612  0
C  C91  1  0.37792134  0.36809537  0.48985037  1  1.531888  0  0.223376  0.608979  0  4.112962  0
C  C92  1  0.19240526  0.44815190  0.19099761  1  -0.036244  0  -0.086879  -0.161495  0  3.96703  0
C  C93  1  0.95701421  0.10250914  0.58783456  1  1.541482  0  0.22304  0.601925  0  4.1379  0
C  C94  1  0.25148480  0.44432786  0.25743858  1  -0.040426  0  0.002915  0.113158  0  3.924783  0
C  C95  1  0.31393944  0.52427491  0.33661407  1  0.041777  0  -0.014289  -0.082224  0  3.941401  0
C  C96  1  0.31317690  0.60208413  0.34645927  1  -0.085662  0  -0.08276  -0.148726  0  3.948083  0
C  C97  1  0.25579858  0.60600627  0.27856971  1  0.014674  0  -0.000832  0.100519  0  3.944938  0
C  C98  1  0.19554675  0.52672772  0.19909056  1  -0.007583  0  -0.010305  -0.0601  0  3.937691  0
C  C99  1  0.01396017  0.86811504  0.19875927  1  0.516544  0  0.013321  0.145431  0  3.868081  0
C  C100  1  0.77749781  0.55304092  0.85253959  1  -0.007429  0  -0.081158  -0.098503  0  3.975147  0
C  C101  1  0.70958130  0.55806131  0.79718727  1  -0.021453  0  -0.079884  -0.09725  0  3.974701  0
C  C102  1  0.70154883  0.54897692  0.71727218  1  -0.00961  0  -0.011637  -0.017069  0  3.966931  0
C  C103  1  0.76562353  0.54260119  0.69651192  1  -0.052807  0  -0.082633  -0.098072  0  3.979603  0
C  C104  1  0.83723432  0.54448640  0.75497910  1  -0.044587  0  -0.081435  -0.101987  0  3.982923  0
C  C105  1  0.97900291  0.80389424  0.22782284  1  -0.026743  0  -0.012884  -0.021525  0  3.908673  0
C  C106  1  0.84114316  0.54593011  0.83137134  1  0.014367  0  -0.010292  -0.014908  0  3.970218  0
C  C107  1  0.95553249  0.79585813  0.28895062  1  0.013538  0  -0.001035  -0.085445  0  3.904794  0
C  C108  1  0.93060576  0.71433362  0.28725400  1  0.008369  0  0.000692  0.096612  0  3.93535  0
C  C109  1  0.92842473  0.64612151  0.22373024  1  -0.032258  0  -0.081805  -0.150065  0  3.942783  0
C  C110  1  0.84141572  0.78189421  0.58102080  1  0.00249  0  -0.076946  -0.090597  0  3.979128  0
C  C111  1  0.95572906  0.65608855  0.16467766  1  0.008356  0  -0.020414  -0.082574  0  4.01596  0
C  C112  1  0.91069986  0.69909918  0.35426248  1  0.010161  0  -0.163141  -0.19882  0  3.959114  0
C  C113  1  0.98897934  0.70546781  0.42511421  1  -0.011125  0  -0.165506  -0.082313  0  3.948375  0
C  C114  1  0.96978093  0.68737526  0.49229682  1  -0.040748  0  -0.249744  -0.356536  0  3.980576  0
C  C115  1  0.32289117  0.07977260  0.50437356  1  0.389292  0  -0.132272  -0.167356  0  3.93001  0
C  C116  1  0.24180987  0.40296469  0.52357086  1  -0.01181  0  -0.165886  -0.201079  0  3.946209  0
C  C117  1  0.22002564  0.41264338  0.44133230  1  0.014158  0  -0.16864  -0.088285  0  3.945323  0
C  C118  1  0.12656311  0.34779836  0.36489441  1  -0.081696  0  -0.247996  -0.35944  0  3.979105  0
C  C119  1  0.12984833  0.27770991  0.55750599  1  0.007703  0  -0.161009  -0.188522  0  3.949381  0
C  C120  1  0.04194818  0.25890851  0.48850344  1  0.008592  0  -0.171082  -0.098618  0  3.952815  0
C  C121  1  0.77203712  0.71319126  0.57127682  1  -0.060004  0  -0.081598  -0.100474  0  3.973833  0
C  C122  1  0.99344609  0.29268785  0.52958354  1  -0.015208  0  -0.248345  -0.350913  0  3.986003  0
C  C123  1  0.24192887  0.35547018  0.23957724  1  0.006566  0  -0.163161  -0.201433  0  3.962091  0
C  C124  1  0.28680145  0.32696462  0.18937642  1  0.043569  0  -0.165707  -0.084374  0  3.957596  0
C  C125  1  0.27568645  0.23711886  0.17410476  1  -0.077804  0  -0.246303  -0.353843  0  3.983778  0
C  C126  1  0.25827847  0.69165707  0.29295803  1  -0.009181  0  -0.15987  -0.196663  0  3.963987  0
C  C127  1  0.32465030  0.74751444  0.27557390  1  0.006426  0  -0.166286  -0.090581  0  3.963941  0
C  C128  1  0.32338887  0.83254141  0.28890645  1  -0.066999  0  -0.244484  -0.349741  0  3.989155  0
C  C129  1  0.12793800  0.00422797  0.23992587  1  0.422244  0  -0.144605  -0.167608  0  3.980844  0
C  C130  1  0.69689634  0.65286291  0.48874215  1  -0.010488  0  -0.007029  -0.00884  0  3.964864  0
C  C131  1  0.69100454  0.66117893  0.41572851  1  -0.072942  0  -0.080958  -0.103127  0  3.977241  0
C  C132  1  0.75763745  0.73341668  0.42679449  1  0.009719  0  -0.077172  -0.086195  0  3.971001  0
O  O133  1  0.87414433  0.89882125  0.46682960  1  -1.178559  0  -0.313431  -0.575907  0  2.360929  0
O  O134  1  0.41041818  0.47476254  0.39012494  1  -1.182401  0  -0.30499  -0.56885  0  2.403671  0
O  O135  1  0.59379951  0.61624573  0.53295221  1  -1.171419  0  -0.310844  -0.567756  0  2.321049  0
O  O136  1  0.98248675  0.90494077  0.57574563  1  -1.135033  0  -0.314763  -0.527196  0  2.225133  0
O  O137  1  0.58589607  0.50429447  0.42724652  1  -1.13328  0  -0.319266  -0.531116  0  2.210522  0
O  O138  1  0.59086082  0.58876363  0.67301840  1  -1.129867  0  -0.31886  -0.529107  0  2.219265  0
O  O139  1  0.59090448  0.47963349  0.57208875  1  -1.176644  0  -0.313844  -0.572271  0  2.338683  0
O  O140  1  0.41112834  0.44908836  0.54168049  1  -1.183701  0  -0.306093  -0.56396  0  2.375053  0
O  O141  1  0.40366233  0.33811500  0.43643008  1  -1.135052  0  -0.319699  -0.538576  0  2.242403  0
O  O142  1  0.91032473  0.90102449  0.33079207  1  -1.123813  0  -0.316353  -0.52925  0  2.20673  0
O  O143  1  0.01798646  0.90140715  0.43534985  1  -1.166028  0  -0.30196  -0.558045  0  2.321668  0
O  O144  1  0.05020018  0.46148269  0.08576044  1  -1.182174  0  -0.31214  -0.568458  0  2.315187  0
O  O145  1  0.04578228  0.08108275  0.46290272  1  -1.166746  0  -0.303342  -0.562974  0  2.348473  0
O  O146  1  0.15467373  0.08680691  0.57081866  1  -1.120658  0  -0.314164  -0.529607  0  2.230813  0
O  O147  1  0.90086257  0.07277948  0.50771219  1  -1.13177  0  -0.313768  -0.52534  0  2.215555  0
O  O148  1  0.01698535  0.08307925  0.61196718  1  -1.178154  0  -0.313695  -0.577304  0  2.346135  0
O  O149  1  0.15712481  0.57305010  0.09382102  1  -1.129464  0  -0.307889  -0.52215  0  2.262232  0
O  O150  1  0.24320810  0.08229001  0.46866128  1  -1.064122  0  -0.191662  -0.162788  0  2.565024  0
O  O151  1  0.09362069  0.94460019  0.26712353  1  -1.046538  0  -0.231069  -0.202265  0  2.508925  0
O  O152  1  0.01729471  0.61073351  0.08109236  1  -1.171872  0  -0.311254  -0.570486  0  2.333089  0
O  O153  1  0.91098350  0.50553444  0.08064057  1  -1.13144  0  -0.322254  -0.534226  0  2.225939  0
O  O154  1  0.98886349  0.57578181  0.90862918  1  -1.132921  0  -0.321224  -0.53195  0  2.217111  0
O  O155  1  0.87912926  0.47642872  0.90973586  1  -1.166788  0  -0.310775  -0.569947  0  2.32426  0
O  O156  1  0.02397997  0.42961960  0.90975181  1  -1.172305  0  -0.313147  -0.571635  0  2.326591  0
O  O157  1  0.90489796  0.32789031  0.89760849  1  -1.129376  0  -0.31761  -0.528828  0  2.224908  0
O  O158  1  0.41262203  0.58609879  0.48941496  1  -1.128664  0  -0.317936  -0.533707  0  2.229448  0
