# generated using pymatgen
data_Zr6H43C62N5(ClO16)2
_symmetry_space_group_name_H-M   'P 1'
_cell_length_a   14.85162272
_cell_length_b   14.84724173
_cell_length_c   14.83410651
_cell_angle_alpha   59.96467981
_cell_angle_beta   59.94090311
_cell_angle_gamma   59.85510879
_symmetry_Int_Tables_number   1
_chemical_formula_structural   Zr6H43C62N5(ClO16)2
_chemical_formula_sum   'Zr6 H43 C62 N5 Cl2 O32'
_cell_volume   2308.75922568
_cell_formula_units_Z   1
loop_
 _symmetry_equiv_pos_site_id
 _symmetry_equiv_pos_as_xyz
  1  'x, y, z'
loop_
 _atom_site_type_symbol
 _atom_site_label
 _atom_site_symmetry_multiplicity
 _atom_site_fract_x
 _atom_site_fract_y
 _atom_site_fract_z
 _atom_site_occupancy
 _atom_site_pbe_bader_charge
 _atom_site_pbe_bader_spin_density
 _atom_site_pbe_cm5_charge
 _atom_site_pbe_ddec_charge
 _atom_site_pbe_ddec_spin_density
 _atom_site_pbe_ddec_sum_bond_order
 _atom_site_pbe_magmom
Zr  Zr0  1  0.88209894  0.37681321  0.61993614  1  2.631998  0  1.630207  2.373996  0  2.756636  0
Zr  Zr1  1  0.11869744  0.61752258  0.38026551  1  2.631006  0  1.622292  2.368649  0  2.746962  0
Zr  Zr2  1  0.12036631  0.37999581  0.61870359  1  2.62873  0  1.62377  2.361062  0  2.784213  0
Zr  Zr3  1  0.88153931  0.61456033  0.38198308  1  2.631195  0  1.630063  2.370115  0  2.758768  0
Zr  Zr4  1  0.88204708  0.61433651  0.62105300  1  2.63203  0  1.625985  2.362279  0  2.775452  0
Zr  Zr5  1  0.12110389  0.37611956  0.38359045  1  2.631654  0  1.627655  2.363864  0  2.774262  0
H  H6  1  0.90938429  0.40371547  0.78296177  1  0.600656  0  0.328201  0.419379  0  0.865713  0
H  H7  1  0.90671450  0.77811397  0.40778234  1  0.587003  0  0.327374  0.417053  0  0.867924  0
H  H8  1  0.28240275  0.40532113  0.40677132  1  0.596216  0  0.33228  0.425055  0  0.853701  0
H  H9  1  0.90814834  0.40196674  0.40757226  1  0.608138  0  0.333319  0.424781  0  0.853712  0
H  H10  1  0.57740707  0.36647760  0.89973781  1  0.082771  0  0.105087  0.11655  0  1.014804  0
H  H11  1  0.53193470  0.75799890  0.87815305  1  0.045641  0  0.089424  0.096213  0  0.994334  0
H  H12  1  0.62158765  0.66827052  0.95856320  1  0.044743  0  0.087805  0.091727  0  1.026934  0
H  H13  1  0.45780561  0.65420577  0.13247070  1  0.032233  0  0.089274  0.097293  0  1.005633  0
H  H14  1  0.36697283  0.74825244  0.05353621  1  0.048814  0  0.087611  0.098329  0  1.012149  0
H  H15  1  0.86675707  0.07947151  0.64980170  1  0.087065  0  0.105037  0.119296  0  1.008701  0
H  H16  1  0.24823033  0.04867570  0.30569909  1  0.038343  0  0.087002  0.090061  0  1.037848  0
H  H17  1  0.14835421  0.12835507  0.23713659  1  0.018789  0  0.087891  0.092392  0  0.999892  0
H  H18  1  0.15003226  0.95177830  0.24859424  1  0.02073  0  0.093577  0.104544  0  0.985886  0
H  H19  1  0.24334833  0.87333781  0.32504388  1  0.066762  0  0.09006  0.101077  0  1.020433  0
H  H20  1  0.59565069  0.91084982  0.64102798  1  0.091658  0  0.101646  0.113781  0  1.01856  0
H  H21  1  0.51370652  0.85975364  0.36108372  1  0.041524  0  0.092628  0.103537  0  0.991807  0
H  H22  1  0.60481772  0.93719840  0.26119142  1  0.060599  0  0.090592  0.098961  0  1.006079  0
H  H23  1  0.44211226  0.11442111  0.26293364  1  0.033155  0  0.090012  0.097776  0  1.006194  0
H  H24  1  0.35157713  0.03617937  0.35972329  1  0.06344  0  0.094937  0.107308  0  1.014468  0
H  H25  1  0.14974067  0.35293129  0.08717612  1  0.052253  0  0.100188  0.10988  0  1.024249  0
H  H26  1  0.84540249  0.75803481  0.03285954  1  0.055285  0  0.094869  0.105673  0  0.983887  0
H  H27  1  0.75796105  0.67577329  0.11429562  1  0.028239  0  0.089819  0.094531  0  0.995514  0
H  H28  1  0.76493171  0.67623589  0.94069592  1  0.030089  0  0.088161  0.092244  0  1.027689  0
H  H29  1  0.85555769  0.75518391  0.85922714  1  0.054918  0  0.090169  0.10129  0  1.026137  0
H  H30  1  0.81170019  0.26008867  0.92747446  1  0.091278  0  0.099128  0.103611  0  1.04534  0
H  H31  1  0.65206265  0.26461341  0.09746108  1  0.069806  0  0.097904  0.09813  0  1.015891  0
H  H32  1  0.81126994  0.92541537  0.26365947  1  0.084368  0  0.099977  0.102868  0  1.042806  0
H  H33  1  0.65233970  0.09637640  0.26741401  1  0.083467  0  0.101332  0.10037  0  1.011895  0
H  H34  1  0.58356247  0.64785962  0.36379494  1  0.062559  0  0.103088  0.114236  0  1.021872  0
H  H35  1  0.53125469  0.33284573  0.76207242  1  0.028443  0  0.088326  0.093456  0  1.001777  0
H  H36  1  0.61712868  0.24922929  0.67535221  1  0.05631  0  0.088608  0.09353  0  0.997074  0
H  H37  1  0.44838936  0.25645047  0.66679972  1  0.056173  0  0.086179  0.096479  0  1.024468  0
H  H38  1  0.36186034  0.33927173  0.75481315  1  0.069505  0  0.086671  0.097514  0  1.030185  0
H  H39  1  0.33285926  0.34040146  0.13911386  1  0.500041  0  0.305896  0.317017  0  0.986848  0
H  H40  1  0.43559203  0.29274809  0.02782992  1  0.443368  0  0.313559  0.307522  0  0.940516  0
H  H41  1  0.82793943  0.84576214  0.67452504  1  0.506314  0  0.305093  0.312521  0  0.987236  0
H  H42  1  0.77615573  0.95392684  0.72405844  1  0.431086  0  0.312587  0.303498  0  0.938566  0
H  H43  1  0.35011695  0.14679771  0.67584749  1  0.497101  0  0.30058  0.306814  0  0.990725  0
H  H44  1  0.45365180  0.03936670  0.72861935  1  0.426266  0  0.308358  0.299349  0  0.941427  0
H  H45  1  0.16800992  0.31887268  0.85433727  1  0.491315  0  0.30232  0.310041  0  0.989304  0
H  H46  1  0.21224025  0.26075799  0.96661807  1  0.411634  0  0.308863  0.298256  0  0.944884  0
H  H47  1  0.34639621  0.67392537  0.33000081  1  0.493099  0  0.303903  0.311162  0  0.991018  0
H  H48  1  0.45572150  0.72191925  0.27555799  1  0.431116  0  0.310976  0.30234  0  0.941832  0
C  C49  1  0.69398582  0.50149104  0.79931085  1  1.552084  0  0.238754  0.647594  0  4.096943  0
C  C50  1  0.99909140  0.79937916  0.50449520  1  1.518596  0  0.230747  0.654055  0  4.094835  0
C  C51  1  0.29959780  0.50049338  0.19262036  1  1.495693  0  0.22764  0.649852  0  4.103158  0
C  C52  1  0.00566124  0.19126783  0.50139174  1  1.551119  0  0.23699  0.646653  0  4.097066  0
C  C53  1  0.00634699  0.18807188  0.79860893  1  1.596406  0  0.234412  0.657973  0  4.109463  0
C  C54  1  0.69411922  0.50059774  0.50570634  1  1.545123  0  0.23851  0.650425  0  4.094895  0
C  C55  1  0.00370101  0.79445305  0.19162393  1  1.57824  0  0.23602  0.657412  0  4.11552  0
C  C56  1  0.29951141  0.50633220  0.50203913  1  1.505088  0  0.230901  0.655034  0  4.092485  0
C  C57  1  0.00795335  0.49849214  0.80120481  1  1.504802  0  0.231628  0.653029  0  4.09621  0
C  C58  1  0.30370407  0.19144980  0.50683420  1  1.491875  0  0.229464  0.650766  0  4.103573  0
C  C59  1  0.00710939  0.49804888  0.19552487  1  1.535953  0  0.237514  0.64925  0  4.09625  0
C  C60  1  0.69490325  0.79443683  0.50551155  1  1.535176  0  0.236531  0.645715  0  4.099873  0
C  C61  1  0.59010208  0.50586945  0.89562985  1  -0.034592  0  -0.013442  -0.057359  0  4.01368  0
C  C62  1  0.39568982  0.50140743  0.09072372  1  0.017921  0  -0.031963  -0.218369  0  3.929509  0
C  C63  1  0.54031348  0.58359335  0.94848037  1  0.041326  0  -0.024568  0.020493  0  3.919482  0
C  C64  1  0.44427527  0.42301567  0.03515933  1  0.434847  0  0.113183  0.308334  0  4.066771  0
C  C65  1  0.44744355  0.57948834  0.04278212  1  -0.037929  0  -0.008866  0.080176  0  3.928899  0
C  C66  1  0.53989031  0.42759591  0.93996877  1  -0.026011  0  -0.098993  -0.231088  0  3.941368  0
C  C67  1  0.54654550  0.68227524  0.94867233  1  -0.01617  0  -0.156005  -0.188272  0  3.896902  0
C  C68  1  0.44244065  0.67600277  0.05762156  1  -0.021347  0  -0.157812  -0.199152  0  3.883989  0
C  C69  1  0.00387292  0.09304692  0.49946711  1  -0.017968  0  -0.014008  -0.058912  0  4.020016  0
C  C70  1  0.99722508  0.89863898  0.50580273  1  -0.035716  0  -0.029251  -0.21592  0  3.929759  0
C  C71  1  0.07763997  0.04562995  0.41617993  1  -0.000201  0  -0.024345  0.019715  0  3.913315  0
C  C72  1  0.91854763  0.94909022  0.58955642  1  0.507954  0  0.113126  0.308388  0  4.065277  0
C  C73  1  0.07373221  0.95149454  0.42147027  1  0.013561  0  -0.004806  0.085936  0  3.921094  0
C  C74  1  0.92523587  0.04345995  0.58435776  1  -0.043836  0  -0.100372  -0.228744  0  3.936901  0
C  C75  1  0.17103153  0.05505544  0.30632842  1  -0.006411  0  -0.156168  -0.190311  0  3.901838  0
C  C76  1  0.16910991  0.94566395  0.31451316  1  -0.008948  0  -0.156435  -0.199447  0  3.881708  0
C  C77  1  0.59486416  0.89480298  0.50589574  1  0.02389  0  -0.013552  -0.058149  0  4.016293  0
C  C78  1  0.40335674  0.09265984  0.50839310  1  -0.02796  0  -0.031282  -0.214474  0  3.929465  0
C  C79  1  0.53948248  0.94291958  0.43085603  1  -0.02753  0  -0.022205  0.023603  0  3.920042  0
C  C80  1  0.45948421  0.04367328  0.58610239  1  0.457472  0  0.108  0.302332  0  4.06008  0
C  C81  1  0.44803303  0.03868057  0.43279283  1  -0.029958  0  -0.006141  0.079707  0  3.926795  0
C  C82  1  0.55325423  0.94693192  0.58209663  1  -0.030275  0  -0.101142  -0.228133  0  3.941436  0
C  C83  1  0.53335122  0.93244909  0.33764305  1  -0.034037  0  -0.155346  -0.197893  0  3.892999  0
C  C84  1  0.43075492  0.04283013  0.33829490  1  -0.009191  0  -0.15491  -0.20034  0  3.884388  0
C  C85  1  0.00914480  0.50038603  0.09342890  1  -0.040871  0  -0.014859  -0.059787  0  4.027248  0
C  C86  1  0.01298838  0.49808666  0.89797383  1  -0.06191  0  -0.027944  -0.212561  0  3.923079  0
C  C87  1  0.93236918  0.58254359  0.04014690  1  0.000382  0  -0.021081  0.026918  0  3.916969  0
C  C88  1  0.09276843  0.41344128  0.95196153  1  0.441761  0  0.110836  0.304329  0  4.056617  0
C  C89  1  0.93566856  0.58051129  0.94592367  1  0.035956  0  -0.004683  0.084325  0  3.912459  0
C  C90  1  0.08855765  0.41749890  0.04725751  1  0.046582  0  -0.102751  -0.231904  0  3.953694  0
C  C91  1  0.83235663  0.68669085  0.04244890  1  -0.013286  0  -0.15507  -0.191774  0  3.89773  0
C  C92  1  0.83708019  0.68556467  0.93410196  1  -0.021123  0  -0.156794  -0.197785  0  3.880429  0
C  C93  1  0.00358602  0.08561763  0.89893672  1  0.020547  0  -0.014096  -0.122603  0  3.915776  0
C  C94  1  0.90882815  0.09026217  0.99666530  1  0.031452  0  -0.002614  0.066331  0  3.958857  0
C  C95  1  0.09131975  0.98756134  0.89600947  1  0.077651  0  0.010388  0.061081  0  4.051135  0
C  C96  1  0.81436634  0.18744391  0.00140349  1  -0.052902  0  -0.095136  -0.134004  0  3.971198  0
C  C97  1  0.72409376  0.18954366  0.09674065  1  -0.04688  0  -0.09391  -0.079935  0  4.028393  0
C  C98  1  0.00193162  0.89474413  0.08913663  1  0.098482  0  -0.012903  -0.121432  0  3.919403  0
C  C99  1  0.09012963  0.89117941  0.99161038  1  0.071139  0  0.009932  0.05797  0  4.055417  0
C  C100  1  0.90837391  0.99345405  0.09354313  1  -0.033115  0  -0.00243  0.065265  0  3.960896  0
C  C101  1  0.81410617  0.99900358  0.19064844  1  -0.048853  0  -0.093412  -0.13278  0  3.9705  0
C  C102  1  0.72412943  0.09472036  0.19227230  1  -0.049879  0  -0.09138  -0.077214  0  4.024828  0
C  C103  1  0.59180527  0.50347172  0.50757149  1  -0.070822  0  -0.014198  -0.059544  0  4.022673  0
C  C104  1  0.39639565  0.51001510  0.50271332  1  0.02571  0  -0.028981  -0.214414  0  3.923477  0
C  C105  1  0.53965170  0.42523758  0.58693782  1  0.055769  0  -0.022484  0.02509  0  3.915403  0
C  C106  1  0.44846796  0.59188823  0.42161464  1  0.439591  0  0.11096  0.306141  0  4.063786  0
C  C107  1  0.44596359  0.42937830  0.58317347  1  -0.038099  0  -0.003958  0.086967  0  3.90891  0
C  C108  1  0.54429520  0.58580805  0.42633455  1  -0.01868  0  -0.102653  -0.233635  0  3.945014  0
C  C109  1  0.54356000  0.32209963  0.68801585  1  -0.03752  0  -0.156063  -0.190176  0  3.901811  0
C  C110  1  0.43721142  0.32633691  0.68354629  1  -0.040779  0  -0.160792  -0.198645  0  3.870519  0
N  N111  1  0.40278633  0.34223145  0.07244734  1  -1.279508  0  -0.589447  -0.617976  0  3.373877  0
N  N112  1  0.83808945  0.90749166  0.67637021  1  -1.297544  0  -0.587606  -0.61215  0  3.377706  0
N  N113  1  0.42703801  0.08941860  0.66288718  1  -1.245421  0  -0.592722  -0.616112  0  3.362429  0
N  N114  1  0.17522034  0.32857199  0.91330530  1  -1.221108  0  -0.590151  -0.61115  0  3.361021  0
N  N115  1  0.40725601  0.67754898  0.33998138  1  -1.238197  0  -0.590884  -0.620533  0  3.376608  0
Cl  Cl116  1  0.19760476  0.76901793  0.98386811  1  -0.169847  0  0.01969  -0.033741  0  1.61772  0
Cl  Cl117  1  0.20134669  0.97968906  0.77536699  1  -0.180665  0  0.0059  -0.047373  0  1.594925  0
O  O118  1  0.73580473  0.42272307  0.76180625  1  -1.186221  0  -0.357167  -0.624597  0  2.289452  0
O  O119  1  0.07502947  0.76094941  0.42658808  1  -1.186132  0  -0.352733  -0.613536  0  2.260227  0
O  O120  1  0.26126039  0.57628296  0.23307854  1  -1.172568  0  -0.355549  -0.621158  0  2.279786  0
O  O121  1  0.92891376  0.23123899  0.57780897  1  -1.186586  0  -0.35713  -0.619902  0  2.291042  0
O  O122  1  0.08025848  0.22810893  0.76501333  1  -1.171341  0  -0.346554  -0.619736  0  2.262532  0
O  O123  1  0.73548478  0.57550630  0.42789577  1  -1.184457  0  -0.360007  -0.623018  0  2.292114  0
O  O124  1  0.92816639  0.75425425  0.23141661  1  -1.170157  0  -0.346355  -0.609725  0  2.283865  0
O  O125  1  0.26144196  0.42849354  0.57788173  1  -1.182022  0  -0.353415  -0.61355  0  2.260739  0
O  O126  1  0.92999216  0.57437143  0.76312902  1  -1.184792  0  -0.350099  -0.614178  0  2.251666  0
O  O127  1  0.26410341  0.22954420  0.43061807  1  -1.1752  0  -0.350794  -0.611955  0  2.264931  0
O  O128  1  0.08262273  0.42054904  0.23643474  1  -1.190124  0  -0.36107  -0.626305  0  2.292721  0
O  O129  1  0.73511993  0.75456484  0.58163178  1  -1.18397  0  -0.359537  -0.622096  0  2.300394  0
O  O130  1  0.26193298  0.23457592  0.58224464  1  -1.190407  0  -0.364655  -0.63348  0  2.336356  0
O  O131  1  0.92811771  0.57329072  0.23602082  1  -1.17372  0  -0.351298  -0.606045  0  2.270111  0
O  O132  1  0.73455818  0.75715801  0.42708264  1  -1.176385  0  -0.349708  -0.608181  0  2.264272  0
O  O133  1  0.08205767  0.42016358  0.76076510  1  -1.187522  0  -0.366451  -0.632146  0  2.32313  0
O  O134  1  0.93076866  0.22766154  0.75815377  1  -1.173588  0  -0.350506  -0.608646  0  2.283071  0
O  O135  1  0.25910314  0.58058894  0.42386478  1  -1.18524  0  -0.361627  -0.631158  0  2.309079  0
O  O136  1  0.07773982  0.76075397  0.23177920  1  -1.170299  0  -0.347837  -0.617674  0  2.274803  0
O  O137  1  0.73451675  0.42222834  0.58124669  1  -1.179163  0  -0.351729  -0.610764  0  2.259944  0
O  O138  1  0.08343410  0.22943028  0.42555555  1  -1.179291  0  -0.353576  -0.611695  0  2.256973  0
O  O139  1  0.73529455  0.57579393  0.76281045  1  -1.174996  0  -0.352698  -0.608913  0  2.267491  0
O  O140  1  0.92314936  0.75705952  0.58118646  1  -1.19658  0  -0.36259  -0.631827  0  2.315632  0
O  O141  1  0.26030111  0.42189671  0.23675650  1  -1.192536  0  -0.361773  -0.627199  0  2.321786  0
O  O142  1  0.93457798  0.42856069  0.43449117  1  -1.232458  0  -0.696526  -1.071388  0  2.373358  0
O  O143  1  0.20237021  0.43101674  0.43350913  1  -1.223398  0  -0.697071  -1.069968  0  2.370676  0
O  O144  1  0.93296586  0.69809562  0.43270756  1  -1.219092  0  -0.694661  -1.06965  0  2.367228  0
O  O145  1  0.93463641  0.42855436  0.70298437  1  -1.23445  0  -0.696261  -1.072796  0  2.368554  0
O  O146  1  0.05032758  0.54754026  0.54953313  1  -1.197573  0  -0.794416  -1.145605  0  2.144207  0
O  O147  1  0.85318473  0.54518120  0.55089936  1  -1.195654  0  -0.792168  -1.148465  0  2.130927  0
O  O148  1  0.05038912  0.54560088  0.35295627  1  -1.192756  0  -0.790641  -1.143628  0  2.12589  0
O  O149  1  0.05101362  0.34825762  0.55125084  1  -1.197305  0  -0.794191  -1.145497  0  2.135525  0
