# generated using pymatgen
data_Co3H38C48(N2O3)4
_symmetry_space_group_name_H-M   'P 1'
_cell_length_a   9.13696850
_cell_length_b   9.84157718
_cell_length_c   13.15591199
_cell_angle_alpha   100.30586834
_cell_angle_beta   92.06464039
_cell_angle_gamma   101.46353727
_symmetry_Int_Tables_number   1
_chemical_formula_structural   Co3H38C48(N2O3)4
_chemical_formula_sum   'Co3 H38 C48 N8 O12'
_cell_volume   1137.55616241
_cell_formula_units_Z   1
loop_
 _symmetry_equiv_pos_site_id
 _symmetry_equiv_pos_as_xyz
  1  'x, y, z'
loop_
 _atom_site_type_symbol
 _atom_site_label
 _atom_site_symmetry_multiplicity
 _atom_site_fract_x
 _atom_site_fract_y
 _atom_site_fract_z
 _atom_site_occupancy
 _atom_site_pbe_bader_charge
 _atom_site_pbe_bader_spin_density
 _atom_site_pbe_cm5_charge
 _atom_site_pbe_ddec_charge
 _atom_site_pbe_ddec_spin_density
 _atom_site_pbe_ddec_sum_bond_order
 _atom_site_pbe_magmom
Co  Co0  1  0.85686337  0.05351821  0.26270575  1  1.243263  2.587385  0.654587  0.892884  2.777236  2.467273  2.542
Co  Co1  1  0.14313283  0.94648151  0.73729795  1  1.24327  2.587366  0.654628  0.892857  2.777225  2.467429  2.542
Co  Co2  1  0.00000182  0.00000500  0.49999943  1  1.295324  2.618335  0.659195  0.91889  2.839961  2.395961  2.601
H  H3  1  0.45065372  0.20622420  0.16556246  1  0.044235  0.000248  0.101265  0.118186  4.8e-05  0.980426  0.0
H  H4  1  0.60542257  0.33532896  0.14777691  1  0.03047  0.000485  0.096177  0.11088  0.000162  0.991784  0.0
H  H5  1  0.17262352  0.07597048  0.14906757  1  0.120061  0.000852  0.119152  0.110156  0.000152  1.01422  0.001
H  H6  1  0.19321278  0.87442063  0.97479313  1  0.182749  0.000906  0.125643  0.140366  0.000281  1.030668  0.0
H  H7  1  0.77481348  0.76540017  0.10387076  1  0.173538  0.000685  0.137723  0.112823  5.5e-05  1.013209  0.001
H  H8  1  0.69701903  0.63880321  0.94164313  1  0.064944  1.1e-05  0.110296  0.115917  -3.2e-05  0.997516  0.0
H  H9  1  0.63453018  0.41046048  0.81921756  1  0.095011  0.000137  0.111687  0.120877  8.5e-05  1.015951  0.0
H  H10  1  0.10570847  0.41232123  0.80261613  1  0.072682  -2.4e-05  0.10636  0.104117  -7e-05  1.032674  0.0
H  H11  1  0.16752418  0.64149254  0.92274691  1  0.073497  0.000118  0.109699  0.112824  3.8e-05  1.01515  0.0
H  H12  1  0.60637843  0.17042992  0.76538929  1  0.169094  0.000819  0.124977  0.138641  0.000299  1.019805  0.0
H  H13  1  0.65501287  0.94988001  0.61854933  1  0.105922  0.000571  0.120508  0.113596  8.9e-05  1.025173  0.0
H  H14  1  0.03680960  0.27841744  0.65406865  1  0.162068  0.000337  0.136844  0.101947  -0.000203  1.020876  0.0
H  H15  1  0.70344233  0.77477359  0.48576415  1  0.117849  0.000376  0.105469  0.136385  -7.7e-05  1.033998  0.0
H  H16  1  0.54539941  0.84512906  0.46183211  1  0.084168  0.000175  0.111663  0.137294  8e-06  0.972275  0.0
H  H17  1  0.68911886  0.55643154  0.28831847  1  0.040034  0.000102  0.089041  0.09216  1.1e-05  1.031177  0.0
H  H18  1  0.28225236  0.25344596  0.29557026  1  0.0855  0.000112  0.093657  0.095283  -8e-05  1.049458  0.0
H  H19  1  0.34367786  0.67202720  0.47875204  1  0.121733  0.000112  0.10308  0.12759  2.4e-05  1.011834  0.0
H  H20  1  0.14721967  0.46752295  0.51279760  1  0.04843  0.001894  0.104336  0.128432  0.000694  0.980188  0.001
H  H21  1  0.07164047  0.48990153  0.39203909  1  0.052728  0.000461  0.100883  0.121369  0.000116  0.98984  0.0
H  H22  1  0.54934041  0.79377223  0.83442406  1  0.044359  0.000247  0.101251  0.118169  4.8e-05  0.980434  0.0
H  H23  1  0.39457050  0.66466221  0.85221193  1  0.03059  0.000485  0.096198  0.110926  0.000162  0.991778  0.0
H  H24  1  0.82736274  0.92403868  0.85094330  1  0.119983  0.000851  0.119183  0.110159  0.000152  1.014254  0.001
H  H25  1  0.80679448  0.12560026  0.02521281  1  0.183081  0.000906  0.125634  0.140395  0.000281  1.030719  0.0
H  H26  1  0.22519844  0.23457544  0.89613155  1  0.172806  0.000685  0.137755  0.112865  5.5e-05  1.013292  0.001
H  H27  1  0.30299437  0.36121133  0.05835143  1  0.065017  1.1e-05  0.110308  0.115888  -3.2e-05  0.997376  0.0
H  H28  1  0.36547817  0.58955087  0.18077725  1  0.094991  0.000136  0.11167  0.120885  8.5e-05  1.015781  0.0
H  H29  1  0.89430277  0.58767128  0.19739524  1  0.072554  -2.4e-05  0.106417  0.104149  -7e-05  1.032713  0.0
H  H30  1  0.83249164  0.35850632  0.07726234  1  0.072717  0.000118  0.109686  0.112817  3.8e-05  1.015171  0.0
H  H31  1  0.39362909  0.82958249  0.23460792  1  0.169166  0.000819  0.125006  0.138736  0.000299  1.019621  0.0
H  H32  1  0.34499417  0.05012930  0.38145811  1  0.105851  0.000571  0.120499  0.113576  9e-05  1.025073  0.0
H  H33  1  0.96318973  0.72159179  0.34593713  1  0.162001  0.000337  0.136839  0.101937  -0.000203  1.020798  0.0
H  H34  1  0.29654625  0.22521030  0.51424417  1  0.11788  0.000376  0.105456  0.136374  -7.7e-05  1.034103  0.0
H  H35  1  0.45459068  0.15485168  0.53817582  1  0.084006  0.000175  0.111704  0.137429  8e-06  0.972088  0.0
H  H36  1  0.31087395  0.44356383  0.71166787  1  0.040165  0.000102  0.08905  0.092209  1.1e-05  1.031215  0.0
H  H37  1  0.71774582  0.74654219  0.70443499  1  0.085353  0.000112  0.0937  0.095314  -8e-05  1.049349  0.0
H  H38  1  0.65631895  0.32796085  0.52123796  1  0.121559  0.000112  0.103012  0.127464  2.4e-05  1.011783  0.0
H  H39  1  0.85279333  0.53248424  0.48719978  1  0.048352  0.001894  0.104363  0.128447  0.000694  0.980239  0.001
H  H40  1  0.92837615  0.51012257  0.60796287  1  0.053006  0.000462  0.100932  0.121506  0.000116  0.989777  0.0
C  C41  1  0.54650848  0.28512475  0.20739266  1  -0.03413  0.003198  -0.15985  -0.333638  0.001879  3.955509  0.002
C  C42  1  0.09383296  0.98011372  0.11381491  1  0.389644  0.002063  0.001413  -0.021111  0.001147  4.003593  0.002
C  C43  1  0.10704897  0.88037735  0.02926557  1  0.258104  0.002968  0.005019  -0.0937  0.001477  3.870279  0.002
C  C44  1  0.88480487  0.82304012  0.09195675  1  0.957445  -0.00281  0.139769  0.085354  -0.003818  3.917155  -0.002
C  C45  1  0.93651254  0.65367621  0.94170537  1  0.274869  0.000153  0.097175  0.164877  -7.9e-05  4.011883  0.0
C  C46  1  0.78680781  0.58766144  0.91296383  1  -0.033572  5e-05  -0.086522  -0.154111  -7e-05  3.982274  0.0
C  C47  1  0.75119848  0.45848750  0.84448465  1  0.105621  0.000326  -0.080585  -0.1386  0.000174  3.969163  0.0
C  C48  1  0.86592718  0.39503259  0.80410063  1  0.348907  0.000465  0.098898  0.167375  0.000224  4.006959  0.0
C  C49  1  0.01571385  0.46257430  0.83179077  1  -0.039013  -0.000263  -0.087534  -0.156709  -0.000379  3.992601  0.0
C  C50  1  0.05097257  0.59130612  0.89991277  1  0.021215  0.000686  -0.080158  -0.127812  0.000266  3.975138  0.001
C  C51  1  0.70372022  0.15877967  0.72249905  1  0.284515  0.003967  0.003654  -0.099363  0.002109  3.890997  0.003
C  C52  1  0.72929931  0.05068465  0.64830579  1  0.395638  0.001048  0.004193  -0.015041  0.000262  3.962654  0.001
C  C53  1  0.92961559  0.21624891  0.66630107  1  0.978821  -0.001514  0.143422  0.107617  -0.002306  3.911405  -0.001
C  C54  1  0.69655042  0.85043827  0.34516126  1  1.520918  0.002964  0.213329  0.643285  0.001852  4.09589  0.002
C  C55  1  0.61807982  0.77633462  0.42540805  1  -0.069878  0.002194  -0.162436  -0.36003  0.000996  3.932641  0.001
C  C56  1  0.52602997  0.63040501  0.38710790  1  -0.036128  0.001272  -0.010672  0.158469  0.000669  4.002792  0.001
C  C57  1  0.57933408  0.52858671  0.31821214  1  -0.006603  0.001123  -0.100803  -0.210477  0.00055  3.942264  0.001
C  C58  1  0.49297742  0.39232544  0.28538188  1  -0.033597  0.001727  -0.016766  0.145107  0.000854  4.025964  0.001
C  C59  1  0.35171358  0.35841755  0.32310170  1  -0.081212  0.001175  -0.102959  -0.21546  0.000533  3.951686  0.001
C  C60  1  0.29616050  0.45852809  0.39130428  1  -0.010114  -0.000171  -0.009444  0.158088  -0.000452  3.983454  0.0
C  C61  1  0.38467106  0.59392173  0.42353034  1  -0.093317  0.001352  -0.095769  -0.21208  0.00073  3.916615  0.001
C  C62  1  0.14044863  0.42942539  0.42871699  1  -0.024996  0.010095  -0.156641  -0.342007  0.005307  3.918724  0.008
C  C63  1  0.06295415  0.27507970  0.40330593  1  1.582012  -0.001984  0.222447  0.657114  -0.003298  4.105149  -0.001
C  C64  1  0.65006429  0.20154042  0.25105750  1  1.558896  0.001748  0.19807  0.622168  0.001077  4.157276  0.0
C  C65  1  0.45347945  0.71486319  0.79259110  1  -0.034599  0.003199  -0.159863  -0.333712  0.001879  3.955403  0.002
C  C66  1  0.90615842  0.01988385  0.88618919  1  0.389824  0.002063  0.00135  -0.021118  0.001147  4.00326  0.002
C  C67  1  0.89295261  0.11963192  0.97074330  1  0.2577  0.002969  0.005033  -0.093772  0.001477  3.870135  0.002
C  C68  1  0.11520160  0.17694599  0.90804609  1  0.957724  -0.002809  0.139742  0.085282  -0.003818  3.917069  -0.002
C  C69  1  0.06350007  0.34633415  0.05829470  1  0.274843  0.000153  0.09717  0.164902  -7.9e-05  4.012044  0.0
C  C70  1  0.21320060  0.41234993  0.08703403  1  -0.033504  5e-05  -0.086573  -0.154124  -7e-05  3.982154  0.0
C  C71  1  0.24881825  0.54152709  0.15551226  1  0.105565  0.000326  -0.080453  -0.138482  0.000174  3.968808  0.0
C  C72  1  0.13408100  0.60496719  0.19589797  1  0.348689  0.000465  0.098882  0.167325  0.000225  4.007153  0.0
C  C73  1  0.98429837  0.53743397  0.16821206  1  -0.038694  -0.000262  -0.087651  -0.156802  -0.000379  3.992688  0.0
C  C74  1  0.94903504  0.40869580  0.10009066  1  0.022163  0.000686  -0.080135  -0.127776  0.000266  3.974824  0.001
C  C75  1  0.29627938  0.84122537  0.27750998  1  0.284256  0.003966  0.003615  -0.099518  0.002109  3.891309  0.003
C  C76  1  0.27070256  0.94931089  0.35169670  1  0.395819  0.001049  0.004221  -0.014955  0.000263  3.962875  0.001
C  C77  1  0.07039492  0.78375620  0.33370435  1  0.979339  -0.001513  0.143534  0.107808  -0.002304  3.911161  -0.001
C  C78  1  0.30343883  0.14955931  0.65484661  1  1.52033  0.002967  0.213011  0.64272  0.001853  4.096088  0.002
C  C79  1  0.38191954  0.22365357  0.57460179  1  -0.069731  0.002193  -0.162433  -0.360082  0.000996  3.932725  0.001
C  C80  1  0.47396827  0.36958415  0.61288836  1  -0.036232  0.001272  -0.0107  0.1584  0.000669  4.003108  0.001
C  C81  1  0.42066078  0.47140239  0.68177873  1  -0.005992  0.001123  -0.100816  -0.210564  0.00055  3.942541  0.001
C  C82  1  0.50702354  0.60766159  0.71460730  1  -0.03415  0.001728  -0.016743  0.145183  0.000854  4.025531  0.001
C  C83  1  0.64828460  0.64157158  0.67689152  1  -0.080439  0.001174  -0.103004  -0.215455  0.000533  3.951446  0.001
C  C84  1  0.70384163  0.54146423  0.60868791  1  -0.010524  -0.000171  -0.009512  0.15803  -0.000452  3.983406  0.0
C  C85  1  0.61532804  0.40607163  0.57646422  1  -0.093403  0.001352  -0.095707  -0.211888  0.00073  3.916301  0.001
C  C86  1  0.85954854  0.57058481  0.57127824  1  -0.025211  0.010097  -0.156686  -0.342236  0.005308  3.918938  0.008
C  C87  1  0.93703583  0.72493257  0.59669173  1  1.582343  -0.001985  0.222603  0.657481  -0.003301  4.105245  -0.001
C  C88  1  0.34992422  0.79844968  0.74893416  1  1.559169  0.001747  0.198012  0.62205  0.001076  4.157459  0.0
N  N89  1  0.95527572  0.94332277  0.15220553  1  -1.199398  0.059407  -0.360813  -0.317208  0.031287  3.677308  0.041
N  N90  1  0.97305173  0.78104772  0.01595747  1  -1.279324  0.004284  -0.224899  0.006741  0.001992  3.81308  0.004
N  N91  1  0.83311394  0.26378707  0.73413218  1  -1.274431  0.002597  -0.224534  0.005316  0.001217  3.799574  0.002
N  N92  1  0.87075150  0.08789975  0.61364889  1  -1.203799  0.049728  -0.344396  -0.303048  0.02708  3.564273  0.041
N  N93  1  0.04472000  0.05666430  0.84779725  1  -1.19911  0.059411  -0.360873  -0.317241  0.03129  3.677136  0.041
N  N94  1  0.02695524  0.21895630  0.98404699  1  -1.279287  0.004284  -0.224848  0.006823  0.001993  3.812892  0.004
N  N95  1  0.16689389  0.73621590  0.26587140  1  -1.274656  0.002598  -0.224571  0.005218  0.001217  3.799697  0.002
N  N96  1  0.12925465  0.91210534  0.38635873  1  -1.204028  0.049723  -0.34451  -0.303182  0.027079  3.564242  0.041
O  O97  1  0.81515369  0.95010794  0.37882904  1  -1.151665  0.120682  -0.321187  -0.604471  0.064711  2.531904  0.097
O  O98  1  0.64971160  0.82497748  0.25171125  1  -1.182749  0.042292  -0.310536  -0.55567  0.020841  2.125894  0.035
O  O99  1  0.06327359  0.20405519  0.47486073  1  -1.185318  0.060973  -0.306628  -0.573079  0.031956  2.421519  0.053
O  O100  1  0.00628241  0.22744982  0.31060799  1  -1.165523  0.088425  -0.319852  -0.556042  0.044871  2.378587  0.07
O  O101  1  0.71405199  0.12647308  0.18133375  1  -1.1444  0.100202  -0.344768  -0.588765  0.050831  2.291823  0.078
O  O102  1  0.66994832  0.20415607  0.34577296  1  -1.163082  0.034642  -0.31227  -0.534259  0.016687  2.091342  0.029
O  O103  1  0.18484314  0.04988441  0.62117370  1  -1.151367  0.120683  -0.32107  -0.604072  0.064709  2.531846  0.097
O  O104  1  0.35025696  0.17502524  0.74830378  1  -1.182466  0.042303  -0.310292  -0.555385  0.020847  2.125781  0.035
O  O105  1  0.93670898  0.79596334  0.52513839  1  -1.185756  0.060988  -0.306675  -0.573248  0.031965  2.421601  0.053
O  O106  1  0.99371562  0.77255933  0.68938636  1  -1.165527  0.088423  -0.319956  -0.556236  0.044872  2.379073  0.07
O  O107  1  0.28593497  0.87350963  0.81865843  1  -1.144198  0.100201  -0.344768  -0.588732  0.050829  2.291877  0.078
O  O108  1  0.33004303  0.79584773  0.65421600  1  -1.163254  0.034647  -0.312238  -0.534196  0.016689  2.091336  0.029
