# generated using pymatgen
data_CdH18C22(NO2)2
_symmetry_space_group_name_H-M   'P 1'
_cell_length_a   9.53831343
_cell_length_b   10.40430470
_cell_length_c   10.67841551
_cell_angle_alpha   83.35567235
_cell_angle_beta   90.13026510
_cell_angle_gamma   62.71615466
_symmetry_Int_Tables_number   1
_chemical_formula_structural   CdH18C22(NO2)2
_chemical_formula_sum   'Cd2 H36 C44 N4 O8'
_cell_volume   933.65928470
_cell_formula_units_Z   2
loop_
 _symmetry_equiv_pos_site_id
 _symmetry_equiv_pos_as_xyz
  1  'x, y, z'
loop_
 _atom_site_type_symbol
 _atom_site_label
 _atom_site_symmetry_multiplicity
 _atom_site_fract_x
 _atom_site_fract_y
 _atom_site_fract_z
 _atom_site_occupancy
 _atom_site_hle17_bader_spin_density
 _atom_site_hle17_ddec_charge
 _atom_site_hle17_ddec_spin_density
 _atom_site_hle17_ddec_sum_bond_order
 _atom_site_hle17_magmom
 _atom_site_hse06_10hf_bader_spin_density
 _atom_site_hse06_10hf_ddec_charge
 _atom_site_hse06_10hf_ddec_spin_density
 _atom_site_hse06_10hf_ddec_sum_bond_order
 _atom_site_hse06_10hf_magmom
 _atom_site_hse06_bader_spin_density
 _atom_site_hse06_ddec_charge
 _atom_site_hse06_ddec_spin_density
 _atom_site_hse06_ddec_sum_bond_order
 _atom_site_hse06_magmom
 _atom_site_pbe_bader_spin_density
 _atom_site_pbe_cm5_charge
 _atom_site_pbe_ddec_charge
 _atom_site_pbe_ddec_spin_density
 _atom_site_pbe_ddec_sum_bond_order
 _atom_site_pbe_magmom
Cd  Cd0  1  0.89822966  0.43204978  0.36542066  1  0  1.121275  0  1.66936  0  0  0.926472  0  2.113616  0  0  0.987384  0  2.061288  0  0  0.769158  0.881577  0  2.149804  0
Cd  Cd1  1  0.10176935  0.56795038  0.63457863  1  0  1.121296  0  1.669359  0  0  0.926507  0  2.113612  0  0  0.987418  0  2.061283  0  0  0.769172  0.881613  0  2.149801  0
H  H2  1  0.37349125  0.49953762  0.24528412  1  0  0.098505  0  0.958716  0  0  0.111571  0  1.025002  0  0  0.113122  0  1.02507  0  0  0.095558  0.110158  0  1.025591  0
H  H3  1  0.62650674  0.50046036  0.75471448  1  0  0.098456  0  0.958731  0  0  0.111537  0  1.025008  0  0  0.11307  0  1.025094  0  0  0.095508  0.110124  0  1.025595  0
H  H4  1  0.46075656  0.49056415  0.09878747  1  0  0.098408  0  0.94094  0  0  0.114407  0  1.002652  0  0  0.116679  0  1.000826  0  0  0.098395  0.112754  0  1.004231  0
H  H5  1  0.53923876  0.50943710  0.90121076  1  0  0.098434  0  0.940906  0  0  0.114439  0  1.002612  0  0  0.116712  0  1.000783  0  0  0.098404  0.112786  0  1.00419  0
H  H6  1  0.59620895  0.27125588  0.00902915  1  0  0.082252  0  0.956738  0  0  0.096751  0  1.014569  0  0  0.099551  0  1.012985  0  0  0.095029  0.094432  0  1.016455  0
H  H7  1  0.40378846  0.72874537  0.99096907  1  0  0.082284  0  0.956712  0  0  0.096782  0  1.014538  0  0  0.099581  0  1.012957  0  0  0.095052  0.094463  0  1.016424  0
H  H8  1  0.66309298  0.01168375  0.00558644  1  0  0.077216  0  0.993122  0  0  0.086207  0  1.060458  0  0  0.088009  0  1.061488  0  0  0.091974  0.085028  0  1.059627  0
H  H9  1  0.33690973  0.98831531  0.99441297  1  0  0.077224  0  0.993154  0  0  0.086217  0  1.060485  0  0  0.088019  0  1.061515  0  0  0.09197  0.085039  0  1.059655  0
H  H10  1  0.62403214  0.86956827  0.19544693  1  0  0.088925  0  0.957394  0  0  0.099953  0  1.016773  0  0  0.102684  0  1.01608  0  0  0.096425  0.097868  0  1.017722  0
H  H11  1  0.37596792  0.13043189  0.80455235  1  0  0.088911  0  0.95741  0  0  0.09994  0  1.016789  0  0  0.102671  0  1.016098  0  0  0.096422  0.097855  0  1.017739  0
H  H12  1  0.51049214  0.99338252  0.38309808  1  0  0.077278  0  0.972986  0  0  0.090105  0  1.034856  0  0  0.092493  0  1.03378  0  0  0.093151  0.088186  0  1.036068  0
H  H13  1  0.48950638  0.00661655  0.61690320  1  0  0.077284  0  0.972976  0  0  0.090114  0  1.034825  0  0  0.092501  0  1.03375  0  0  0.093147  0.088196  0  1.036039  0
H  H14  1  0.43022541  0.36551679  0.43184341  1  0  0.121514  0  0.938721  0  0  0.136495  0  1.000009  0  0  0.138715  0  0.999082  0  0  0.106296  0.135011  0  1.000688  0
H  H15  1  0.56977415  0.63448228  0.56815693  1  0  0.121476  0  0.938718  0  0  0.136465  0  1.000023  0  0  0.138686  0  0.999093  0  0  0.106289  0.134982  0  1.000697  0
H  H16  1  0.46538252  0.19404810  0.50416034  1  0  0.10655  0  0.942367  0  0  0.123635  0  1.001693  0  0  0.125644  0  1.000724  0  0  0.102287  0.122168  0  1.002633  0
H  H17  1  0.53461863  0.80594988  0.49583919  1  0  0.106543  0  0.942337  0  0  0.123641  0  1.001663  0  0  0.12565  0  1.000695  0  0  0.102286  0.122174  0  1.002603  0
H  H18  1  0.65145876  0.37205473  0.52317448  1  0  0.084557  0  0.968584  0  0  0.090563  0  1.038573  0  0  0.093265  0  1.035928  0  0  0.113431  0.088759  0  1.040387  0
H  H19  1  0.34854130  0.62794542  0.47682574  1  0  0.084563  0  0.968581  0  0  0.090569  0  1.03857  0  0  0.093272  0  1.035925  0  0  0.113431  0.088766  0  1.040385  0
H  H20  1  0.62613951  0.19417490  0.68393945  1  0  0.115446  0  0.948731  0  0  0.12627  0  1.006857  0  0  0.129546  0  1.005982  0  0  0.108463  0.123985  0  1.00771  0
H  H21  1  0.37386004  0.80582417  0.31605902  1  0  0.115438  0  0.948751  0  0  0.126269  0  1.006865  0  0  0.129545  0  1.00599  0  0  0.108463  0.123989  0  1.007713  0
H  H22  1  0.13618691  0.93726392  0.69905788  1  0  0.119644  0  0.950155  0  0  0.127506  0  1.013061  0  0  0.130234  0  1.013689  0  0  0.110043  0.125871  0  1.012036  0
H  H23  1  0.86381259  0.06273951  0.30094290  1  0  0.119708  0  0.950121  0  0  0.127584  0  1.012988  0  0  0.130315  0  1.01361  0  0  0.110056  0.125941  0  1.011979  0
H  H24  1  0.13909948  0.12817992  0.53632418  1  0  0.078896  0  0.94324  0  0  0.088185  0  1.006675  0  0  0.089995  0  1.005554  0  0  0.114168  0.086846  0  1.007616  0
H  H25  1  0.86089897  0.87182351  0.46367753  1  0  0.078933  0  0.943192  0  0  0.088216  0  1.006629  0  0  0.090028  0  1.005504  0  0  0.114169  0.086876  0  1.00757  0
H  H26  1  0.09867949  0.59853558  0.29376823  1  0  0.071498  0  0.964526  0  0  0.080178  0  1.030084  0  0  0.08168  0  1.029353  0  0  0.112374  0.078996  0  1.031046  0
H  H27  1  0.90132427  0.40146347  0.70623117  1  0  0.07149  0  0.964454  0  0  0.080167  0  1.030017  0  0  0.081671  0  1.029284  0  0  0.112363  0.078985  0  1.030977  0
H  H28  1  0.14503066  0.75069519  0.11695904  1  0  0.101687  0  0.95801  0  0  0.113122  0  1.017455  0  0  0.115419  0  1.018403  0  0  0.104729  0.111259  0  1.01757  0
H  H29  1  0.85497097  0.24930605  0.88304198  1  0  0.101625  0  0.958033  0  0  0.113077  0  1.017453  0  0  0.115375  0  1.018399  0  0  0.104712  0.111213  0  1.017569  0
H  H30  1  0.77460368  0.73412149  0.89606065  1  0  0.121361  0  0.963893  0  0  0.127848  0  1.029026  0  0  0.130917  0  1.029053  0  0  0.108421  0.125224  0  1.029674  0
H  H31  1  0.22539637  0.26588084  0.10394213  1  0  0.121382  0  0.963865  0  0  0.127904  0  1.028977  0  0  0.130973  0  1.029003  0  0  0.108426  0.125288  0  1.029606  0
H  H32  1  0.74673521  0.57996283  0.08179461  1  0  0.077585  0  0.950163  0  0  0.086348  0  1.014158  0  0  0.088262  0  1.013075  0  0  0.112823  0.084833  0  1.015019  0
H  H33  1  0.25326534  0.42004059  0.91820710  1  0  0.077604  0  0.950143  0  0  0.086372  0  1.014133  0  0  0.088286  0  1.013052  0  0  0.112851  0.084865  0  1.014988  0
H  H34  1  0.09035291  0.86333768  0.89706461  1  0  0.098467  0  0.953246  0  0  0.10788  0  1.018722  0  0  0.110667  0  1.017321  0  0  0.104707  0.105472  0  1.020283  0
H  H35  1  0.90964868  0.13666574  0.10293429  1  0  0.098491  0  0.953255  0  0  0.107897  0  1.018741  0  0  0.110683  0  1.017342  0  0  0.104729  0.105489  0  1.020302  0
H  H36  1  0.75062046  0.94497831  0.80153775  1  0  0.095743  0  0.961259  0  0  0.105952  0  1.027262  0  0  0.108423  0  1.026384  0  0  0.103816  0.103592  0  1.028869  0
H  H37  1  0.24937855  0.05502185  0.19846154  1  0  0.09581  0  0.961279  0  0  0.10601  0  1.027287  0  0  0.108481  0  1.026408  0  0  0.103814  0.103648  0  1.028892  0
C  C38  1  0.61951022  0.44859841  0.25746230  1  0  0.667302  0  3.900545  0  0  0.62625  0  4.195717  0  0  0.658542  0  4.191324  0  0  0.186674  0.604674  0  4.197542  0
C  C39  1  0.38048561  0.55140394  0.74253767  1  0  0.667372  0  3.900444  0  0  0.626357  0  4.195573  0  0  0.65865  0  4.191176  0  0  0.186727  0.604781  0  4.197402  0
C  C40  1  0.48014139  0.43688654  0.19687512  1  0  -0.293864  0  3.705859  0  0  -0.33876  0  3.950161  0  0  -0.343619  0  3.957718  0  0  -0.164187  -0.335355  0  3.945206  0
C  C41  1  0.51985498  0.56311472  0.80312311  1  0  -0.29383  0  3.705928  0  0  -0.338727  0  3.950237  0  0  -0.343573  0  3.957803  0  0  -0.164135  -0.335323  0  3.945281  0
C  C42  1  0.51430111  0.28032714  0.19709954  1  0  0.07264  0  3.712942  0  0  0.088451  0  3.946778  0  0  0.088661  0  3.970198  0  0  -0.010549  0.088367  0  3.930927  0
C  C43  1  0.48569899  0.71967083  0.80290000  1  0  0.072664  0  3.712815  0  0  0.088426  0  3.946771  0  0  0.088638  0  3.970189  0  0  -0.010501  0.088345  0  3.930915  0
C  C44  1  0.57725947  0.20960906  0.09136593  1  0  -0.125752  0  3.767649  0  0  -0.145841  0  4.01786  0  0  -0.14766  0  4.037252  0  0  -0.097705  -0.144312  0  4.005123  0
C  C45  1  0.42273795  0.79039219  0.90863323  1  0  -0.125785  0  3.767501  0  0  -0.145852  0  4.017749  0  0  -0.147671  0  4.03714  0  0  -0.097736  -0.144324  0  4.005012  0
C  C46  1  0.61573031  0.06352948  0.08927218  1  0  -0.077994  0  3.810962  0  0  -0.092734  0  4.063988  0  0  -0.09412  0  4.085744  0  0  -0.101658  -0.092213  0  4.049321  0
C  C47  1  0.38426975  0.93647067  0.91072710  1  0  -0.07806  0  3.810967  0  0  -0.092803  0  4.063999  0  0  -0.094188  0  4.085752  0  0  -0.101671  -0.092283  0  4.049333  0
C  C48  1  0.59326692  0.98428960  0.19514791  1  0  -0.079741  0  3.799621  0  0  -0.094662  0  4.053488  0  0  -0.095874  0  4.073708  0  0  -0.100751  -0.094174  0  4.040496  0
C  C49  1  0.40673264  0.01570946  0.80485244  1  0  -0.079625  0  3.79959  0  0  -0.094542  0  4.053448  0  0  -0.095752  0  4.073666  0  0  -0.100696  -0.094053  0  4.040456  0
C  C50  1  0.53077111  0.05368661  0.30054554  1  0  -0.120205  0  3.764913  0  0  -0.140016  0  4.016138  0  0  -0.14189  0  4.036123  0  0  -0.096753  -0.138464  0  4.003177  0
C  C51  1  0.46923109  0.94631136  0.69945586  1  0  -0.120279  0  3.764906  0  0  -0.14006  0  4.016145  0  0  -0.141934  0  4.036129  0  0  -0.096782  -0.138513  0  4.003189  0
C  C52  1  0.49023493  0.20092403  0.30355446  1  0  0.070381  0  3.725475  0  0  0.08517  0  3.960599  0  0  0.085262  0  3.984387  0  0  -0.013543  0.08478  0  3.944766  0
C  C53  1  0.50976357  0.79907503  0.69644307  1  0  0.07037  0  3.725371  0  0  0.085134  0  3.960595  0  0  0.085227  0  3.984383  0  0  -0.013608  0.084741  0  3.944765  0
C  C54  1  0.41334725  0.27080950  0.41720350  1  0  -0.304656  0  3.702537  0  0  -0.34884  0  3.944644  0  0  -0.354297  0  3.95253  0  0  -0.161939  -0.344914  0  3.939061  0
C  C55  1  0.58665336  0.72918956  0.58279590  1  0  -0.304576  0  3.702361  0  0  -0.348798  0  3.944541  0  0  -0.354254  0  3.952425  0  0  -0.161915  -0.344869  0  3.938955  0
C  C56  1  0.23583258  0.31806186  0.41427110  1  0  0.690918  0  3.867428  0  0  0.644729  0  4.166501  0  0  0.678232  0  4.160058  0  0  0.198021  0.621873  0  4.169386  0
C  C57  1  0.76416752  0.68193612  0.58572844  1  0  0.690897  0  3.867392  0  0  0.644739  0  4.166442  0  0  0.678244  0  4.16  0  0  0.198019  0.621884  0  4.169325  0
C  C58  1  0.75592763  0.27355568  0.56332661  1  0  0.123773  0  3.72248  0  0  0.092159  0  3.976038  0  0  0.099483  0  3.995158  0  0  0.040206  0.087277  0  3.963257  0
C  C59  1  0.24407088  0.72644339  0.43667373  1  0  0.123807  0  3.722391  0  0  0.092187  0  3.975954  0  0  0.099512  0  3.995073  0  0  0.040242  0.087305  0  3.963177  0
C  C60  1  0.74287944  0.17257183  0.65308043  1  0  -0.169761  0  3.694053  0  0  -0.184821  0  3.937039  0  0  -0.193418  0  3.958007  0  0  -0.084071  -0.179452  0  3.923086  0
C  C61  1  0.25712117  0.82742723  0.34691897  1  0  -0.169784  0  3.69396  0  0  -0.184848  0  3.936949  0  0  -0.193445  0  3.957914  0  0  -0.084096  -0.179482  0  3.922995  0
C  C62  1  0.87982345  0.04853182  0.70626909  1  0  0.135399  0  3.80383  0  0  0.150404  0  4.033517  0  0  0.156382  0  4.05528  0  0  0.010329  0.146632  0  4.018258  0
C  C63  1  0.12017611  0.95146725  0.29373126  1  0  0.135393  0  3.803979  0  0  0.150406  0  4.033654  0  0  0.156384  0  4.055417  0  0  0.010301  0.146636  0  4.018393  0
C  C64  1  0.02585322  0.03249417  0.66338231  1  0  -0.157286  0  3.668906  0  0  -0.172945  0  3.91304  0  0  -0.180982  0  3.934859  0  0  -0.078858  -0.166566  0  3.897699  0
C  C65  1  0.97414840  0.96750707  0.33661684  1  0  -0.157353  0  3.669001  0  0  -0.173027  0  3.91313  0  0  -0.181065  0  3.93495  0  0  -0.078859  -0.166647  0  3.897787  0
C  C66  1  0.02824489  0.13775278  0.57206693  1  0  0.130438  0  3.725381  0  0  0.097605  0  3.981997  0  0  0.105338  0  4.000963  0  0  0.044139  0.09221  0  3.969742  0
C  C67  1  0.97175464  0.86224846  0.42793410  1  0  0.130393  0  3.725398  0  0  0.097575  0  3.98199  0  0  0.105308  0  4.000957  0  0  0.044136  0.092182  0  3.969734  0
C  C68  1  0.02970889  0.63088640  0.20389247  1  0  0.132148  0  3.730384  0  0  0.101685  0  3.981204  0  0  0.109256  0  4.000954  0  0  0.042552  0.096493  0  3.968383  0
C  C69  1  0.97029379  0.36911483  0.79610762  1  0  0.132146  0  3.73023  0  0  0.101692  0  3.981046  0  0  0.109262  0  4.000794  0  0  0.042556  0.096501  0  3.96822  0
C  C70  1  0.05478400  0.71567155  0.10524056  1  0  -0.166035  0  3.700171  0  0  -0.181721  0  3.942897  0  0  -0.190262  0  3.96517  0  0  -0.081723  -0.176081  0  3.928354  0
C  C71  1  0.94521817  0.28432859  0.89475965  1  0  -0.165981  0  3.700053  0  0  -0.181681  0  3.942764  0  0  -0.190222  0  3.965038  0  0  -0.081704  -0.176041  0  3.928219  0
C  C72  1  0.95964304  0.76051697  0.99230686  1  0  0.145514  0  3.781114  0  0  0.160414  0  4.00908  0  0  0.166203  0  4.029874  0  0  0.014571  0.156785  0  3.994415  0
C  C73  1  0.04035860  0.23948427  0.00769510  1  0  0.145488  0  3.781106  0  0  0.160407  0  4.009064  0  0  0.166195  0  4.02986  0  0  0.014575  0.156777  0  3.9944  0
C  C74  1  0.84673886  0.70953965  0.98334996  1  0  -0.153102  0  3.655815  0  0  -0.167844  0  3.898276  0  0  -0.175782  0  3.919532  0  0  -0.076341  -0.162487  0  3.883937  0
C  C75  1  0.15326173  0.29046160  0.01665200  1  0  -0.153055  0  3.655816  0  0  -0.167845  0  3.898279  0  0  -0.175782  0  3.919534  0  0  -0.076305  -0.162489  0  3.883946  0
C  C76  1  0.83116692  0.62314078  0.08603480  1  0  0.122369  0  3.728008  0  0  0.091503  0  3.981915  0  0  0.098589  0  4.001376  0  0  0.04335  0.087163  0  3.968316  0
C  C77  1  0.16883417  0.37686155  0.91396704  1  0  0.122267  0  3.728071  0  0  0.091405  0  3.981998  0  0  0.098491  0  4.00146  0  0  0.043271  0.087057  0  3.968402  0
C  C78  1  0.97855010  0.85846997  0.89296195  1  0  -0.074345  0  3.690599  0  0  -0.094596  0  3.940242  0  0  -0.095577  0  3.957235  0  0  -0.073189  -0.093618  0  3.928355  0
C  C79  1  0.02144841  0.14152910  0.10703746  1  0  -0.074299  0  3.690514  0  0  -0.094571  0  3.940172  0  0  -0.095551  0  3.957165  0  0  -0.073213  -0.09359  0  3.928284  0
C  C80  1  0.86481978  0.94565258  0.80279628  1  0  -0.091738  0  3.70199  0  0  -0.112157  0  3.951422  0  0  -0.115092  0  3.969874  0  0  -0.078189  -0.109728  0  3.938839  0
C  C81  1  0.13518509  0.05434429  0.19720805  1  0  -0.091849  0  3.702045  0  0  -0.112266  0  3.951469  0  0  -0.115201  0  3.969919  0  0  -0.078176  -0.109834  0  3.938884  0
N  N82  1  0.91917979  0.58552553  0.19576723  1  0  -0.336139  0  3.252058  0  0  -0.257612  0  3.515032  0  0  -0.278253  0  3.533917  0  0  -0.329486  -0.243115  0  3.50202  0
N  N83  1  0.08082397  0.41447352  0.80423310  1  0  -0.336104  0  3.25206  0  0  -0.257581  0  3.515038  0  0  -0.278219  0  3.533922  0  0  -0.329472  -0.243085  0  3.502028  0
N  N84  1  0.89601672  0.25676182  0.52228464  1  0  -0.348329  0  3.26844  0  0  -0.268424  0  3.532862  0  0  -0.289534  0  3.551995  0  0  -0.333607  -0.253957  0  3.519784  0
N  N85  1  0.10398175  0.74323943  0.47771545  1  0  -0.348339  0  3.268543  0  0  -0.268427  0  3.532947  0  0  -0.289539  0  3.552082  0  0  -0.333618  -0.25396  0  3.519872  0
O  O86  1  0.59313638  0.53854929  0.33601552  1  0  -0.654803  0  1.913661  0  0  -0.597813  0  2.146127  0  0  -0.624531  0  2.137796  0  0  -0.338072  -0.57936  0  2.151168  0
O  O87  1  0.40686054  0.46145088  0.66398471  1  0  -0.654856  0  1.913576  0  0  -0.597875  0  2.146034  0  0  -0.624593  0  2.1377  0  0  -0.338101  -0.579419  0  2.151072  0
O  O88  1  0.75721899  0.36506259  0.22455800  1  0  -0.652947  0  1.966844  0  0  -0.590468  0  2.211606  0  0  -0.619998  0  2.205727  0  0  -0.335177  -0.569781  0  2.214848  0
O  O89  1  0.24277734  0.63494084  0.77543998  1  0  -0.652972  0  1.966805  0  0  -0.59052  0  2.211586  0  0  -0.62005  0  2.205704  0  0  -0.335203  -0.569836  0  2.214832  0
O  O90  1  0.17372064  0.28180692  0.32871957  1  0  -0.636538  0  1.973878  0  0  -0.573923  0  2.216799  0  0  -0.60239  0  2.211017  0  0  -0.320054  -0.553032  0  2.220505  0
O  O91  1  0.82627892  0.71819215  0.67128077  1  0  -0.636543  0  1.973766  0  0  -0.573957  0  2.216693  0  0  -0.602423  0  2.210913  0  0  -0.320075  -0.553064  0  2.220399  0
O  O92  1  0.15500404  0.39167009  0.49911385  1  0  -0.68447  0  2.062766  0  0  -0.614659  0  2.333669  0  0  -0.645384  0  2.321769  0  0  -0.345246  -0.59169  0  2.340449  0
O  O93  1  0.84499816  0.60832788  0.50088662  1  0  -0.684443  0  2.062845  0  0  -0.614633  0  2.333729  0  0  -0.645358  0  2.32183  0  0  -0.345219  -0.591664  0  2.34051  0
