# generated using pymatgen
data_ZnH17C27NO10
_symmetry_space_group_name_H-M   'P 1'
_cell_length_a   14.71013604
_cell_length_b   15.52101591
_cell_length_c   16.12004227
_cell_angle_alpha   88.64295493
_cell_angle_beta   92.46430699
_cell_angle_gamma   115.30813362
_symmetry_Int_Tables_number   1
_chemical_formula_structural   ZnH17C27NO10
_chemical_formula_sum   'Zn2 H34 C54 N2 O20'
_cell_volume   3324.08900544
_cell_formula_units_Z   2
loop_
 _symmetry_equiv_pos_site_id
 _symmetry_equiv_pos_as_xyz
  1  'x, y, z'
loop_
 _atom_site_type_symbol
 _atom_site_label
 _atom_site_symmetry_multiplicity
 _atom_site_fract_x
 _atom_site_fract_y
 _atom_site_fract_z
 _atom_site_occupancy
 _atom_site_pbe_bader_charge
 _atom_site_pbe_bader_spin_density
 _atom_site_pbe_cm5_charge
 _atom_site_pbe_ddec_charge
 _atom_site_pbe_ddec_spin_density
 _atom_site_pbe_ddec_sum_bond_order
 _atom_site_pbe_magmom
Zn  Zn0  1  0.40834357  0.49600507  0.49343098  1  1.321584  0  0.694441  0.894464  0  2.427914  0
Zn  Zn1  1  0.60545630  0.51320161  0.50674994  1  1.319095  0  0.69505  0.887155  0  2.405175  0
H  H2  1  0.23113743  0.87495954  0.53519888  1  0.102585  0  0.104764  0.118653  0  1.026028  0
H  H3  1  0.62704137  0.03359937  0.25384976  1  0.100416  0  0.099521  0.107564  0  1.031158  0
H  H4  1  0.34195011  0.80372348  0.49214061  1  0.050779  0  0.104136  0.104061  0  1.013382  0
H  H5  1  0.53376364  0.11626673  0.29921685  1  0.101779  0  0.103431  0.105232  0  1.042137  0
H  H6  1  0.38373572  0.53696965  0.07822102  1  0.049492  0  0.10971  0.117035  0  0.987418  0
H  H7  1  0.60653625  0.43715868  0.92331880  1  0.07292  0  0.109144  0.116754  0  0.988089  0
H  H8  1  0.90943785  0.46224529  0.63213741  1  0.173748  0  0.137418  0.150065  0  0.958074  0
H  H9  1  0.09329065  0.52389698  0.36979702  1  0.160422  0  0.137796  0.151189  0  0.955579  0
H  H10  1  0.62704309  0.94978256  0.61053684  1  0.00436  0  0.087555  0.117693  0  0.995819  0
H  H11  1  0.51168025  0.95872214  0.59099999  1  0.019194  0  0.081923  0.110784  0  1.040704  0
H  H12  1  0.52833711  0.89913180  0.68154707  1  0.011822  0  0.08739  0.116314  0  0.997012  0
H  H13  1  0.42298214  0.77766560  0.57606531  1  -0.019855  0  0.091182  0.088382  0  1.002702  0
H  H14  1  0.53580167  0.77102449  0.60157718  1  0.049146  0  0.09789  0.105832  0  0.981999  0
H  H15  1  0.64152956  0.30763634  0.45354647  1  0.055805  0  0.08269  0.121056  0  1.028823  0
H  H16  1  0.64298283  0.20819893  0.40155285  1  0.026776  0  0.079814  0.10752  0  1.041016  0
H  H17  1  0.67080742  0.31704246  0.34673054  1  0.017767  0  0.077469  0.10432  0  1.023309  0
H  H18  1  0.49342300  0.20711841  0.30866585  1  0.022748  0  0.093186  0.08494  0  1.005646  0
H  H19  1  0.50031531  0.30378489  0.36468048  1  0.059488  0  0.096361  0.098971  0  1.003339  0
H  H20  1  0.76530560  0.70043310  0.30217274  1  0.582257  0  0.336531  0.370908  0  0.866128  0
H  H21  1  0.32970544  0.32685799  0.65647911  1  0.63271  0  0.321125  0.370031  0  0.902865  0
H  H22  1  0.14610363  0.00799989  0.70020518  1  0.612685  0  0.348069  0.384223  0  0.847866  0
H  H23  1  0.73564685  0.95583111  0.15400729  1  0.607025  0  0.344329  0.377957  0  0.855775  0
H  H24  1  0.27756381  0.41128371  0.83419478  1  -0.003964  0  0.082097  0.104031  0  1.028917  0
H  H25  1  0.21688628  0.40217944  0.92892454  1  0.05152  0  0.090851  0.123475  0  0.990282  0
H  H26  1  0.19982697  0.47283848  0.84703538  1  0.012967  0  0.083328  0.107867  0  1.022476  0
H  H27  1  0.32253221  0.57876109  0.95285467  1  0.044679  0  0.096719  0.092655  0  0.967839  0
H  H28  1  0.38297897  0.58606958  0.85863294  1  0.047583  0  0.095245  0.09292  0  0.976354  0
H  H29  1  0.52974680  0.32291274  0.17152222  1  0.050807  0  0.087474  0.118964  0  1.015163  0
H  H30  1  0.55099973  0.27556058  0.07865758  1  0.00689  0  0.087775  0.116281  0  0.998705  0
H  H31  1  0.64297773  0.30941804  0.16156008  1  0.00684  0  0.084471  0.110831  0  1.003623  0
H  H32  1  0.69699213  0.43405665  0.04926682  1  0.025418  0  0.094968  0.089735  0  0.971804  0
H  H33  1  0.67497120  0.48024499  0.14198889  1  0.019447  0  0.087199  0.075563  0  0.999727  0
H  H34  1  0.18666550  0.42475950  0.70703402  1  0.650908  0  0.353882  0.401119  0  0.842727  0
H  H35  1  0.79878441  0.52495315  0.28988221  1  0.635876  0  0.36116  0.4001  0  0.830506  0
C  C36  1  0.49171762  0.49383077  0.66112727  1  1.708754  0  0.220037  0.672472  0  4.235319  0
C  C37  1  0.51883904  0.50986569  0.33958325  1  1.690761  0  0.213994  0.661012  0  4.259784  0
C  C38  1  0.43653631  0.32185658  0.48920022  1  1.600895  0  0.214959  0.595254  0  4.203462  0
C  C39  1  0.57532706  0.68539485  0.49150857  1  1.571455  0  0.218283  0.595961  0  4.165441  0
C  C40  1  0.39639347  0.21490345  0.48513447  1  -0.017927  0  -0.006629  -0.095198  0  3.904358  0
C  C41  1  0.59505904  0.78185787  0.45536823  1  0.028597  0  -0.007929  -0.109544  0  3.889569  0
C  C42  1  0.28109302  0.06293654  0.54020399  1  0.034967  0  -0.004627  -0.097948  0  3.923534  0
C  C43  1  0.65644890  0.89007959  0.33759076  1  0.035711  0  -0.010388  -0.11368  0  3.912298  0
C  C44  1  0.31738688  0.16143019  0.53806821  1  -0.04074  0  0.002793  -0.037303  0  3.921433  0
C  C45  1  0.65977607  0.81682103  0.38792773  1  -0.039958  0  0.00969  -0.024077  0  3.891398  0
C  C46  1  0.43821938  0.17265230  0.43204792  1  0.054634  0  0.013883  0.085916  0  3.835263  0
C  C47  1  0.53665529  0.82805395  0.47991706  1  0.005809  0  0.022037  0.102638  0  3.823645  0
C  C48  1  0.40980148  0.07215738  0.43994600  1  -0.024874  0  0.004624  -0.021089  0  3.856206  0
C  C49  1  0.52494394  0.89583726  0.42461614  1  0.003766  0  0.000362  -0.025408  0  3.893765  0
C  C50  1  0.32902871  0.01780884  0.49402168  1  0.038827  0  0.003035  0.068302  0  3.978275  0
C  C51  1  0.58797571  0.92993097  0.35479314  1  -0.00857  0  0.002097  0.075997  0  3.987485  0
C  C52  1  0.46428106  0.02287584  0.40407869  1  -0.017189  0  0.001576  0.041345  0  3.91686  0
C  C53  1  0.45209034  0.93367152  0.43834260  1  0.008746  0  0.001102  0.048552  0  3.954356  0
C  C54  1  0.36257282  0.87899886  0.48089657  1  -0.029334  0  -0.08955  -0.126155  0  4.046688  0
C  C55  1  0.52971899  0.05530816  0.33563837  1  -0.088975  0  -0.090133  -0.12458  0  4.020376  0
C  C56  1  0.30085271  0.91823871  0.50484965  1  -0.078023  0  -0.093324  -0.136813  0  4.008214  0
C  C57  1  0.58386251  0.00845170  0.30948426  1  -0.043757  0  -0.098366  -0.141466  0  4.006241  0
C  C58  1  0.43144422  0.51424029  0.04318130  1  -0.062385  0  -0.078605  -0.176643  0  3.940304  0
C  C59  1  0.55737784  0.45802201  0.95835944  1  -0.077708  0  -0.07949  -0.176564  0  3.941102  0
C  C60  1  0.50130924  0.48910197  0.08760622  1  0.068383  0  0.001838  0.081126  0  4.095594  0
C  C61  1  0.48847831  0.48451753  0.91389503  1  0.09481  0  0.000716  0.075289  0  4.092506  0
C  C62  1  0.56494727  0.45915071  0.04465895  1  0.06289  0  0.001182  0.081056  0  3.9302  0
C  C63  1  0.42309646  0.51221070  0.95694094  1  0.06532  0  0.001163  0.083742  0  3.92885  0
C  C64  1  0.50856811  0.49622225  0.17508722  1  -0.53198  0  -0.029939  -0.039487  0  4.11651  0
C  C65  1  0.48750520  0.48590161  0.82609022  1  -0.553039  0  -0.024101  -0.026247  0  4.107393  0
C  C66  1  0.48897409  0.48919444  0.75050824  1  0.213685  0  -0.047811  -0.199065  0  3.955824  0
C  C67  1  0.51501921  0.50395304  0.25038863  1  0.189384  0  -0.044774  -0.185206  0  3.967032  0
C  C68  1  0.04151913  0.47018227  0.57556139  1  -0.027225  0  0.022939  -0.028765  0  3.886215  0
C  C69  1  0.95953882  0.51268992  0.42578107  1  0.050642  0  0.022751  -0.024854  0  3.883038  0
C  C70  1  0.09420481  0.48904201  0.50099918  1  0.155179  0  0.038298  0.053751  0  4.022114  0
C  C71  1  0.90841687  0.49702048  0.50096916  1  0.10526  0  0.039515  0.054774  0  4.018849  0
C  C72  1  0.05288326  0.50983293  0.42733094  1  0.011552  0  -0.035598  -0.090507  0  3.855014  0
C  C73  1  0.94932424  0.47542831  0.57440244  1  0.034823  0  -0.034912  -0.087325  0  3.856221  0
C  C74  1  0.19042770  0.48915094  0.49531844  1  0.922052  0  0.25111  0.318413  0  3.912427  0
C  C75  1  0.81631667  0.50500402  0.50775418  1  0.92223  0  0.252945  0.317091  0  3.911783  0
C  C76  1  0.50455705  0.81592343  0.56968465  1  0.062584  0  -0.162301  -0.150917  0  3.958323  0
C  C77  1  0.54503266  0.91176365  0.61539407  1  -0.012533  0  -0.244451  -0.353769  0  3.958946  0
C  C78  1  0.51231731  0.23879142  0.37085096  1  -0.017091  0  -0.159939  -0.1437  0  3.955297  0
C  C79  1  0.62378751  0.26901592  0.39463341  1  -0.069241  0  -0.25204  -0.354857  0  3.951513  0
C  C80  1  0.73700697  0.77913643  0.37340525  1  1.574957  0  0.229881  0.596619  0  4.12675  0
C  C81  1  0.27469903  0.21550373  0.58792205  1  1.550653  0  0.226835  0.597805  0  4.127826  0
C  C82  1  0.19661194  0.00550824  0.59501964  1  1.527128  0  0.233882  0.585732  0  4.111976  0
C  C83  1  0.72644040  0.92294952  0.26728609  1  1.490508  0  0.229258  0.578381  0  4.113712  0
C  C84  1  0.34705177  0.53850348  0.91098885  1  -0.010617  0  -0.157193  -0.13971  0  3.978402  0
C  C85  1  0.25485793  0.45108075  0.87809521  1  -0.043712  0  -0.242378  -0.353129  0  3.960068  0
C  C86  1  0.63800283  0.42937508  0.09121326  1  0.005578  0  -0.158711  -0.138002  0  3.993418  0
C  C87  1  0.58733374  0.32830005  0.12792532  1  -0.034635  0  -0.241839  -0.350417  0  3.95328  0
C  C88  1  0.07714606  0.44498617  0.65747385  1  1.566801  0  0.242364  0.568366  0  4.14544  0
C  C89  1  0.92017466  0.53093473  0.34289638  1  1.572732  0  0.241647  0.567038  0  4.144987  0
N  N90  1  0.74303882  0.51276979  0.51968605  1  -1.156607  0  -0.262709  -0.263847  0  3.082158  0
N  N91  1  0.26913083  0.49250897  0.48391342  1  -1.148115  0  -0.264308  -0.266317  0  3.090665  0
O  O92  1  0.40665048  0.46916630  0.62173704  1  -1.152755  0  -0.315136  -0.570544  0  2.264567  0
O  O93  1  0.58937645  0.49625702  0.37814686  1  -1.142314  0  -0.316103  -0.554189  0  2.25595  0
O  O94  1  0.57730420  0.52132403  0.62982660  1  -1.13781  0  -0.304822  -0.529016  0  2.255785  0
O  O95  1  0.45075551  0.52702720  0.37168949  1  -1.144997  0  -0.313944  -0.544937  0  2.255324  0
O  O96  1  0.37497413  0.35752376  0.46972476  1  -1.144666  0  -0.311476  -0.540373  0  2.318935  0
O  O97  1  0.64184234  0.65413042  0.48670516  1  -1.145712  0  -0.299847  -0.520017  0  2.349611  0
O  O98  1  0.52754569  0.36723324  0.51406928  1  -1.158175  0  -0.305607  -0.535909  0  2.335309  0
O  O99  1  0.48674296  0.63719666  0.51762406  1  -1.168125  0  -0.319578  -0.561886  0  2.359666  0
O  O100  1  0.81532957  0.80195750  0.41371718  1  -1.116031  0  -0.287949  -0.464357  0  2.060033  0
O  O101  1  0.70974266  0.71870942  0.30741110  1  -1.088816  0  -0.341194  -0.488111  0  2.241387  0
O  O102  1  0.19024711  0.21126495  0.57850889  1  -1.122119  0  -0.305868  -0.492587  0  2.044205  0
O  O103  1  0.34623085  0.27396051  0.64205746  1  -1.137532  0  -0.340921  -0.485188  0  2.272505  0
O  O104  1  0.12540820  0.93016333  0.57695518  1  -1.13209  0  -0.290165  -0.48126  0  2.065722  0
O  O105  1  0.20769969  0.04661098  0.67099951  1  -1.110149  0  -0.333512  -0.482407  0  2.230479  0
O  O106  1  0.81364809  0.93342444  0.27073343  1  -1.118022  0  -0.288157  -0.47682  0  2.078365  0
O  O107  1  0.68272120  0.93727594  0.19467664  1  -1.106362  0  -0.338645  -0.485285  0  2.219098  0
O  O108  1  0.02926622  0.43003052  0.72031262  1  -1.101013  0  -0.271943  -0.455304  0  2.052081  0
O  O109  1  0.16657606  0.44149523  0.65234468  1  -1.128078  0  -0.306054  -0.463509  0  2.290386  0
O  O110  1  0.97052948  0.55515083  0.28130428  1  -1.106204  0  -0.272574  -0.452807  0  2.043357  0
O  O111  1  0.82254510  0.51470871  0.34534187  1  -1.118583  0  -0.305353  -0.464185  0  2.304141  0
