# generated using pymatgen
data_AgH8C5N2Cl
_symmetry_space_group_name_H-M   'P 1'
_cell_length_a   6.19540747
_cell_length_b   7.99471631
_cell_length_c   8.33675395
_cell_angle_alpha   109.57590817
_cell_angle_beta   111.76656111
_cell_angle_gamma   90.00924587
_symmetry_Int_Tables_number   1
_chemical_formula_structural   AgH8C5N2Cl
_chemical_formula_sum   'Ag2 H16 C10 N4 Cl2'
_cell_volume   357.64681667
_cell_formula_units_Z   2
loop_
 _symmetry_equiv_pos_site_id
 _symmetry_equiv_pos_as_xyz
  1  'x, y, z'
loop_
 _atom_site_type_symbol
 _atom_site_label
 _atom_site_symmetry_multiplicity
 _atom_site_fract_x
 _atom_site_fract_y
 _atom_site_fract_z
 _atom_site_occupancy
 _atom_site_pbe_bader_spin_density
 _atom_site_pbe_cm5_charge
 _atom_site_pbe_ddec_charge
 _atom_site_pbe_ddec_spin_density
 _atom_site_pbe_ddec_sum_bond_order
 _atom_site_pbe_magmom
Ag  Ag0  1  0.49999811  0.00000315  0.00000229  1  0  0.272922  0.010509  0  2.56428  0
Ag  Ag1  1  0.99999337  0.99999855  0.99999850  1  0  0.244021  0.271564  0  2.354271  0
H  H2  1  0.20652814  0.18353943  0.41325255  1  0  0.112455  0.123451  0  1.028488  0
H  H3  1  0.79346848  0.81645778  0.58674403  1  0  0.112417  0.123403  0  1.028364  0
H  H4  1  0.13858760  0.81121055  0.27700869  1  0  0.117812  0.13081  0  1.015104  0
H  H5  1  0.86141793  0.18878797  0.72299322  1  0  0.117816  0.130839  0  1.015018  0
H  H6  1  0.35018704  0.67006319  0.70165652  1  0  0.099049  0.120939  0  1.035014  0
H  H7  1  0.64982245  0.32993799  0.29834858  1  0  0.099055  0.120922  0  1.035031  0
H  H8  1  0.38555292  0.60000359  0.48593616  1  0  0.098264  0.118376  0  1.017827  0
H  H9  1  0.09959045  0.60039557  0.48594209  1  0  0.098701  0.119088  0  1.017849  0
H  H10  1  0.61445683  0.39999894  0.51406944  1  0  0.098257  0.118315  0  1.017805  0
H  H11  1  0.90041907  0.39960563  0.51406062  1  0  0.098709  0.119146  0  1.017793  0
H  H12  1  0.47248051  0.32637335  0.94521719  1  0  0.101531  0.12616  0  1.027358  0
H  H13  1  0.52750317  0.67362923  0.05478229  1  0  0.101533  0.12621  0  1.02733  0
H  H14  1  0.24799323  0.39923098  0.78694806  1  0  0.099739  0.123784  0  1.00613  0
H  H15  1  0.53870567  0.39911849  0.78670825  1  0  0.09992  0.124104  0  1.005087  0
H  H16  1  0.75199472  0.60076626  0.21304489  1  0  0.09979  0.12387  0  1.006131  0
H  H17  1  0.46128324  0.60088409  0.21329031  1  0  0.099959  0.124197  0  1.005235  0
C  C18  1  0.36597554  0.99987256  0.73218849  1  0  0.042391  -0.084563  0  3.793074  0
C  C19  1  0.63402354  0.00012866  0.26781249  1  0  0.042405  -0.08449  0  3.793086  0
C  C20  1  0.24285592  0.08989570  0.48589801  1  0  0.000456  -0.090018  0  3.928355  0
C  C21  1  0.75715394  0.91010689  0.51409925  1  0  0.00049  -0.089962  0  3.928354  0
C  C22  1  0.20933796  0.90690217  0.41848576  1  0  0.002207  -0.089905  0  3.920043  0
C  C23  1  0.79067256  0.09309502  0.58151472  1  0  0.002167  -0.08995  0  3.920128  0
C  C24  1  0.27993723  0.67056878  0.56058763  1  0  -0.135284  -0.272146  0  3.881025  0
C  C25  1  0.72007054  0.32943242  0.43941579  1  0  -0.135304  -0.272111  0  3.881041  0
C  C26  1  0.40232020  0.32853105  0.80480401  1  0  -0.132504  -0.269544  0  3.857389  0
C  C27  1  0.59766969  0.67146750  0.19519351  1  0  -0.132585  -0.26977  0  3.857677  0
N  N28  1  0.33840716  0.14348711  0.67712990  1  0  -0.252372  0.089464  0  3.851806  0
N  N29  1  0.66158822  0.85651278  0.32286840  1  0  -0.252415  0.089386  0  3.851854  0
N  N30  1  0.28552267  0.85535601  0.57106727  1  0  -0.253576  0.089891  0  3.852004  0
N  N31  1  0.71448486  0.14464385  0.42893445  1  0  -0.253534  0.089872  0  3.852104  0
Cl  Cl32  1  0.06268734  0.31627862  0.12521093  1  0  -0.357234  -0.500909  0  1.266985  0
Cl  Cl33  1  0.93731098  0.68371857  0.87478852  1  0  -0.357258  -0.500932  0  1.266966  0
