# generated using pymatgen
data_Zr6H24C52O37F6
_symmetry_space_group_name_H-M   'P 1'
_cell_length_a   14.76180399
_cell_length_b   14.75873509
_cell_length_c   14.76791286
_cell_angle_alpha   60.32098890
_cell_angle_beta   59.95526333
_cell_angle_gamma   60.02664339
_symmetry_Int_Tables_number   1
_chemical_formula_structural   Zr6H24C52O37F6
_chemical_formula_sum   'Zr6 H24 C52 O37 F6'
_cell_volume   2280.21160358
_cell_formula_units_Z   1
loop_
 _symmetry_equiv_pos_site_id
 _symmetry_equiv_pos_as_xyz
  1  'x, y, z'
loop_
 _atom_site_type_symbol
 _atom_site_label
 _atom_site_symmetry_multiplicity
 _atom_site_fract_x
 _atom_site_fract_y
 _atom_site_fract_z
 _atom_site_occupancy
 _atom_site_pbe_bader_charge
 _atom_site_pbe_bader_spin_density
 _atom_site_pbe_cm5_charge
 _atom_site_pbe_ddec_charge
 _atom_site_pbe_ddec_spin_density
 _atom_site_pbe_ddec_sum_bond_order
 _atom_site_pbe_magmom
Zr  Zr0  1  0.86556449  0.88554922  0.62347288  1  2.638021  0  1.630931  2.374228  0  2.748681  0
Zr  Zr1  1  0.10674101  0.12086135  0.38741619  1  2.628625  0  1.628469  2.365485  0  2.779092  0
Zr  Zr2  1  0.10522890  0.88441848  0.62436102  1  2.63242  0  1.629557  2.37197  0  2.758221  0
Zr  Zr3  1  0.86710690  0.12446668  0.38418250  1  2.637552  0  1.631997  2.375974  0  2.744184  0
Zr  Zr4  1  0.10538124  0.88457334  0.38465007  1  2.632826  0  1.631492  2.371318  0  2.754752  0
Zr  Zr5  1  0.86640165  0.12457603  0.62397356  1  2.634858  0  1.630735  2.371418  0  2.755685  0
H  H6  1  0.08063621  0.72210702  0.59635625  1  0.607912  0  0.31541  0.409663  0  0.901237  0
H  H7  1  0.08366192  0.09511069  0.22255220  1  0.61374  0  0.315573  0.409866  0  0.90197  0
H  H8  1  0.08075680  0.09787645  0.60017113  1  0.595695  0  0.333739  0.428916  0  0.848554  0
H  H9  1  0.70335974  0.10086384  0.59877535  1  0.626607  0  0.334468  0.428397  0  0.847969  0
H  H10  1  0.82535564  0.60558566  0.63513185  1  0.076664  0  0.108055  0.119506  0  0.995089  0
H  H11  1  0.13483239  0.58727774  0.36218411  1  0.140806  0  0.117432  0.142411  0  0.978044  0
H  H12  1  0.82861188  0.43385657  0.63500837  1  0.10677  0  0.110386  0.115866  0  0.987585  0
H  H13  1  0.58518577  0.84665667  0.92867719  1  0.099985  0  0.108956  0.120121  0  0.995497  0
H  H14  1  0.58592687  0.13596672  0.93387300  1  0.119762  0  0.116245  0.142526  0  0.982176  0
H  H15  1  0.41567599  0.84666497  0.09927786  1  0.099844  0  0.110485  0.116683  0  0.98831  0
H  H16  1  0.13742935  0.86184898  0.08480804  1  0.120023  0  0.10906  0.119459  0  0.994334  0
H  H17  1  0.82475463  0.13005850  0.10994048  1  0.105664  0  0.117103  0.142598  0  0.978458  0
H  H18  1  0.13534668  0.86354226  0.91507601  1  0.125041  0  0.111234  0.117217  0  0.986244  0
H  H19  1  0.58253345  0.43160199  0.63993196  1  0.110759  0  0.108334  0.119537  0  0.997499  0
H  H20  1  0.58904877  0.43149031  0.34479378  1  0.114494  0  0.117704  0.142396  0  0.978285  0
H  H21  1  0.41191091  0.60069787  0.63862335  1  0.093789  0  0.110246  0.116352  0  0.988403  0
H  H22  1  0.57692303  0.14632242  0.35214945  1  0.106692  0  0.110508  0.121969  0  0.992848  0
H  H23  1  0.58457050  0.85038674  0.63725580  1  0.099754  0  0.117124  0.141533  0  0.98132  0
H  H24  1  0.40748092  0.14346116  0.35421765  1  0.111125  0  0.110787  0.117095  0  0.987466  0
H  H25  1  0.14110781  0.34884666  0.35445094  1  0.628858  0  0.309788  0.35444  0  0.969051  0
H  H26  1  0.34694119  0.14070803  0.17323073  1  0.641812  0  0.309087  0.354087  0  0.970541  0
H  H27  1  0.81901933  0.13823176  0.86942381  1  0.628092  0  0.309756  0.355323  0  0.967934  0
H  H28  1  0.34790797  0.66904253  0.33967856  1  0.639805  0  0.309849  0.355917  0  0.966909  0
H  H29  1  0.34513525  0.84253822  0.64484635  1  0.635814  0  0.309891  0.355231  0  0.968769  0
C  C30  1  0.98159089  0.70558584  0.49962589  1  1.563082  0  0.239907  0.645192  0  4.083405  0
C  C31  1  0.30086996  0.99349827  0.20649614  1  1.510061  0  0.23501  0.653048  0  4.080435  0
C  C32  1  0.98238479  0.31312063  0.50307736  1  1.485484  0  0.235026  0.651051  0  4.085193  0
C  C33  1  0.68954148  0.99840095  0.81457213  1  1.541526  0  0.241577  0.647414  0  4.074396  0
C  C34  1  0.98735711  0.70037065  0.80642575  1  1.638537  0  0.237303  0.662686  0  4.137694  0
C  C35  1  0.68707588  0.00207025  0.49865218  1  1.551071  0  0.242507  0.647284  0  4.07913  0
C  C36  1  0.99326991  0.30476635  0.20043677  1  1.626094  0  0.236947  0.663914  0  4.133166  0
C  C37  1  0.29778524  0.00069037  0.49865005  1  1.499537  0  0.234527  0.652544  0  4.085252  0
C  C38  1  0.29921092  0.70469969  0.49912924  1  1.503621  0  0.235411  0.654666  0  4.080425  0
C  C39  1  0.98357760  0.99771811  0.81536418  1  1.49081  0  0.2361  0.653698  0  4.078329  0
C  C40  1  0.69099738  0.31583350  0.49735405  1  1.5397  0  0.241296  0.645327  0  4.075447  0
C  C41  1  0.98311759  0.99894035  0.20523510  1  1.554167  0  0.240481  0.644477  0  4.08322  0
C  C42  1  0.98225998  0.41478322  0.49934098  1  0.036598  0  -0.034517  -0.192392  0  3.968412  0
C  C43  1  0.98043162  0.60556783  0.49884082  1  -0.045904  0  -0.011558  -0.012965  0  3.995663  0
C  C44  1  0.06952675  0.45896450  0.42042738  1  0.529831  0  0.099105  0.323299  0  4.046706  0
C  C45  1  0.89290837  0.56329466  0.57641102  1  -0.029967  0  -0.097398  -0.133085  0  3.999339  0
C  C46  1  0.06747166  0.55422185  0.42183642  1  0.007754  0  -0.089067  -0.204886  0  3.904177  0
C  C47  1  0.89485657  0.46880183  0.57602716  1  -0.013829  0  -0.080139  -0.060981  0  4.001914  0
C  C48  1  0.40494945  0.99122250  0.11114188  1  -0.001455  0  -0.035054  -0.195387  0  3.967616  0
C  C49  1  0.59388822  0.99260065  0.92054696  1  -0.010451  0  -0.010771  -0.01116  0  3.990938  0
C  C50  1  0.45495387  0.07263239  0.06544397  1  0.490843  0  0.098305  0.322621  0  4.046549  0
C  C51  1  0.54762708  0.90904342  0.96773967  1  0.011719  0  -0.095615  -0.130752  0  3.99737  0
C  C52  1  0.54923878  0.07230546  0.96973709  1  0.008553  0  -0.091286  -0.211253  0  3.908836  0
C  C53  1  0.45416763  0.90930358  0.06179701  1  -0.048088  0  -0.078867  -0.058896  0  4.000884  0
C  C54  1  0.98025560  0.99705029  0.91710250  1  -0.063785  0  -0.034588  -0.193559  0  3.968209  0
C  C55  1  0.98129710  0.99636199  0.10647165  1  0.012777  0  -0.011288  -0.011708  0  3.993038  0
C  C56  1  0.89088001  0.07310925  0.97287897  1  0.547819  0  0.097075  0.320723  0  4.05111  0
C  C57  1  0.06937773  0.91988673  0.05263433  1  -0.062413  0  -0.094354  -0.125776  0  3.992829  0
C  C58  1  0.89283644  0.07158459  0.06753410  1  0.015054  0  -0.091929  -0.211734  0  3.910805  0
C  C59  1  0.06798102  0.92101179  0.95910862  1  -0.002153  0  -0.078147  -0.058094  0  3.997801  0
C  C60  1  0.40384218  0.61000134  0.49290353  1  0.027723  0  -0.035175  -0.195945  0  3.968575  0
C  C61  1  0.59435693  0.42106603  0.49321840  1  -0.030566  0  -0.01054  -0.009613  0  3.990804  0
C  C62  1  0.45577840  0.56336786  0.40720924  1  0.547729  0  0.098237  0.322509  0  4.049714  0
C  C63  1  0.54602076  0.46920743  0.57592156  1  -0.001278  0  -0.096884  -0.134187  0  4.003293  0
C  C64  1  0.55079938  0.46853328  0.40898294  1  -0.004564  0  -0.089949  -0.208592  0  3.906852  0
C  C65  1  0.45185222  0.56245296  0.57500143  1  -0.081152  0  -0.080062  -0.059138  0  4.001117  0
C  C66  1  0.99544522  0.59322189  0.90217832  1  0.056265  0  -0.012209  -0.14157  0  3.934715  0
C  C67  1  0.03417883  0.48786424  0.89146272  1  0.134058  0  -0.004385  -0.012022  0  4.007246  0
C  C68  1  0.96365860  0.59891604  0.00465805  1  0.507358  0  0.106779  0.17236  0  4.07169  0
C  C69  1  0.07315777  0.47366920  0.78844115  1  0.440234  0  0.093221  0.129027  0  4.046659  0
C  C70  1  0.10778656  0.37217304  0.77870439  1  0.637095  0  0.08916  0.082668  0  4.146054  0
C  C71  1  0.00023340  0.40067730  0.09345746  1  0.114099  0  -0.012381  -0.142624  0  3.93699  0
C  C72  1  0.96611652  0.50366391  0.09925490  1  0.530151  0  0.106104  0.171746  0  4.071765  0
C  C73  1  0.03652716  0.39012970  0.98859108  1  0.070419  0  -0.004184  -0.01239  0  4.008797  0
C  C74  1  0.07734586  0.28675613  0.97432935  1  0.544659  0  0.094074  0.131361  0  4.044964  0
C  C75  1  0.10990421  0.27696844  0.87338755  1  0.578281  0  0.089936  0.083521  0  4.14641  0
C  C76  1  0.40045028  0.99668472  0.49658320  1  -0.018025  0  -0.034586  -0.195309  0  3.970263  0
C  C77  1  0.58937426  0.99887858  0.49540811  1  -0.086974  0  -0.009867  -0.009405  0  3.992921  0
C  C78  1  0.45170512  0.91172161  0.57679254  1  0.544099  0  0.097721  0.320649  0  4.053036  0
C  C79  1  0.54088705  0.08175186  0.41403147  1  -0.014587  0  -0.093949  -0.12995  0  3.994259  0
C  C80  1  0.54609062  0.91436349  0.57509630  1  0.069282  0  -0.090569  -0.210113  0  3.912942  0
C  C81  1  0.44740706  0.07990196  0.41546723  1  -0.027333  0  -0.076949  -0.054454  0  3.992839  0
O  O82  1  0.90455290  0.74600628  0.57631870  1  -1.18104  0  -0.35645  -0.620471  0  2.298018  0
O  O83  1  0.25789239  0.07260780  0.24678638  1  -1.189797  0  -0.356208  -0.635489  0  2.331972  0
O  O84  1  0.06139607  0.27020343  0.42647085  1  -1.183565  0  -0.354841  -0.634156  0  2.324978  0
O  O85  1  0.72718486  0.92422194  0.77166440  1  -1.178285  0  -0.356425  -0.616194  0  2.282572  0
O  O86  1  0.06232841  0.74073438  0.77025699  1  -1.168277  0  -0.348961  -0.609614  0  2.267988  0
O  O87  1  0.72512361  0.08049156  0.42410755  1  -1.187517  0  -0.35567  -0.616469  0  2.281685  0
O  O88  1  0.91271320  0.27136576  0.23972952  1  -1.164778  0  -0.338889  -0.599529  0  2.258723  0
O  O89  1  0.25555044  0.92436054  0.57710614  1  -1.181153  0  -0.350314  -0.631112  0  2.323658  0
O  O90  1  0.25613074  0.74264071  0.42395589  1  -1.177133  0  -0.350478  -0.630971  0  2.319927  0
O  O91  1  0.90625860  0.07599140  0.77430436  1  -1.183181  0  -0.351291  -0.632306  0  2.321519  0
O  O92  1  0.72694601  0.27311642  0.57756140  1  -1.175017  0  -0.355979  -0.61862  0  2.277706  0
O  O93  1  0.06160855  0.92387306  0.24320458  1  -1.187126  0  -0.356871  -0.617817  0  2.281903  0
O  O94  1  0.06172175  0.92400292  0.77163962  1  -1.179496  0  -0.354651  -0.612209  0  2.274314  0
O  O95  1  0.72977914  0.27392420  0.42205566  1  -1.180458  0  -0.356783  -0.61819  0  2.279752  0
O  O96  1  0.90728218  0.07688769  0.24442348  1  -1.18142  0  -0.358183  -0.623816  0  2.298882  0
O  O97  1  0.25507542  0.74323920  0.57782380  1  -1.191696  0  -0.354596  -0.612821  0  2.281632  0
O  O98  1  0.90737610  0.73985756  0.77235172  1  -1.163892  0  -0.338296  -0.600079  0  2.255191  0
O  O99  1  0.25404751  0.07884275  0.42578650  1  -1.191546  0  -0.357454  -0.616924  0  2.286586  0
O  O100  1  0.06820505  0.26793088  0.24097107  1  -1.165298  0  -0.349566  -0.611665  0  2.253849  0
O  O101  1  0.72492237  0.92728145  0.57698248  1  -1.183361  0  -0.357118  -0.61849  0  2.291471  0
O  O102  1  0.72598292  0.07835886  0.77223406  1  -1.181543  0  -0.358079  -0.623684  0  2.278614  0
O  O103  1  0.06052170  0.74331952  0.42467741  1  -1.184734  0  -0.359335  -0.622273  0  2.282655  0
O  O104  1  0.25677865  0.92119306  0.24343351  1  -1.184881  0  -0.350502  -0.609081  0  2.272673  0
O  O105  1  0.90780443  0.27112021  0.58052488  1  -1.186458  0  -0.351897  -0.610294  0  2.278203  0
O  O106  1  0.78395260  0.07338162  0.57165569  1  -1.251696  0  -0.692741  -1.069372  0  2.353198  0
O  O107  1  0.05400734  0.07096849  0.57333237  1  -1.22142  0  -0.696886  -1.071989  0  2.355439  0
O  O108  1  0.05578950  0.07028429  0.30287128  1  -1.238195  0  -0.699606  -1.071736  0  2.371843  0
O  O109  1  0.05366521  0.80241565  0.57133907  1  -1.231095  0  -0.698138  -1.070737  0  2.366086  0
O  O110  1  0.13664255  0.95319088  0.45550700  1  -1.199295  0  -0.795334  -1.146432  0  2.13873  0
O  O111  1  0.93666710  0.95578549  0.45479874  1  -1.198388  0  -0.79172  -1.146141  0  2.138729  0
O  O112  1  0.93789061  0.15307182  0.45504491  1  -1.198467  0  -0.792865  -1.147395  0  2.132343  0
O  O113  1  0.93668811  0.95496938  0.65313631  1  -1.198432  0  -0.791116  -1.148071  0  2.127135  0
O  O114  1  0.15578562  0.41321348  0.34372451  1  -1.147572  0  -0.352691  -0.436998  0  2.245788  0
O  O115  1  0.41509434  0.15228239  0.10882461  1  -1.143467  0  -0.353258  -0.438322  0  2.245192  0
O  O116  1  0.80322039  0.14778958  0.93890343  1  -1.14107  0  -0.353833  -0.440955  0  2.246622  0
O  O117  1  0.41712535  0.60543471  0.32391361  1  -1.14774  0  -0.353259  -0.440977  0  2.243067  0
O  O118  1  0.41316337  0.82816800  0.65599904  1  -1.139268  0  -0.355225  -0.442693  0  2.245637  0
F  F119  1  0.93074376  0.51629704  0.19747894  1  -0.609055  0  -0.080794  -0.098506  0  1.345434  0
F  F120  1  0.92641757  0.69746270  0.01748587  1  -0.608052  0  -0.080379  -0.098047  0  1.345407  0
F  F121  1  0.08860532  0.19111591  0.06119874  1  -0.634902  0  -0.066608  -0.08871  0  1.429519  0
F  F122  1  0.14688949  0.17762908  0.86313815  1  -0.602826  0  -0.077793  -0.082948  0  1.380447  0
F  F123  1  0.14279768  0.36200554  0.67977238  1  -0.602203  0  -0.076998  -0.081367  0  1.377784  0
F  F124  1  0.08020313  0.56128421  0.69308505  1  -0.632581  0  -0.065863  -0.08768  0  1.432316  0
