# generated using pymatgen
data_CdH10C16N2ClO2
_symmetry_space_group_name_H-M   'P 1'
_cell_length_a   10.55807514
_cell_length_b   12.61204161
_cell_length_c   12.84914566
_cell_angle_alpha   82.62572478
_cell_angle_beta   65.74625238
_cell_angle_gamma   65.25039465
_symmetry_Int_Tables_number   1
_chemical_formula_structural   CdH10C16N2ClO2
_chemical_formula_sum   'Cd4 H40 C64 N8 Cl4 O8'
_cell_volume   1414.70278240
_cell_formula_units_Z   4
loop_
 _symmetry_equiv_pos_site_id
 _symmetry_equiv_pos_as_xyz
  1  'x, y, z'
loop_
 _atom_site_type_symbol
 _atom_site_label
 _atom_site_symmetry_multiplicity
 _atom_site_fract_x
 _atom_site_fract_y
 _atom_site_fract_z
 _atom_site_occupancy
 _atom_site_pbe_bader_spin_density
 _atom_site_pbe_cm5_charge
 _atom_site_pbe_ddec_charge
 _atom_site_pbe_ddec_spin_density
 _atom_site_pbe_ddec_sum_bond_order
 _atom_site_pbe_magmom
Cd  Cd0  1  0.43414725  0.62578364  0.11106286  1  0  0.694077  0.862227  0  2.31124  0
Cd  Cd1  1  0.82906182  0.12576190  0.61098155  1  0  0.694048  0.861869  0  2.311746  0
Cd  Cd2  1  0.56585387  0.37421584  0.88893620  1  0  0.694063  0.862196  0  2.311253  0
Cd  Cd3  1  0.17093723  0.87423759  0.38901898  1  0  0.694033  0.861869  0  2.311772  0
H  H4  1  0.18480029  0.40365111  0.30877180  1  0  0.095779  0.093991  0  1.04842  0
H  H5  1  0.10320483  0.90361806  0.80871615  1  0  0.095571  0.093777  0  1.048545  0
H  H6  1  0.81520233  0.59634750  0.69122764  1  0  0.095782  0.09399  0  1.048382  0
H  H7  1  0.89679180  0.09638405  0.19128485  1  0  0.095589  0.093801  0  1.04851  0
H  H8  1  0.98236583  0.69041576  0.55237367  1  0  0.086101  0.102567  0  1.078774  0
H  H9  1  0.77514368  0.19061376  0.05199342  1  0  0.085807  0.10195  0  1.078454  0
H  H10  1  0.01763874  0.30958110  0.44762690  1  0  0.086132  0.102649  0  1.078665  0
H  H11  1  0.22485295  0.80938836  0.94800758  1  0  0.085822  0.10198  0  1.078437  0
H  H12  1  0.47032289  0.56152473  0.36527370  1  0  0.112794  0.08879  0  1.021258  0
H  H13  1  0.60316318  0.06168443  0.86510789  1  0  0.113373  0.089256  0  1.021103  0
H  H14  1  0.52967837  0.43847649  0.63472508  1  0  0.112775  0.088757  0  1.021293  0
H  H15  1  0.39683645  0.93831593  0.13489155  1  0  0.113393  0.089258  0  1.021143  0
H  H16  1  0.66723709  0.51605944  0.44654352  1  0  0.107272  0.115637  0  1.000773  0
H  H17  1  0.37051697  0.01615818  0.94645460  1  0  0.10748  0.115722  0  1.000415  0
H  H18  1  0.33275922  0.48394529  0.55345647  1  0  0.107267  0.115641  0  1.000807  0
H  H19  1  0.62948207  0.98384130  0.05354515  1  0  0.107477  0.115713  0  1.000459  0
H  H20  1  0.06032076  0.60526426  0.14131009  1  0  0.107305  0.126505  0  1.006221  0
H  H21  1  0.19317768  0.10533800  0.64125487  1  0  0.10735  0.12733  0  1.003949  0
H  H22  1  0.93968139  0.39473523  0.85869017  1  0  0.107312  0.126513  0  1.006208  0
H  H23  1  0.80682091  0.89466236  0.35874492  1  0  0.107359  0.127338  0  1.003957  0
H  H24  1  0.90243767  0.54893615  0.32739898  1  0  0.105918  0.111107  0  1.035812  0
H  H25  1  0.22148272  0.04889704  0.82740460  1  0  0.106063  0.111023  0  1.035494  0
H  H26  1  0.09756149  0.45106509  0.67260284  1  0  0.105903  0.111078  0  1.03576  0
H  H27  1  0.77851632  0.95110245  0.17259514  1  0  0.106066  0.110999  0  1.035524  0
H  H28  1  0.08629458  0.68232145  0.95091603  1  0  0.096302  0.108292  0  1.03454  0
H  H29  1  0.28037527  0.18247027  0.45091077  1  0  0.096851  0.10911  0  1.03286  0
H  H30  1  0.91370653  0.31767804  0.04908458  1  0  0.096283  0.108276  0  1.034574  0
H  H31  1  0.71962482  0.81752921  0.54908863  1  0  0.096862  0.10913  0  1.032844  0
H  H32  1  0.96754727  0.76898466  0.80669521  1  0  0.108099  0.109009  0  1.003814  0
H  H33  1  0.45681190  0.26899264  0.30658556  1  0  0.108451  0.109624  0  1.005445  0
H  H34  1  0.03245340  0.23101570  0.19330388  1  0  0.108099  0.108995  0  1.00378  0
H  H35  1  0.54318715  0.73100685  0.69341419  1  0  0.108464  0.109624  0  1.005457  0
H  H36  1  0.75587628  0.81335670  0.74692345  1  0  0.097692  0.115433  0  1.035061  0
H  H37  1  0.68379512  0.31343625  0.24683049  1  0  0.097895  0.1158  0  1.034071  0
H  H38  1  0.24412334  0.18664367  0.25307754  1  0  0.097689  0.115436  0  1.03506  0
H  H39  1  0.31620439  0.68656236  0.75316922  1  0  0.097886  0.1158  0  1.034061  0
H  H40  1  0.53986357  0.75378729  0.87329042  1  0  0.109915  0.079177  0  1.024273  0
H  H41  1  0.83303432  0.25388117  0.37323816  1  0  0.10963  0.078457  0  1.023258  0
H  H42  1  0.46013696  0.24621134  0.12671127  1  0  0.109896  0.079143  0  1.024297  0
H  H43  1  0.16696577  0.74611831  0.62676124  1  0  0.109634  0.07846  0  1.023282  0
C  C44  1  0.19416517  0.60713934  0.33955437  1  0  0.203835  0.582634  0  4.202351  0
C  C45  1  0.85961706  0.10731727  0.83929214  1  0  0.204293  0.581467  0  4.205692  0
C  C46  1  0.80583699  0.39286015  0.66044511  1  0  0.203854  0.582572  0  4.202383  0
C  C47  1  0.14038107  0.89268396  0.16070769  1  0  0.204258  0.581394  0  4.205669  0
C  C48  1  0.09361029  0.55194330  0.42274709  1  0  -0.01871  -0.027751  0  3.967799  0
C  C49  1  0.93213927  0.05206460  0.92251456  1  0  -0.018441  -0.027101  0  3.965918  0
C  C50  1  0.90639578  0.44805269  0.57725309  1  0  -0.018746  -0.027792  0  3.967879  0
C  C51  1  0.06785690  0.94793839  0.07748648  1  0  -0.018486  -0.027272  0  3.966005  0
C  C52  1  0.10389778  0.44463722  0.39319605  1  0  -0.092409  -0.112432  0  4.004206  0
C  C53  1  0.05845657  0.94459677  0.89317355  1  0  -0.092409  -0.112295  0  4.002323  0
C  C54  1  0.89610737  0.55536052  0.60680421  1  0  -0.092385  -0.112365  0  4.004048  0
C  C55  1  0.94153948  0.05540448  0.10682775  1  0  -0.092328  -0.112114  0  4.002192  0
C  C56  1  0.98944533  0.60691242  0.53037874  1  0  -0.091612  -0.105605  0  3.978861  0
C  C57  1  0.87351250  0.10706911  0.03015901  1  0  -0.091722  -0.105445  0  3.97616  0
C  C58  1  0.01055878  0.39308532  0.46962109  1  0  -0.0916  -0.105638  0  3.978846  0
C  C59  1  0.12648354  0.89293213  0.96984308  1  0  -0.091714  -0.105367  0  3.976143  0
C  C60  1  0.57676357  0.57092989  0.31530366  1  0  0.050859  0.104394  0  3.954172  0
C  C61  1  0.53727898  0.07100748  0.81515748  1  0  0.050734  0.103667  0  3.956456  0
C  C62  1  0.42323723  0.42907221  0.68469516  1  0  0.050879  0.104422  0  3.954181  0
C  C63  1  0.46272006  0.92899201  0.18484305  1  0  0.050709  0.103652  0  3.956631  0
C  C64  1  0.68609294  0.54724928  0.36052871  1  0  -0.086247  -0.130884  0  3.977685  0
C  C65  1  0.40640728  0.04733497  0.86041479  1  0  -0.086088  -0.130053  0  3.98236  0
C  C66  1  0.31390520  0.45275196  0.63947112  1  0  -0.086244  -0.130883  0  3.977763  0
C  C67  1  0.59359085  0.95266627  0.13958504  1  0  -0.086122  -0.130136  0  3.982461  0
C  C68  1  0.81627892  0.56502920  0.29459096  1  0  -0.063447  -0.06696  0  3.909733  0
C  C69  1  0.32434684  0.06501797  0.79453411  1  0  -0.06404  -0.068481  0  3.91176  0
C  C70  1  0.18372186  0.43497292  0.70541020  1  0  -0.063453  -0.066934  0  3.909761  0
C  C71  1  0.67565175  0.93498239  0.20546568  1  0  -0.063971  -0.068302  0  3.911744  0
C  C72  1  0.83812070  0.60478612  0.18325677  1  0  -0.001936  0.041805  0  4.00368  0
C  C73  1  0.37399422  0.10475873  0.68316446  1  0  -0.000912  0.044695  0  4.000881  0
C  C74  1  0.16187846  0.39521512  0.81674427  1  0  -0.001982  0.041649  0  4.003777  0
C  C75  1  0.62600391  0.89524250  0.31683537  1  0  -0.000987  0.044638  0  4.000948  0
C  C76  1  0.72156900  0.62587514  0.14466550  1  0  0.117297  0.122288  0  3.968824  0
C  C77  1  0.50803071  0.12585841  0.64453133  1  0  0.116602  0.120998  0  3.967289  0
C  C78  1  0.27843270  0.37412522  0.85533402  1  0  0.11732  0.12244  0  3.968725  0
C  C79  1  0.49196788  0.87414195  0.35546924  1  0  0.11661  0.120964  0  3.967229  0
C  C80  1  0.97092218  0.62439801  0.11063975  1  0  -0.079382  -0.106151  0  3.939403  0
C  C81  1  0.29418156  0.12439759  0.61055557  1  0  -0.079658  -0.108241  0  3.937565  0
C  C82  1  0.02907848  0.37560235  0.88936090  1  0  -0.079369  -0.106116  0  3.939408  0
C  C83  1  0.70581807  0.87560277  0.38944387  1  0  -0.079672  -0.108297  0  3.937604  0
C  C84  1  0.98487762  0.66740335  0.00517471  1  0  -0.08503  -0.118436  0  3.980054  0
C  C85  1  0.34258603  0.16745138  0.50509390  1  0  -0.085553  -0.119143  0  3.976783  0
C  C86  1  0.01512408  0.33259701  0.99482481  1  0  -0.08502  -0.118399  0  3.980081  0
C  C87  1  0.65741360  0.83254898  0.49490554  1  0  -0.085524  -0.119132  0  3.976783  0
C  C88  1  0.73786851  0.66995884  0.03231832  1  0  0.120285  0.123925  0  3.966782  0
C  C89  1  0.55998458  0.16989676  0.53214264  1  0  0.119866  0.121543  0  3.969749  0
C  C90  1  0.26213411  0.33003977  0.96768190  1  0  0.120321  0.123937  0  3.966749  0
C  C91  1  0.44001505  0.83010360  0.46785680  1  0  0.119895  0.121597  0  3.969647  0
C  C92  1  0.86780641  0.69392056  0.96469378  1  0  -0.001432  0.041426  0  4.014244  0
C  C93  1  0.47366767  0.19388434  0.46455048  1  0  -0.001439  0.043434  0  4.01207  0
C  C94  1  0.13219575  0.30607892  0.03530570  1  0  -0.001453  0.041335  0  4.014292  0
C  C95  1  0.52633242  0.80611515  0.53544892  1  0  -0.001511  0.043422  0  4.012054  0
C  C96  1  0.87223986  0.74623122  0.86000245  1  0  -0.062013  -0.065836  0  3.910436  0
C  C97  1  0.52159513  0.24621691  0.35987301  1  0  -0.061829  -0.066319  0  3.910761  0
C  C98  1  0.12776127  0.25376827  0.13999660  1  0  -0.062016  -0.065789  0  3.910421  0
C  C99  1  0.47840495  0.75378258  0.64012639  1  0  -0.061803  -0.066291  0  3.910722  0
C  C100  1  0.75427612  0.77087704  0.82663234  1  0  -0.086987  -0.132933  0  3.988945  0
C  C101  1  0.64825312  0.27090282  0.32652587  1  0  -0.0879  -0.134782  0  3.987149  0
C  C102  1  0.24572351  0.22912332  0.17336788  1  0  -0.086992  -0.132964  0  3.988944  0
C  C103  1  0.35174488  0.72909667  0.67347578  1  0  -0.087892  -0.134785  0  3.987072  0
C  C104  1  0.63385056  0.73943989  0.89682243  1  0  0.055435  0.105119  0  3.952502  0
C  C105  1  0.72991803  0.23946463  0.39673572  1  0  0.056186  0.107503  0  3.949442  0
C  C106  1  0.36615010  0.26056047  0.10317744  1  0  0.055476  0.105159  0  3.95246  0
C  C107  1  0.27008101  0.76053486  0.60326403  1  0  0.05617  0.107498  0  3.949454  0
N  N108  1  0.59366332  0.60934398  0.21106894  1  0  -0.318052  -0.2716  0  3.497639  0
N  N109  1  0.58610981  0.10937732  0.71089824  1  0  -0.318047  -0.270306  0  3.497617  0
N  N110  1  0.40633838  0.39065638  0.78892980  1  0  -0.31803  -0.271613  0  3.497614  0
N  N111  1  0.41388878  0.89062304  0.28910155  1  0  -0.318011  -0.270255  0  3.497614  0
N  N112  1  0.62681431  0.69028115  0.99581512  1  0  -0.319061  -0.252869  0  3.511592  0
N  N113  1  0.68720290  0.19021612  0.49567266  1  0  -0.318402  -0.25197  0  3.51253  0
N  N114  1  0.37318877  0.30971659  0.00418427  1  0  -0.319074  -0.25284  0  3.511583  0
N  N115  1  0.31279569  0.80978424  0.50432713  1  0  -0.318412  -0.252016  0  3.512508  0
Cl  Cl116  1  0.38491939  0.60221261  0.93093336  1  0  -0.295717  -0.515884  0  1.2654  0
Cl  Cl117  1  0.08190587  0.10226294  0.43082962  1  0  -0.296383  -0.516515  0  1.264702  0
Cl  Cl118  1  0.61508070  0.39778688  0.06906604  1  0  -0.295724  -0.515893  0  1.265417  0
Cl  Cl119  1  0.91809363  0.89773567  0.56917087  1  0  -0.296375  -0.516506  0  1.26471  0
O  O120  1  0.24044621  0.58091974  0.23364457  1  0  -0.327992  -0.540874  0  2.271891  0
O  O121  1  0.94540393  0.08118688  0.73336285  1  0  -0.327824  -0.540582  0  2.272785  0
O  O122  1  0.75955388  0.41907975  0.76635483  1  0  -0.328027  -0.540883  0  2.271782  0
O  O123  1  0.05459420  0.91881436  0.26663775  1  0  -0.32783  -0.540572  0  2.272777  0
O  O124  1  0.22999234  0.67232635  0.37953547  1  0  -0.33909  -0.586548  0  2.328529  0
O  O125  1  0.71859403  0.17245842  0.87933658  1  0  -0.339442  -0.585667  0  2.330783  0
O  O126  1  0.77000787  0.32767489  0.62046444  1  0  -0.339059  -0.586457  0  2.328586  0
O  O127  1  0.28140456  0.82754194  0.12066321  1  0  -0.339419  -0.585601  0  2.330746  0
