# generated using pymatgen
data_CuH11C17(NO2)2
_symmetry_space_group_name_H-M   'P 1'
_cell_length_a   10.95463184
_cell_length_b   10.93754022
_cell_length_c   13.67446758
_cell_angle_alpha   108.85078259
_cell_angle_beta   90.00029636
_cell_angle_gamma   89.99985101
_symmetry_Int_Tables_number   1
_chemical_formula_structural   CuH11C17(NO2)2
_chemical_formula_sum   'Cu4 H44 C68 N8 O16'
_cell_volume   1550.54989384
_cell_formula_units_Z   4
loop_
 _symmetry_equiv_pos_site_id
 _symmetry_equiv_pos_as_xyz
  1  'x, y, z'
loop_
 _atom_site_type_symbol
 _atom_site_label
 _atom_site_symmetry_multiplicity
 _atom_site_fract_x
 _atom_site_fract_y
 _atom_site_fract_z
 _atom_site_occupancy
 _atom_site_pbe_bader_charge
 _atom_site_pbe_bader_spin_density
 _atom_site_pbe_cm5_charge
 _atom_site_pbe_ddec_charge
 _atom_site_pbe_ddec_spin_density
 _atom_site_pbe_ddec_sum_bond_order
 _atom_site_pbe_magmom
Cu  Cu0  1  0.19296881  0.20919486  0.14907471  1  1.075283  0.562448  0.685159  0.776446  0.716335  2.38236  0.56
Cu  Cu1  1  0.19296935  0.29080583  0.35092810  1  1.048997  -0.56244  0.685183  0.776555  -0.716314  2.382258  -0.56
Cu  Cu2  1  0.80703110  0.79080540  0.85092524  1  1.049075  -0.562445  0.685186  0.776525  -0.716333  2.382265  -0.56
Cu  Cu3  1  0.80703421  0.70919443  0.64907112  1  1.075256  0.562441  0.685183  0.776525  0.716312  2.382357  0.56
H  H4  1  0.80783915  0.17387027  0.08413828  1  0.086709  8.8e-05  0.10618  0.113817  0.000147  1.007097  0.0
H  H5  1  0.80784275  0.32612597  0.41587180  1  0.087214  -8.8e-05  0.106165  0.113769  -0.000148  1.007183  0.0
H  H6  1  0.19216167  0.82611943  0.91586921  1  0.086416  -8.8e-05  0.106181  0.113808  -0.000147  1.007065  0.0
H  H7  1  0.19215898  0.67386275  0.58413471  1  0.086709  8.9e-05  0.106184  0.113797  0.000147  1.00699  0.0
H  H8  1  0.57936136  0.17579318  0.08405597  1  0.095371  0.000105  0.105686  0.112165  0.000149  0.994627  0.0
H  H9  1  0.57936314  0.32420912  0.41596056  1  0.095047  -0.000105  0.105692  0.112252  -0.000149  0.994603  0.0
H  H10  1  0.42064493  0.82420132  0.91594836  1  0.095319  -0.000105  0.105661  0.112148  -0.000149  0.9946  0.0
H  H11  1  0.42063493  0.67579018  0.58404134  1  0.095003  0.000105  0.105687  0.112181  0.000149  0.994654  0.0
H  H12  1  0.00167892  0.10741451  0.95515189  1  0.130427  -6.4e-05  0.119102  0.119334  -5.3e-05  1.014693  0.0
H  H13  1  0.00166719  0.39258896  0.54484618  1  0.130215  6.4e-05  0.119088  0.119287  5.3e-05  1.014804  0.0
H  H14  1  0.99832646  0.89258578  0.04485245  1  0.130447  6.4e-05  0.119086  0.119321  5.3e-05  1.014742  0.0
H  H15  1  0.99833088  0.60741706  0.45514865  1  0.130459  -6.4e-05  0.119071  0.119263  -5.3e-05  1.014638  0.0
H  H16  1  0.07175463  0.04879495  0.74967946  1  0.10412  -4.5e-05  0.121773  0.123497  -2.8e-05  1.016697  0.0
H  H17  1  0.07175046  0.45120458  0.75031937  1  0.104128  4.5e-05  0.121793  0.123497  2.8e-05  1.016787  0.0
H  H18  1  0.92824162  0.95120725  0.25032318  1  0.104124  4.5e-05  0.121761  0.123431  2.8e-05  1.016707  0.0
H  H19  1  0.92824671  0.54879757  0.24967521  1  0.10412  -4.5e-05  0.121751  0.123431  -2.8e-05  1.016625  0.0
H  H20  1  0.38223383  0.15385357  0.94408303  1  0.114861  -3e-06  0.138256  0.106406  -3e-06  0.989711  0.0
H  H21  1  0.38222321  0.34614659  0.55591360  1  0.114972  3e-06  0.138236  0.106468  3e-06  0.989666  0.0
H  H22  1  0.61776881  0.84615149  0.05591302  1  0.114876  3e-06  0.13827  0.106464  3e-06  0.989658  0.0
H  H23  1  0.61777122  0.65385558  0.44408391  1  0.114941  -3e-06  0.138252  0.106417  -3e-06  0.989668  0.0
H  H24  1  0.17902388  0.12208598  0.64061631  1  0.07562  -6e-06  0.106436  0.113949  -3e-06  1.003747  0.0
H  H25  1  0.17901968  0.37792599  0.85938320  1  0.075641  6e-06  0.106418  0.113997  3e-06  1.003757  0.0
H  H26  1  0.82097511  0.87792585  0.35938219  1  0.075843  6e-06  0.106441  0.113999  3e-06  1.003776  0.0
H  H27  1  0.82097474  0.62208969  0.14061556  1  0.075637  -6e-06  0.106453  0.113954  -3e-06  1.003729  0.0
H  H28  1  0.30101385  0.07580367  0.48392542  1  0.103714  -6.2e-05  0.102356  0.107196  -7.8e-05  1.053559  0.0
H  H29  1  0.30101281  0.42421135  0.01607271  1  0.103886  6.2e-05  0.102323  0.107202  7.8e-05  1.053526  0.0
H  H30  1  0.69898423  0.92420719  0.51607284  1  0.103828  6.2e-05  0.102325  0.107236  7.8e-05  1.05349  0.0
H  H31  1  0.69897888  0.57580820  0.98392704  1  0.103655  -6.2e-05  0.102324  0.107235  -7.8e-05  1.053517  0.0
H  H32  1  0.60738861  0.97790296  0.64303098  1  0.094045  -3e-06  0.099847  0.103626  2.7e-05  1.059553  0.0
H  H33  1  0.60739080  0.52208643  0.85696042  1  0.094015  4e-06  0.09984  0.103631  -2.7e-05  1.05967  0.0
H  H34  1  0.39260399  0.02208469  0.35695844  1  0.09397  3e-06  0.099805  0.103593  -2.7e-05  1.059688  0.0
H  H35  1  0.39261093  0.47790220  0.14303145  1  0.094032  -4e-06  0.099862  0.103641  2.7e-05  1.059577  0.0
H  H36  1  0.48617587  0.02792047  0.80042927  1  0.072273  2e-05  0.106705  0.114299  1e-05  1.004596  0.0
H  H37  1  0.48617588  0.47206411  0.69956090  1  0.072211  -2e-05  0.106674  0.114248  -1e-05  1.004632  0.0
H  H38  1  0.51381947  0.97206622  0.19956064  1  0.072062  -2e-05  0.10665  0.114218  -1e-05  1.004666  0.0
H  H39  1  0.51382585  0.52792260  0.30043121  1  0.072198  2e-05  0.106707  0.1143  1e-05  1.004577  0.0
H  H40  1  0.17720917  0.93114939  0.41566393  1  0.106102  -7.2e-05  0.105539  0.110665  -0.000121  1.023439  0.0
H  H41  1  0.17720859  0.56884753  0.08433370  1  0.106131  7.2e-05  0.105512  0.110627  0.000121  1.023472  0.0
H  H42  1  0.82278890  0.06885670  0.58434189  1  0.106234  7.2e-05  0.105568  0.110695  0.000121  1.023489  0.0
H  H43  1  0.82279497  0.43115373  0.91567089  1  0.106048  -7.2e-05  0.105503  0.110589  -0.000121  1.023513  0.0
H  H44  1  0.18345523  0.70384180  0.41654972  1  0.090593  -0.000121  0.10764  0.111651  -0.000156  1.010804  0.0
H  H45  1  0.18345587  0.79615800  0.08344794  1  0.090546  0.00012  0.107654  0.111682  0.000156  1.010801  0.0
H  H46  1  0.81654010  0.29616332  0.58345586  1  0.090659  0.00012  0.107655  0.111733  0.000156  1.01087  0.0
H  H47  1  0.81655681  0.20384227  0.91655420  1  0.090579  -0.00012  0.107649  0.111693  -0.000156  1.010743  0.0
C  C48  1  0.95835308  0.24999804  0.25000424  1  1.556487  2e-06  0.210211  0.557458  -1e-06  4.194663  0.0
C  C49  1  0.04165230  0.74999165  0.75000252  1  1.557099  2e-06  0.210285  0.557493  1e-06  4.194494  0.0
C  C50  1  0.82144022  0.24999812  0.25000617  1  -0.055789  1e-06  -0.012228  -0.021658  1e-06  3.952891  0.0
C  C51  1  0.17856060  0.74998867  0.74999986  1  -0.055945  1e-06  -0.012274  -0.021499  1e-06  3.952715  0.0
C  C52  1  0.75704712  0.20795830  0.15635821  1  -0.020615  -0.001704  -0.081197  -0.089673  -0.001109  3.954147  -0.002
C  C53  1  0.75704944  0.29203415  0.34365435  1  -0.021414  0.001704  -0.081263  -0.089537  0.001109  3.954343  0.002
C  C54  1  0.24295461  0.79203043  0.84364830  1  -0.020324  0.001704  -0.081218  -0.089708  0.001109  3.954179  0.002
C  C55  1  0.24295229  0.70794975  0.65635313  1  -0.020722  -0.001703  -0.081226  -0.089612  -0.001108  3.954019  -0.002
C  C56  1  0.63007435  0.20791430  0.15640670  1  -0.036632  -0.001702  -0.082524  -0.094226  -0.001111  3.968042  -0.002
C  C57  1  0.63007666  0.29208217  0.34361075  1  -0.036516  0.001701  -0.082578  -0.094616  0.001111  3.968348  0.002
C  C58  1  0.36992921  0.79207634  0.84359738  1  -0.036795  0.001701  -0.082509  -0.09439  0.001111  3.968124  0.002
C  C59  1  0.36992415  0.70790750  0.65639309  1  -0.036385  -0.001701  -0.082555  -0.09451  -0.001111  3.968106  -0.002
C  C60  1  0.56561419  0.25000117  0.25000934  1  -0.046084  0.0  -0.013714  -0.029173  0.0  3.970533  0.0
C  C61  1  0.43438937  0.74999140  0.74999450  1  -0.046002  1e-06  -0.013779  -0.029013  0.0  3.970394  0.0
C  C62  1  0.42867850  0.25000122  0.25000614  1  1.559323  0.0  0.211086  0.566679  -1e-06  4.175697  0.0
C  C63  1  0.57132140  0.74999712  0.74999478  1  1.558713  0.0  0.211029  0.566522  1e-06  4.175961  0.0
C  C64  1  0.09119620  0.11017513  0.92236726  1  0.49243  -0.00033  8.5e-05  -0.013935  -0.000221  3.982592  0.0
C  C65  1  0.09118560  0.38982244  0.57762968  1  0.492916  0.00033  0.000144  -0.013834  0.00022  3.98261  0.0
C  C66  1  0.90880736  0.88982419  0.07763610  1  0.492249  0.000331  8.2e-05  -0.013908  0.000221  3.982757  0.0
C  C67  1  0.90880426  0.61017293  0.42235951  1  0.492405  -0.00033  0.000121  -0.013791  -0.00022  3.982857  0.0
C  C68  1  0.12393549  0.08158501  0.82057133  1  0.215812  9.3e-05  -0.004382  -0.114714  7.4e-05  3.930741  0.0
C  C69  1  0.12392729  0.41841640  0.67942746  1  0.215842  -9.3e-05  -0.004438  -0.114779  -7.5e-05  3.93083  0.0
C  C70  1  0.87606350  0.91841718  0.17942838  1  0.215834  -9.3e-05  -0.004362  -0.114665  -7.4e-05  3.930808  0.0
C  C71  1  0.87606348  0.58159063  0.32057641  1  0.21573  9.3e-05  -0.004347  -0.11471  7.5e-05  3.931127  0.0
C  C72  1  0.28813569  0.13230188  0.92053701  1  0.995565  -0.00059  0.14278  0.103195  -0.000407  3.917469  0.0
C  C73  1  0.28812790  0.36769838  0.57945852  1  0.996247  0.00059  0.14276  0.103019  0.000407  3.917726  0.0
C  C74  1  0.71186513  0.86770512  0.07946027  1  0.996268  0.00059  0.142813  0.103153  0.000407  3.917371  0.0
C  C75  1  0.71186835  0.63230282  0.42053728  1  0.995922  -0.00059  0.142767  0.10315  -0.000406  3.91746  0.0
C  C76  1  0.32311214  0.07478419  0.73067478  1  0.325039  0.0  0.094509  0.170683  -7e-06  4.027733  0.0
C  C77  1  0.32310451  0.42521699  0.76932040  1  0.325304  -1e-06  0.094485  0.170623  6e-06  4.027872  0.0
C  C78  1  0.67688776  0.92522376  0.26932128  1  0.325365  -0.0  0.094555  0.170708  7e-06  4.027755  0.0
C  C79  1  0.67688809  0.57478421  0.23067540  1  0.324997  1e-06  0.094478  0.170556  -6e-06  4.027795  0.0
C  C80  1  0.27253688  0.08812321  0.64076841  1  -0.036723  -3.5e-05  -0.095913  -0.169052  -2.2e-05  3.997831  0.0
C  C81  1  0.27253442  0.41188673  0.85923098  1  -0.036747  3.5e-05  -0.095916  -0.169129  2.2e-05  3.997914  0.0
C  C82  1  0.72746393  0.91188958  0.35923035  1  -0.036884  3.5e-05  -0.095903  -0.169043  2.2e-05  3.997825  0.0
C  C83  1  0.72746092  0.58812413  0.14076801  1  -0.036693  -3.5e-05  -0.095892  -0.168969  -2.2e-05  3.997823  0.0
C  C84  1  0.34255724  0.06106927  0.55155039  1  -0.073064  -0.000128  -0.090388  -0.122092  -7.4e-05  3.984086  0.0
C  C85  1  0.34255619  0.43894251  0.94844684  1  -0.07308  0.000128  -0.090314  -0.122045  7.4e-05  3.984012  0.0
C  C86  1  0.65744449  0.93894157  0.44844567  1  -0.073372  0.000129  -0.090389  -0.122256  7.4e-05  3.984108  0.0
C  C87  1  0.65743914  0.56106835  0.05155143  1  -0.073014  -0.000128  -0.090388  -0.12215  -7.4e-05  3.984211  0.0
C  C88  1  0.46394978  0.01780057  0.54832035  1  -0.010607  -5.7e-05  -0.011451  0.058414  -3.6e-05  3.992164  0.0
C  C89  1  0.46395137  0.48220527  0.95167294  1  0.030917  5.7e-05  -0.01153  0.058394  3.6e-05  3.99223  0.0
C  C90  1  0.53605104  0.98220929  0.45167254  1  0.031077  5.7e-05  -0.011484  0.058463  3.6e-05  3.992207  0.0
C  C91  1  0.53604853  0.51779301  0.04831992  1  -0.010981  -5.7e-05  -0.011458  0.058361  -3.6e-05  3.992273  0.0
C  C92  1  0.51393168  0.01018717  0.64100730  1  -0.029188  2.8e-05  -0.089143  -0.105523  6e-06  3.95984  0.0
C  C93  1  0.51393175  0.48980318  0.85898225  1  -0.029248  -2.8e-05  -0.089072  -0.105481  -6e-06  3.959838  0.0
C  C94  1  0.48606366  0.98980435  0.35898311  1  -0.029156  -2.8e-05  -0.08905  -0.105379  -6e-06  3.959937  0.0
C  C95  1  0.48606906  0.51018450  0.14101010  1  -0.02877  2.8e-05  -0.089108  -0.105485  6e-06  3.959768  0.0
C  C96  1  0.44540658  0.03866503  0.73103648  1  -0.030764  -3.6e-05  -0.092844  -0.164678  -2.1e-05  3.996399  0.0
C  C97  1  0.44540432  0.46132541  0.76895793  1  -0.030694  3.6e-05  -0.092819  -0.16461  2.1e-05  3.996485  0.0
C  C98  1  0.55458967  0.96132845  0.26895881  1  -0.030693  3.6e-05  -0.092833  -0.164691  2.1e-05  3.996641  0.0
C  C99  1  0.55459649  0.53866613  0.23103614  1  -0.030701  -3.6e-05  -0.092835  -0.164622  -2.1e-05  3.996423  0.0
C  C100  1  0.17984537  0.85148778  0.34334196  1  -0.072378  0.001446  -0.082004  -0.094628  0.000947  3.96703  0.001
C  C101  1  0.17984413  0.64851009  0.15665447  1  -0.07173  -0.001447  -0.081938  -0.09459  -0.000947  3.966869  -0.001
C  C102  1  0.82015635  0.14851733  0.65666215  1  -0.072251  -0.001446  -0.082036  -0.094625  -0.000946  3.967134  -0.001
C  C103  1  0.82016216  0.35149404  0.84334793  1  -0.071641  0.001447  -0.081978  -0.094595  0.000947  3.966883  0.001
C  C104  1  0.18194511  0.72473441  0.34393226  1  -0.04081  0.001665  -0.079729  -0.089315  0.001097  3.963404  0.002
C  C105  1  0.18194718  0.77526248  0.15606319  1  -0.040618  -0.001665  -0.079713  -0.089295  -0.001097  3.963335  -0.002
C  C106  1  0.81805205  0.27526874  0.65606842  1  -0.040989  -0.001665  -0.079757  -0.089489  -0.001097  3.963549  -0.002
C  C107  1  0.81806276  0.22473973  0.84394018  1  -0.040641  0.001665  -0.079663  -0.089274  0.001097  3.963377  0.002
C  C108  1  0.18260004  0.87770204  0.24950917  1  0.013611  0.000333  -0.012292  -0.024047  0.000248  3.961586  0.0
C  C109  1  0.18259672  0.62229486  0.25048775  1  0.013612  -0.000331  -0.012285  -0.023989  -0.000246  3.961468  0.0
C  C110  1  0.81740534  0.12230113  0.75049371  1  0.013432  -0.000332  -0.012313  -0.024029  -0.000247  3.961719  0.0
C  C111  1  0.81740227  0.37770734  0.74951489  1  0.013645  0.000332  -0.01225  -0.023951  0.000247  3.961444  0.0
C  C112  1  0.18759540  0.01428874  0.24905152  1  1.525623  -0.000264  0.211542  0.561155  -0.000166  4.177233  0.0
C  C113  1  0.18759205  0.48571000  0.25094711  1  1.525632  0.000262  0.211574  0.561153  0.000165  4.177168  0.0
C  C114  1  0.81240998  0.98571348  0.75095332  1  1.52636  0.000263  0.211634  0.56124  0.000167  4.177125  0.0
C  C115  1  0.81240511  0.51429220  0.74905553  1  1.525786  -0.000261  0.211611  0.561286  -0.000165  4.176952  0.0
N  N116  1  0.19409529  0.14227708  0.98365233  1  -1.190082  -0.001574  -0.362987  -0.292774  -0.000744  3.519433  0.0
N  N117  1  0.19408621  0.35772424  0.51634380  1  -1.190853  0.001573  -0.362977  -0.292699  0.000743  3.519609  0.0
N  N118  1  0.80590918  0.85772704  0.01634787  1  -1.190364  0.001573  -0.362976  -0.292764  0.000744  3.519564  0.0
N  N119  1  0.80591187  0.64227405  0.48365053  1  -1.190099  -0.001574  -0.362973  -0.2928  -0.000744  3.519545  0.0
N  N120  1  0.24981464  0.09580788  0.81990931  1  -1.267394  -0.000168  -0.228015  -0.00157  -8.1e-05  3.825271  0.0
N  N121  1  0.24980648  0.40419048  0.68008558  1  -1.267967  0.000168  -0.228011  -0.001496  8.1e-05  3.825315  0.0
N  N122  1  0.75018709  0.90419719  0.18008894  1  -1.267806  0.000168  -0.22805  -0.001568  8.1e-05  3.825136  0.0
N  N123  1  0.75018794  0.59581168  0.31990974  1  -1.267794  -0.000168  -0.228051  -0.001496  -8.1e-05  3.825356  0.0
O  O124  1  0.01090612  0.22534849  0.16251500  1  -1.102859  0.089764  -0.30907  -0.512772  0.057878  2.363925  0.081
O  O125  1  0.01090844  0.27465050  0.33749466  1  -1.102626  -0.089778  -0.309014  -0.512745  -0.057883  2.363994  -0.081
O  O126  1  0.98909561  0.77464312  0.83749006  1  -1.103191  -0.089766  -0.309049  -0.512763  -0.057877  2.363949  -0.081
O  O127  1  0.98909786  0.72534403  0.66251407  1  -1.102832  0.089777  -0.309074  -0.512851  0.057886  2.36388  0.081
O  O128  1  0.37581206  0.20562842  0.16240897  1  -1.110559  0.082814  -0.312809  -0.522854  0.053567  2.347427  0.075
O  O129  1  0.37581159  0.29437503  0.33760334  1  -1.110264  -0.082823  -0.31293  -0.523056  -0.053572  2.347584  -0.075
O  O130  1  0.62418784  0.79437667  0.83759294  1  -1.110104  -0.082818  -0.312791  -0.522829  -0.05357  2.34745  -0.075
O  O131  1  0.62418831  0.70562428  0.66239929  1  -1.110209  0.082817  -0.312873  -0.522958  0.053568  2.347603  0.075
O  O132  1  0.18137398  0.03163789  0.16154130  1  -1.095191  0.081862  -0.30638  -0.509238  0.053031  2.362173  0.074
O  O133  1  0.18137398  0.46836279  0.33845853  1  -1.095166  -0.081858  -0.30638  -0.509237  -0.053028  2.362114  -0.074
O  O134  1  0.81863231  0.96836530  0.83846451  1  -1.095344  -0.08186  -0.306511  -0.509356  -0.05303  2.362119  -0.074
O  O135  1  0.81862775  0.53164135  0.66154460  1  -1.095225  0.081864  -0.306443  -0.509345  0.053033  2.362134  0.074
O  O136  1  0.19898527  0.10206507  0.33677379  1  -1.115356  -0.079962  -0.310098  -0.522006  -0.051814  2.389107  -0.072
O  O137  1  0.19898433  0.39793269  0.16322537  1  -1.115457  0.07997  -0.31012  -0.522005  0.05182  2.389061  0.072
O  O138  1  0.80101646  0.89793714  0.66323032  1  -1.115924  0.079962  -0.310066  -0.521988  0.051813  2.389136  0.072
O  O139  1  0.80101193  0.60206951  0.83677727  1  -1.115524  -0.079976  -0.31009  -0.522011  -0.051824  2.389034  -0.072
