# generated using pymatgen
data_LiH10C8O5
_symmetry_space_group_name_H-M   'P 1'
_cell_length_a   6.35483923
_cell_length_b   7.94822115
_cell_length_c   17.17416724
_cell_angle_alpha   89.99975365
_cell_angle_beta   95.84576420
_cell_angle_gamma   90.00002824
_symmetry_Int_Tables_number   1
_chemical_formula_structural   LiH10C8O5
_chemical_formula_sum   'Li4 H40 C32 O20'
_cell_volume   862.95039528
_cell_formula_units_Z   4
loop_
 _symmetry_equiv_pos_site_id
 _symmetry_equiv_pos_as_xyz
  1  'x, y, z'
loop_
 _atom_site_type_symbol
 _atom_site_label
 _atom_site_symmetry_multiplicity
 _atom_site_fract_x
 _atom_site_fract_y
 _atom_site_fract_z
 _atom_site_occupancy
 _atom_site_hle17_bader_spin_density
 _atom_site_hle17_ddec_charge
 _atom_site_hle17_ddec_spin_density
 _atom_site_hle17_ddec_sum_bond_order
 _atom_site_hle17_magmom
 _atom_site_hse06_10hf_bader_spin_density
 _atom_site_hse06_10hf_ddec_charge
 _atom_site_hse06_10hf_ddec_spin_density
 _atom_site_hse06_10hf_ddec_sum_bond_order
 _atom_site_hse06_10hf_magmom
 _atom_site_hse06_bader_spin_density
 _atom_site_hse06_ddec_charge
 _atom_site_hse06_ddec_spin_density
 _atom_site_hse06_ddec_sum_bond_order
 _atom_site_hse06_magmom
 _atom_site_pbe_bader_spin_density
 _atom_site_pbe_cm5_charge
 _atom_site_pbe_ddec_charge
 _atom_site_pbe_ddec_spin_density
 _atom_site_pbe_ddec_sum_bond_order
 _atom_site_pbe_magmom
Li  Li0  1  0.54715432  0.27085818  0.54402504  1  0  0.85123  0  0.402595  0  0  0.818093  0  0.496312  0  0  0.826492  0  0.480684  0  0  0.518266  0.811931  0  0.507711  0
Li  Li1  1  0.95284500  0.77085860  0.45597396  1  0  0.85125  0  0.402564  0  0  0.818109  0  0.496284  0  0  0.826508  0  0.480656  0  0  0.518272  0.811948  0  0.507683  0
Li  Li2  1  0.45284677  0.72913973  0.45597428  1  0  0.851212  0  0.402626  0  0  0.818093  0  0.496306  0  0  0.826492  0  0.480678  0  0  0.518255  0.811931  0  0.507708  0
Li  Li3  1  0.04715450  0.22913806  0.54402414  1  0  0.851228  0  0.402616  0  0  0.818098  0  0.496317  0  0  0.826497  0  0.480688  0  0  0.518261  0.811934  0  0.507719  0
H  H4  1  0.00688706  0.33012057  0.77840368  1  0  0.121088  0  0.939463  0  0  0.13019  0  0.998488  0  0  0.134813  0  0.99558  0  0  0.10895  0.126847  0  1.000732  0
H  H5  1  0.49311111  0.83012695  0.22159792  1  0  0.121077  0  0.939495  0  0  0.130168  0  0.998524  0  0  0.134795  0  0.995613  0  0  0.108959  0.126824  0  1.000769  0
H  H6  1  0.99312203  0.66987735  0.22160116  1  0  0.121038  0  0.939406  0  0  0.130132  0  0.998459  0  0  0.134744  0  0.995569  0  0  0.108925  0.126788  0  1.000703  0
H  H7  1  0.50688682  0.16988229  0.77840128  1  0  0.121063  0  0.939395  0  0  0.130145  0  0.998445  0  0  0.134783  0  0.995521  0  0  0.108932  0.126803  0  1.000687  0
H  H8  1  0.31261645  0.66482426  0.00595031  1  0  0.086053  0  0.981926  0  0  0.096961  0  1.044493  0  0  0.099002  0  1.044477  0  0  0.096153  0.095547  0  1.044452  0
H  H9  1  0.18737373  0.16482349  0.99404727  1  0  0.086107  0  0.981936  0  0  0.097114  0  1.044351  0  0  0.099157  0  1.044332  0  0  0.096235  0.095699  0  1.04431  0
H  H10  1  0.68737358  0.33517617  0.99404920  1  0  0.086038  0  0.981932  0  0  0.097051  0  1.044349  0  0  0.099093  0  1.04433  0  0  0.096173  0.095626  0  1.044321  0
H  H11  1  0.81262101  0.83517442  0.00595066  1  0  0.086023  0  0.981969  0  0  0.097036  0  1.044385  0  0  0.099078  0  1.044368  0  0  0.096191  0.095618  0  1.04435  0
H  H12  1  0.48548910  0.66467929  0.88699240  1  0  0.102781  0  0.988249  0  0  0.111849  0  1.05429  0  0  0.114172  0  1.05514  0  0  0.098897  0.110128  0  1.053938  0
H  H13  1  0.01450902  0.16467658  0.11300720  1  0  0.102791  0  0.988182  0  0  0.111854  0  1.054234  0  0  0.114178  0  1.055083  0  0  0.09888  0.110135  0  1.053876  0
H  H14  1  0.51451362  0.33532743  0.11300988  1  0  0.102787  0  0.988277  0  0  0.111896  0  1.054277  0  0  0.114221  0  1.055121  0  0  0.098902  0.110172  0  1.053931  0
H  H15  1  0.98548731  0.83532260  0.88699137  1  0  0.102785  0  0.988273  0  0  0.111893  0  1.054277  0  0  0.114217  0  1.055123  0  0  0.098904  0.11017  0  1.053931  0
H  H16  1  0.82881997  0.33207280  0.89846285  1  0  0.083053  0  0.992298  0  0  0.093678  0  1.056662  0  0  0.095535  0  1.057038  0  0  0.094993  0.092296  0  1.056594  0
H  H17  1  0.67118415  0.83208018  0.10153969  1  0  0.083074  0  0.992267  0  0  0.093698  0  1.056649  0  0  0.095563  0  1.057001  0  0  0.094996  0.092316  0  1.056582  0
H  H18  1  0.17118433  0.66792511  0.10153949  1  0  0.083064  0  0.992297  0  0  0.093709  0  1.056622  0  0  0.095566  0  1.057002  0  0  0.094998  0.092326  0  1.056556  0
H  H19  1  0.32882013  0.16793032  0.89846149  1  0  0.083026  0  0.992322  0  0  0.09365  0  1.056681  0  0  0.095506  0  1.05706  0  0  0.094963  0.092268  0  1.056615  0
H  H20  1  0.65917916  0.55114490  0.79600070  1  0  0.084903  0  0.94672  0  0  0.094945  0  1.016117  0  0  0.095239  0  1.016594  0  0  0.107199  0.09469  0  1.015949  0
H  H21  1  0.84082014  0.05115028  0.20399932  1  0  0.08492  0  0.946738  0  0  0.09496  0  1.016122  0  0  0.095259  0  1.016602  0  0  0.107209  0.094708  0  1.015955  0
H  H22  1  0.34081879  0.44885678  0.20399967  1  0  0.084917  0  0.946697  0  0  0.094969  0  1.016079  0  0  0.09526  0  1.016567  0  0  0.107201  0.094714  0  1.015912  0
H  H23  1  0.15918254  0.94885518  0.79600064  1  0  0.084908  0  0.946714  0  0  0.094951  0  1.016103  0  0  0.095243  0  1.01659  0  0  0.107209  0.094698  0  1.015936  0
H  H24  1  0.50290727  0.71456280  0.74639148  1  0  0.103915  0  0.938001  0  0  0.109386  0  1.008809  0  0  0.111932  0  1.006481  0  0  0.110166  0.107568  0  1.010534  0
H  H25  1  0.99709679  0.21456526  0.25360838  1  0  0.103901  0  0.938073  0  0  0.109339  0  1.008907  0  0  0.111887  0  1.006583  0  0  0.110146  0.107527  0  1.010629  0
H  H26  1  0.49709384  0.28543637  0.25360901  1  0  0.10393  0  0.937982  0  0  0.109373  0  1.008816  0  0  0.111922  0  1.006489  0  0  0.110157  0.107558  0  1.010539  0
H  H27  1  0.00290589  0.78543517  0.74639158  1  0  0.103886  0  0.938011  0  0  0.109354  0  1.008819  0  0  0.111905  0  1.006489  0  0  0.110152  0.10754  0  1.010543  0
H  H28  1  0.72980599  0.06423422  0.63180377  1  0  0.430821  0  0.868329  0  0  0.393534  0  0.943326  0  0  0.40462  0  0.92683  0  0  0.310576  0.38565  0  0.955038  0
H  H29  1  0.77019488  0.56423412  0.36819569  1  0  0.430834  0  0.86831  0  0  0.393547  0  0.943306  0  0  0.404632  0  0.926812  0  0  0.31058  0.385663  0  0.95502  0
H  H30  1  0.27019196  0.93576370  0.36819719  1  0  0.430818  0  0.868348  0  0  0.393531  0  0.943329  0  0  0.404617  0  0.926834  0  0  0.31057  0.385646  0  0.955044  0
H  H31  1  0.22980616  0.43576379  0.63180071  1  0  0.430821  0  0.868357  0  0  0.393536  0  0.943328  0  0  0.404621  0  0.926833  0  0  0.310578  0.385651  0  0.955043  0
H  H32  1  0.48599912  0.00128176  0.62387908  1  0  0.429586  0  0.873643  0  0  0.39583  0  0.94085  0  0  0.406679  0  0.925084  0  0  0.304263  0.388178  0  0.951951  0
H  H33  1  0.01400215  0.50128149  0.37612155  1  0  0.42959  0  0.873646  0  0  0.395829  0  0.940858  0  0  0.406679  0  0.925092  0  0  0.304271  0.388179  0  0.951957  0
H  H34  1  0.51399881  0.99871616  0.37612071  1  0  0.429561  0  0.873692  0  0  0.395847  0  0.940856  0  0  0.406703  0  0.925077  0  0  0.304255  0.388198  0  0.951953  0
H  H35  1  0.98600054  0.49871265  0.62387899  1  0  0.429541  0  0.873694  0  0  0.395831  0  0.940862  0  0  0.406691  0  0.925077  0  0  0.304237  0.388182  0  0.951958  0
H  H36  1  0.81940002  0.38958081  0.45432856  1  0  0.434508  0  0.868519  0  0  0.407251  0  0.925604  0  0  0.417815  0  0.91031  0  0  0.30744  0.399792  0  0.936402  0
H  H37  1  0.68060090  0.88958155  0.54567142  1  0  0.434496  0  0.868536  0  0  0.407238  0  0.925622  0  0  0.417801  0  0.910331  0  0  0.307434  0.399778  0  0.936422  0
H  H38  1  0.18059792  0.61041710  0.54567123  1  0  0.434498  0  0.868535  0  0  0.407244  0  0.925615  0  0  0.417809  0  0.910318  0  0  0.307431  0.399784  0  0.936414  0
H  H39  1  0.31940020  0.11041762  0.45432848  1  0  0.43447  0  0.868572  0  0  0.407212  0  0.925659  0  0  0.417775  0  0.910367  0  0  0.307421  0.399753  0  0.936458  0
H  H40  1  0.74929655  0.20562402  0.43086516  1  0  0.42892  0  0.873927  0  0  0.399238  0  0.935444  0  0  0.4096  0  0.920284  0  0  0.306569  0.391922  0  0.946163  0
H  H41  1  0.75070117  0.70562205  0.56913391  1  0  0.428909  0  0.873943  0  0  0.399242  0  0.93544  0  0  0.409606  0  0.920278  0  0  0.306564  0.391925  0  0.946159  0
H  H42  1  0.25070139  0.79437515  0.56913463  1  0  0.42892  0  0.873931  0  0  0.399241  0  0.935443  0  0  0.409604  0  0.920283  0  0  0.306569  0.391925  0  0.946161  0
H  H43  1  0.24929835  0.29437460  0.43086594  1  0  0.428918  0  0.873931  0  0  0.399233  0  0.935454  0  0  0.409594  0  0.920296  0  0  0.306569  0.391917  0  0.946172  0
C  C44  1  0.05342685  0.49951611  0.96361987  1  0  0.021518  0  3.796408  0  0  0.035228  0  4.028758  0  0  0.033971  0  4.052735  0  0  -0.022404  0.036044  0  4.012492  0
C  C45  1  0.44656973  0.99951287  0.03637959  1  0  0.021644  0  3.796322  0  0  0.035371  0  4.028643  0  0  0.034114  0  4.05262  0  0  -0.022341  0.036184  0  4.012379  0
C  C46  1  0.94656790  0.50048558  0.03637864  1  0  0.021704  0  3.79621  0  0  0.035432  0  4.028556  0  0  0.034175  0  4.052534  0  0  -0.022323  0.036247  0  4.012287  0
C  C47  1  0.55342824  0.00048756  0.96362194  1  0  0.021578  0  3.796276  0  0  0.035329  0  4.028572  0  0  0.034073  0  4.052548  0  0  -0.022345  0.036145  0  4.012306  0
C  C48  1  0.07130022  0.40453574  0.82864550  1  0  -0.184828  0  3.752867  0  0  -0.207351  0  4.013502  0  0  -0.211713  0  4.029972  0  0  -0.107431  -0.204494  0  4.002598  0
C  C49  1  0.42870272  0.90454256  0.17135671  1  0  -0.184757  0  3.752773  0  0  -0.207276  0  4.013373  0  0  -0.211643  0  4.029843  0  0  -0.1074  -0.204419  0  4.002469  0
C  C50  1  0.92870407  0.59545714  0.17135568  1  0  -0.184753  0  3.752998  0  0  -0.207269  0  4.013627  0  0  -0.211625  0  4.030105  0  0  -0.107438  -0.204411  0  4.00272  0
C  C51  1  0.57129683  0.09545913  0.82864488  1  0  -0.184795  0  3.752988  0  0  -0.207302  0  4.013611  0  0  -0.21168  0  4.030079  0  0  -0.107402  -0.204444  0  4.002706  0
C  C52  1  0.62317391  0.53160526  0.67127995  1  0  0.712006  0  3.854153  0  0  0.658798  0  4.161065  0  0  0.691079  0  4.151964  0  0  0.231857  0.63685  0  4.166678  0
C  C53  1  0.87682854  0.03160571  0.32871905  1  0  0.712088  0  3.854084  0  0  0.65888  0  4.160977  0  0  0.691159  0  4.151882  0  0  0.23193  0.636936  0  4.166593  0
C  C54  1  0.37683194  0.46839392  0.32872012  1  0  0.712045  0  3.854098  0  0  0.658811  0  4.161036  0  0  0.691091  0  4.151936  0  0  0.231823  0.636866  0  4.166652  0
C  C55  1  0.12316780  0.96839220  0.67127952  1  0  0.712082  0  3.854053  0  0  0.658855  0  4.16098  0  0  0.691134  0  4.15188  0  0  0.231823  0.63691  0  4.166591  0
C  C56  1  0.24052203  0.59050383  0.95706619  1  0  -0.081742  0  3.742361  0  0  -0.09814  0  3.985103  0  0  -0.098435  0  4.005571  0  0  -0.090122  -0.097637  0  3.970825  0
C  C57  1  0.25947129  0.09050312  0.04293048  1  0  -0.081882  0  3.742251  0  0  -0.098354  0  3.984959  0  0  -0.098651  0  4.005425  0  0  -0.090199  -0.097849  0  3.97068  0
C  C58  1  0.75947273  0.40950289  0.04293290  1  0  -0.081829  0  3.742373  0  0  -0.098292  0  3.985058  0  0  -0.098588  0  4.005526  0  0  -0.090142  -0.097781  0  3.970783  0
C  C59  1  0.74052348  0.90950109  0.95706862  1  0  -0.081677  0  3.742315  0  0  -0.098141  0  3.984982  0  0  -0.098438  0  4.00545  0  0  -0.090108  -0.097635  0  3.970705  0
C  C60  1  0.34172329  0.59095584  0.88863240  1  0  -0.204071  0  3.770568  0  0  -0.221834  0  4.019025  0  0  -0.227897  0  4.040104  0  0  -0.111679  -0.217738  0  4.004786  0
C  C61  1  0.15827639  0.09095194  0.11136624  1  0  -0.20406  0  3.770595  0  0  -0.221849  0  4.019058  0  0  -0.227912  0  4.040137  0  0  -0.111689  -0.21775  0  4.004815  0
C  C62  1  0.65827620  0.40904711  0.11136570  1  0  -0.204103  0  3.770546  0  0  -0.221923  0  4.019012  0  0  -0.227986  0  4.04009  0  0  -0.11175  -0.217826  0  4.004768  0
C  C63  1  0.84172474  0.90904597  0.88863482  1  0  -0.204178  0  3.770443  0  0  -0.222009  0  4.018933  0  0  -0.228072  0  4.040009  0  0  -0.11176  -0.217913  0  4.004693  0
C  C64  1  0.97225141  0.40663040  0.89715572  1  0  -0.101419  0  3.767631  0  0  -0.119899  0  4.017871  0  0  -0.119959  0  4.037262  0  0  -0.094927  -0.119829  0  4.004958  0
C  C65  1  0.52774793  0.90663267  0.10284359  1  0  -0.101476  0  3.767592  0  0  -0.119987  0  4.01781  0  0  -0.120045  0  4.037207  0  0  -0.094981  -0.119915  0  4.004896  0
C  C66  1  0.02774818  0.59337129  0.10284821  1  0  -0.101542  0  3.767657  0  0  -0.120028  0  4.017867  0  0  -0.120088  0  4.037255  0  0  -0.094939  -0.119957  0  4.004952  0
C  C67  1  0.47225155  0.09337405  0.89715393  1  0  -0.101476  0  3.767652  0  0  -0.119967  0  4.017868  0  0  -0.120027  0  4.037264  0  0  -0.094946  -0.119897  0  4.004956  0
C  C68  1  0.25787353  0.49679166  0.82399019  1  0  0.265212  0  3.819833  0  0  0.256315  0  4.07856  0  0  0.267592  0  4.0945  0  0  0.079243  0.24856  0  4.067718  0
C  C69  1  0.24212621  0.99679711  0.17600939  1  0  0.265142  0  3.819883  0  0  0.256332  0  4.078502  0  0  0.267611  0  4.094439  0  0  0.079265  0.248575  0  4.067657  0
C  C70  1  0.74213711  0.50320500  0.17601296  1  0  0.265267  0  3.819687  0  0  0.256406  0  4.078388  0  0  0.267686  0  4.094322  0  0  0.079331  0.248649  0  4.067545  0
C  C71  1  0.75786854  0.00320584  0.82398854  1  0  0.265301  0  3.819642  0  0  0.256437  0  4.078339  0  0  0.267716  0  4.094278  0  0  0.079312  0.24868  0  4.067497  0
C  C72  1  0.53666002  0.57856005  0.74760592  1  0  -0.081857  0  3.62258  0  0  -0.141421  0  3.886999  0  0  -0.137647  0  3.8871  0  0  -0.070614  -0.144046  0  3.886887  0
C  C73  1  0.96333926  0.07856502  0.25239287  1  0  -0.081929  0  3.622664  0  0  -0.141461  0  3.887065  0  0  -0.137707  0  3.887201  0  0  -0.070638  -0.144103  0  3.886978  0
C  C74  1  0.46334107  0.42143913  0.25239340  1  0  -0.081931  0  3.62258  0  0  -0.141481  0  3.88702  0  0  -0.137722  0  3.88716  0  0  -0.070629  -0.144111  0  3.886917  0
C  C75  1  0.03666026  0.92143793  0.74760698  1  0  -0.08186  0  3.622625  0  0  -0.141403  0  3.88702  0  0  -0.137645  0  3.887159  0  0  -0.070615  -0.144037  0  3.886921  0
O  O76  1  0.79394419  0.60709394  0.65847280  1  0  -0.663007  0  1.975498  0  0  -0.595855  0  2.190589  0  0  -0.622139  0  2.180173  0  0  -0.311464  -0.577469  0  2.197287  0
O  O77  1  0.70605669  0.10709547  0.34152658  1  0  -0.66313  0  1.975527  0  0  -0.595912  0  2.190555  0  0  -0.622178  0  2.180126  0  0  -0.311512  -0.577526  0  2.197252  0
O  O78  1  0.20605691  0.39290272  0.34152710  1  0  -0.66308  0  1.975368  0  0  -0.595834  0  2.190394  0  0  -0.622098  0  2.17997  0  0  -0.311473  -0.57745  0  2.197092  0
O  O79  1  0.29394282  0.89290245  0.65847269  1  0  -0.663066  0  1.975323  0  0  -0.595855  0  2.190382  0  0  -0.622119  0  2.179958  0  0  -0.311469  -0.577469  0  2.197077  0
O  O80  1  0.78116866  0.27901256  0.47783882  1  0  -0.960375  0  1.790681  0  0  -0.917932  0  1.966025  0  0  -0.933468  0  1.931931  0  0  -0.693678  -0.907005  0  1.989984  0
O  O81  1  0.71883067  0.77901353  0.52216133  1  0  -0.960371  0  1.790723  0  0  -0.917929  0  1.966044  0  0  -0.933464  0  1.931946  0  0  -0.693662  -0.907006  0  1.990011  0
O  O82  1  0.21882928  0.72098661  0.52216156  1  0  -0.960386  0  1.790671  0  0  -0.917945  0  1.966013  0  0  -0.933482  0  1.931917  0  0  -0.693659  -0.907013  0  1.989963  0
O  O83  1  0.28117043  0.22098564  0.47783857  1  0  -0.960346  0  1.790756  0  0  -0.917904  0  1.966108  0  0  -0.933438  0  1.932015  0  0  -0.693664  -0.906972  0  1.990054  0
O  O84  1  0.34779658  0.48454020  0.75506294  1  0  -0.274843  0  2.374284  0  0  -0.200567  0  2.605043  0  0  -0.218254  0  2.6067  0  0  -0.176666  -0.188052  0  2.603523  0
O  O85  1  0.15220318  0.98454246  0.24493783  1  0  -0.274798  0  2.374227  0  0  -0.200584  0  2.604984  0  0  -0.218268  0  2.606646  0  0  -0.176691  -0.188066  0  2.60347  0
O  O86  1  0.65220294  0.51545772  0.24493691  1  0  -0.274846  0  2.374263  0  0  -0.200616  0  2.605045  0  0  -0.218298  0  2.606705  0  0  -0.176682  -0.188097  0  2.603524  0
O  O87  1  0.84779793  0.01545797  0.75506265  1  0  -0.274867  0  2.374298  0  0  -0.200638  0  2.605076  0  0  -0.218319  0  2.606736  0  0  -0.176699  -0.18812  0  2.603557  0
O  O88  1  0.59959923  0.05354014  0.59525499  1  0  -0.8911  0  1.872714  0  0  -0.835411  0  2.051572  0  0  -0.854914  0  2.019189  0  0  -0.618434  -0.821624  0  2.074237  0
O  O89  1  0.90040165  0.55354102  0.40474507  1  0  -0.891114  0  1.872689  0  0  -0.835427  0  2.051556  0  0  -0.854929  0  2.019173  0  0  -0.618432  -0.821638  0  2.07422  0
O  O90  1  0.40040030  0.94645651  0.40474543  1  0  -0.891074  0  1.872784  0  0  -0.835435  0  2.051514  0  0  -0.85494  0  2.019128  0  0  -0.618409  -0.821636  0  2.074159  0
O  O91  1  0.09959941  0.44645564  0.59525250  1  0  -0.891051  0  1.872784  0  0  -0.835408  0  2.051485  0  0  -0.854915  0  2.019092  0  0  -0.618404  -0.821618  0  2.074152  0
O  O92  1  0.52457866  0.42679206  0.62616424  1  0  -0.712331  0  1.983523  0  0  -0.662925  0  2.22029  0  0  -0.684167  0  2.205742  0  0  -0.377174  -0.648152  0  2.230044  0
O  O93  1  0.97541749  0.92679199  0.37383317  1  0  -0.71228  0  1.983512  0  0  -0.662893  0  2.220292  0  0  -0.684133  0  2.205742  0  0  -0.377202  -0.648122  0  2.230045  0
O  O94  1  0.47541928  0.57320334  0.37383555  1  0  -0.712279  0  1.983603  0  0  -0.662883  0  2.220385  0  0  -0.684123  0  2.205837  0  0  -0.377127  -0.648111  0  2.23014  0
O  O95  1  0.02457883  0.07320341  0.62616423  1  0  -0.712337  0  1.983606  0  0  -0.662936  0  2.220384  0  0  -0.684177  0  2.205838  0  0  -0.377133  -0.648163  0  2.230135  0
