# generated using pymatgen
data_Ag2H10C10N6O5
_symmetry_space_group_name_H-M   'P 1'
_cell_length_a   7.05222455
_cell_length_b   12.63282011
_cell_length_c   15.17285130
_cell_angle_alpha   93.39033079
_cell_angle_beta   90.00009312
_cell_angle_gamma   90.00024628
_symmetry_Int_Tables_number   1
_chemical_formula_structural   Ag2H10C10N6O5
_chemical_formula_sum   'Ag8 H40 C40 N24 O20'
_cell_volume   1349.37570576
_cell_formula_units_Z   4
loop_
 _symmetry_equiv_pos_site_id
 _symmetry_equiv_pos_as_xyz
  1  'x, y, z'
loop_
 _atom_site_type_symbol
 _atom_site_label
 _atom_site_symmetry_multiplicity
 _atom_site_fract_x
 _atom_site_fract_y
 _atom_site_fract_z
 _atom_site_occupancy
 _atom_site_hle17_bader_spin_density
 _atom_site_hle17_ddec_charge
 _atom_site_hle17_ddec_spin_density
 _atom_site_hle17_ddec_sum_bond_order
 _atom_site_hle17_magmom
 _atom_site_hse06_10hf_bader_spin_density
 _atom_site_hse06_10hf_ddec_charge
 _atom_site_hse06_10hf_ddec_spin_density
 _atom_site_hse06_10hf_ddec_sum_bond_order
 _atom_site_hse06_10hf_magmom
 _atom_site_hse06_bader_spin_density
 _atom_site_hse06_ddec_charge
 _atom_site_hse06_ddec_spin_density
 _atom_site_hse06_ddec_sum_bond_order
 _atom_site_hse06_magmom
 _atom_site_pbe_bader_spin_density
 _atom_site_pbe_cm5_charge
 _atom_site_pbe_ddec_charge
 _atom_site_pbe_ddec_spin_density
 _atom_site_pbe_ddec_sum_bond_order
 _atom_site_pbe_magmom
Ag  Ag0  1  0.26302974  0.65254127  0.56913070  1  0  0.512765  0  1.483182  0  0  0.365764  0  1.931506  0  0  0.397887  0  1.881096  0  0  0.480086  0.344463  0  1.966029  0
Ag  Ag1  1  0.76302744  0.34745762  0.93086984  1  0  0.512774  0  1.483186  0  0  0.365788  0  1.931481  0  0  0.397903  0  1.881082  0  0  0.480102  0.344488  0  1.966001  0
Ag  Ag2  1  0.73697380  0.34745761  0.43087020  1  0  0.512781  0  1.483182  0  0  0.365782  0  1.9315  0  0  0.397903  0  1.881098  0  0  0.480088  0.344478  0  1.966022  0
Ag  Ag3  1  0.23697185  0.65254207  0.06913045  1  0  0.512788  0  1.483161  0  0  0.365786  0  1.931484  0  0  0.397906  0  1.881079  0  0  0.480109  0.344485  0  1.966007  0
Ag  Ag4  1  0.23926768  0.85971501  0.48252414  1  0  0.536463  0  1.497255  0  0  0.40282  0  1.948082  0  0  0.430819  0  1.900805  0  0  0.486389  0.384234  0  1.98083  0
Ag  Ag5  1  0.73926944  0.14028623  0.01747859  1  0  0.536416  0  1.497253  0  0  0.402783  0  1.948039  0  0  0.430782  0  1.900754  0  0  0.486368  0.384204  0  1.980771  0
Ag  Ag6  1  0.76073019  0.14028465  0.51747813  1  0  0.536438  0  1.497276  0  0  0.402807  0  1.948089  0  0  0.430805  0  1.900802  0  0  0.486375  0.384226  0  1.980825  0
Ag  Ag7  1  0.26073411  0.85971503  0.98252246  1  0  0.536469  0  1.497283  0  0  0.402865  0  1.948078  0  0  0.430862  0  1.900795  0  0  0.486396  0.384278  0  1.980823  0
H  H8  1  0.10918708  0.61184187  0.41475719  1  0  0.345684  0  0.920295  0  0  0.326831  0  0.985552  0  0  0.335364  0  0.977831  0  0  0.296802  0.320776  0  0.991032  0
H  H9  1  0.60918248  0.38815750  0.08524335  1  0  0.345693  0  0.920233  0  0  0.326815  0  0.98552  0  0  0.335348  0  0.977801  0  0  0.296806  0.320761  0  0.991  0
H  H10  1  0.89081930  0.38815620  0.58524499  1  0  0.345726  0  0.920207  0  0  0.326867  0  0.985474  0  0  0.335399  0  0.977752  0  0  0.296826  0.320811  0  0.990956  0
H  H11  1  0.39081680  0.61184298  0.91475699  1  0  0.345729  0  0.920293  0  0  0.326882  0  0.985532  0  0  0.335414  0  0.977811  0  0  0.296833  0.320827  0  0.991013  0
H  H12  1  0.88049248  0.59390856  0.36102385  1  0  0.34339  0  0.920132  0  0  0.326736  0  0.977814  0  0  0.335523  0  0.970628  0  0  0.301726  0.320509  0  0.982852  0
H  H13  1  0.38048460  0.40609228  0.13897632  1  0  0.343396  0  0.9201  0  0  0.326779  0  0.977732  0  0  0.335567  0  0.970542  0  0  0.301717  0.320552  0  0.982769  0
H  H14  1  0.11951249  0.40609031  0.63897838  1  0  0.343415  0  0.920076  0  0  0.326773  0  0.977747  0  0  0.335561  0  0.970557  0  0  0.301722  0.320546  0  0.982783  0
H  H15  1  0.61951186  0.59390821  0.86102336  1  0  0.343379  0  0.920126  0  0  0.326744  0  0.977785  0  0  0.335531  0  0.970598  0  0  0.301713  0.320517  0  0.982822  0
H  H16  1  0.08619018  0.90234703  0.64223688  1  0  0.342504  0  0.901417  0  0  0.323588  0  0.96825  0  0  0.331768  0  0.961074  0  0  0.301155  0.317699  0  0.973504  0
H  H17  1  0.58618710  0.09765147  0.85776022  1  0  0.342493  0  0.901278  0  0  0.323585  0  0.968102  0  0  0.331764  0  0.960927  0  0  0.301147  0.317697  0  0.973356  0
H  H18  1  0.91380769  0.09765107  0.35776332  1  0  0.342502  0  0.901345  0  0  0.323584  0  0.968188  0  0  0.331763  0  0.961013  0  0  0.301148  0.317695  0  0.973441  0
H  H19  1  0.41381077  0.90234826  0.14223678  1  0  0.342507  0  0.901334  0  0  0.323588  0  0.968182  0  0  0.331768  0  0.961003  0  0  0.301149  0.317699  0  0.973437  0
H  H20  1  0.86308990  0.92285841  0.69764834  1  0  0.352626  0  0.898975  0  0  0.33365  0  0.959065  0  0  0.342341  0  0.952067  0  0  0.308715  0.327507  0  0.963949  0
H  H21  1  0.36308569  0.07714236  0.80234843  1  0  0.352647  0  0.898908  0  0  0.333688  0  0.958976  0  0  0.342377  0  0.95198  0  0  0.308749  0.327546  0  0.963861  0
H  H22  1  0.13691081  0.07714209  0.30235068  1  0  0.352631  0  0.898991  0  0  0.333653  0  0.95908  0  0  0.342344  0  0.952081  0  0  0.308732  0.327509  0  0.963965  0
H  H23  1  0.63691360  0.92285817  0.19764796  1  0  0.352627  0  0.898958  0  0  0.333662  0  0.959038  0  0  0.342354  0  0.952037  0  0  0.308715  0.327519  0  0.963921  0
H  H24  1  0.93764546  0.64886172  0.70698056  1  0  0.102698  0  0.95144  0  0  0.110874  0  1.014691  0  0  0.114979  0  1.009221  0  0  0.12122  0.107747  0  1.01882  0
H  H25  1  0.43764478  0.35113522  0.79302000  1  0  0.102642  0  0.951323  0  0  0.11084  0  1.014562  0  0  0.114947  0  1.009089  0  0  0.121192  0.107713  0  1.018692  0
H  H26  1  0.06235808  0.35113795  0.29302105  1  0  0.102676  0  0.951262  0  0  0.110836  0  1.014536  0  0  0.114942  0  1.009063  0  0  0.121192  0.107709  0  1.018665  0
H  H27  1  0.56235451  0.64886526  0.20698034  1  0  0.102636  0  0.951369  0  0  0.11083  0  1.014619  0  0  0.114938  0  1.009144  0  0  0.121188  0.107703  0  1.018749  0
H  H28  1  0.58441504  0.64021884  0.70544453  1  0  0.099382  0  0.92516  0  0  0.114636  0  0.978215  0  0  0.117548  0  0.976899  0  0  0.123347  0.112491  0  0.979455  0
H  H29  1  0.08441585  0.35977724  0.79455506  1  0  0.099413  0  0.925144  0  0  0.114665  0  0.978201  0  0  0.117577  0  0.976886  0  0  0.123365  0.11252  0  0.97944  0
H  H30  1  0.41558567  0.35978399  0.29455793  1  0  0.099309  0  0.925114  0  0  0.114573  0  0.978173  0  0  0.117486  0  0.976855  0  0  0.123286  0.112429  0  0.979413  0
H  H31  1  0.91558628  0.64022245  0.20544457  1  0  0.099302  0  0.925177  0  0  0.114594  0  0.978199  0  0  0.117507  0  0.976881  0  0  0.123339  0.11245  0  0.979438  0
H  H32  1  0.55795983  0.86532469  0.35306949  1  0  0.113053  0  0.960599  0  0  0.122663  0  1.018949  0  0  0.126154  0  1.017569  0  0  0.118099  0.120122  0  1.020162  0
H  H33  1  0.05796263  0.13467456  0.14693101  1  0  0.113072  0  0.960529  0  0  0.122685  0  1.018873  0  0  0.12618  0  1.017488  0  0  0.118082  0.120134  0  1.020099  0
H  H34  1  0.44203379  0.13467818  0.64693033  1  0  0.113081  0  0.960527  0  0  0.122678  0  1.018916  0  0  0.12617  0  1.017533  0  0  0.118091  0.120146  0  1.020117  0
H  H35  1  0.94204233  0.86532512  0.85306995  1  0  0.113009  0  0.960597  0  0  0.12262  0  1.018956  0  0  0.126114  0  1.017573  0  0  0.118068  0.12007  0  1.02018  0
H  H36  1  0.91778671  0.86344562  0.35180740  1  0  0.104923  0  0.971191  0  0  0.110242  0  1.037669  0  0  0.114091  0  1.033413  0  0  0.119053  0.107381  0  1.040821  0
H  H37  1  0.41779236  0.13655693  0.14818960  1  0  0.104882  0  0.97123  0  0  0.110244  0  1.037674  0  0  0.114075  0  1.033439  0  0  0.119055  0.107385  0  1.040821  0
H  H38  1  0.08220975  0.13655408  0.64819157  1  0  0.104919  0  0.971218  0  0  0.110245  0  1.037695  0  0  0.114091  0  1.033442  0  0  0.119049  0.107382  0  1.040851  0
H  H39  1  0.58221686  0.86344600  0.85180561  1  0  0.104947  0  0.971151  0  0  0.110263  0  1.037632  0  0  0.114109  0  1.033381  0  0  0.119055  0.1074  0  1.040788  0
H  H40  1  0.29542222  0.72784475  0.32026303  1  0  0.403586  0  0.890689  0  0  0.377412  0  0.953378  0  0  0.38754  0  0.938128  0  0  0.281863  0.370276  0  0.964122  0
H  H41  1  0.79542130  0.27215508  0.17973768  1  0  0.403637  0  0.890633  0  0  0.37746  0  0.953312  0  0  0.387589  0  0.93806  0  0  0.28187  0.370324  0  0.964057  0
H  H42  1  0.70457849  0.27215494  0.67973727  1  0  0.403686  0  0.890648  0  0  0.377511  0  0.953265  0  0  0.387638  0  0.938014  0  0  0.281894  0.370374  0  0.96401  0
H  H43  1  0.20457940  0.72784381  0.82026323  1  0  0.403663  0  0.890664  0  0  0.377487  0  0.953294  0  0  0.387614  0  0.938043  0  0  0.281886  0.370351  0  0.964038  0
H  H44  1  0.21885370  0.81608484  0.25511527  1  0  0.417857  0  0.887853  0  0  0.385123  0  0.955489  0  0  0.396492  0  0.938684  0  0  0.275831  0.377145  0  0.967256  0
H  H45  1  0.71885374  0.18391322  0.24488461  1  0  0.4179  0  0.887801  0  0  0.385167  0  0.955435  0  0  0.396535  0  0.938631  0  0  0.275829  0.377189  0  0.967201  0
H  H46  1  0.78114275  0.18391404  0.74488563  1  0  0.417903  0  0.887782  0  0  0.385169  0  0.95542  0  0  0.396537  0  0.938616  0  0  0.275824  0.377191  0  0.967186  0
H  H47  1  0.28114838  0.81608488  0.75511559  1  0  0.41785  0  0.887866  0  0  0.385113  0  0.955509  0  0  0.39648  0  0.938706  0  0  0.275802  0.377135  0  0.967274  0
C  C48  1  0.66144844  0.61941735  0.49078244  1  0  -0.060589  0  3.632058  0  0  -0.053869  0  3.875387  0  0  -0.060603  0  3.894293  0  0  0.10307  -0.050372  0  3.863476  0
C  C49  1  0.16144559  0.38058137  0.00921678  1  0  -0.060637  0  3.632149  0  0  -0.053861  0  3.875368  0  0  -0.060622  0  3.894306  0  0  0.103093  -0.050369  0  3.863463  0
C  C50  1  0.33855510  0.38058153  0.50921846  1  0  -0.060491  0  3.63189  0  0  -0.053756  0  3.87521  0  0  -0.060488  0  3.89412  0  0  0.103111  -0.050258  0  3.863293  0
C  C51  1  0.83855228  0.61941832  0.99078351  1  0  -0.060674  0  3.632132  0  0  -0.053891  0  3.875364  0  0  -0.060649  0  3.894304  0  0  0.103103  -0.050397  0  3.863456  0
C  C52  1  0.86599100  0.62166048  0.49087835  1  0  0.429664  0  3.809677  0  0  0.393649  0  4.070733  0  0  0.413045  0  4.086018  0  0  0.233377  0.380622  0  4.060434  0
C  C53  1  0.36598813  0.37833793  0.00912233  1  0  0.429612  0  3.809678  0  0  0.393557  0  4.070757  0  0  0.412959  0  4.086047  0  0  0.233355  0.380532  0  4.060458  0
C  C54  1  0.13401254  0.37833761  0.50912251  1  0  0.429488  0  3.809795  0  0  0.393454  0  4.070871  0  0  0.412847  0  4.086161  0  0  0.233318  0.380427  0  4.060571  0
C  C55  1  0.63401116  0.62166174  0.99087928  1  0  0.429633  0  3.809746  0  0  0.39357  0  4.070833  0  0  0.412972  0  4.086124  0  0  0.233335  0.380545  0  4.060533  0
C  C56  1  0.86112196  0.64224515  0.64456897  1  0  0.124996  0  3.68393  0  0  0.08887  0  3.937417  0  0  0.099478  0  3.951204  0  0  0.051905  0.08189  0  3.928174  0
C  C57  1  0.36112012  0.35775555  0.85543241  1  0  0.125114  0  3.683853  0  0  0.088964  0  3.937349  0  0  0.099571  0  3.951136  0  0  0.051956  0.081985  0  3.928102  0
C  C58  1  0.13888300  0.35775531  0.35543268  1  0  0.125027  0  3.683821  0  0  0.088899  0  3.937329  0  0  0.099506  0  3.951117  0  0  0.051939  0.081918  0  3.928084  0
C  C59  1  0.63887917  0.64224492  0.14456793  1  0  0.125091  0  3.683877  0  0  0.08893  0  3.937397  0  0  0.099537  0  3.951184  0  0  0.05195  0.081951  0  3.928151  0
C  C60  1  0.66498241  0.63736671  0.64435031  1  0  0.035555  0  3.684237  0  0  -0.003929  0  3.952429  0  0  -0.006343  0  3.971381  0  0  0.024427  -0.002891  0  3.940089  0
C  C61  1  0.16498345  0.36263115  0.85565010  1  0  0.035462  0  3.684282  0  0  -0.004032  0  3.952511  0  0  -0.006448  0  3.971456  0  0  0.024417  -0.002992  0  3.940167  0
C  C62  1  0.33502113  0.36263532  0.35565276  1  0  0.035676  0  3.684215  0  0  -0.003802  0  3.952391  0  0  -0.006213  0  3.971343  0  0  0.024524  -0.002765  0  3.94005  0
C  C63  1  0.83501726  0.63736775  0.14434949  1  0  0.035569  0  3.684223  0  0  -0.003956  0  3.952469  0  0  -0.006368  0  3.971417  0  0  0.024428  -0.002916  0  3.940125  0
C  C64  1  0.54890929  0.60900232  0.40485258  1  0  0.625774  0  3.959454  0  0  0.566908  0  4.271297  0  0  0.600104  0  4.266334  0  0  0.193289  0.544621  0  4.273883  0
C  C65  1  0.04890682  0.39099774  0.09514466  1  0  0.625639  0  3.959512  0  0  0.566798  0  4.271299  0  0  0.600001  0  4.266338  0  0  0.193257  0.544512  0  4.273883  0
C  C66  1  0.45109141  0.39099735  0.59514903  1  0  0.625726  0  3.95932  0  0  0.566882  0  4.27112  0  0  0.600077  0  4.266158  0  0  0.193314  0.544595  0  4.273706  0
C  C67  1  0.95108963  0.60900197  0.90485366  1  0  0.62575  0  3.959407  0  0  0.566918  0  4.271178  0  0  0.600121  0  4.266216  0  0  0.193303  0.544632  0  4.273762  0
C  C68  1  0.64183278  0.87079590  0.41339116  1  0  0.010082  0  3.684841  0  0  -0.026645  0  3.954532  0  0  -0.03055  0  3.974175  0  0  0.013086  -0.02455  0  3.941864  0
C  C69  1  0.14183391  0.12920755  0.08660701  1  0  0.010037  0  3.684612  0  0  -0.026663  0  3.954323  0  0  -0.030564  0  3.973945  0  0  0.013087  -0.024561  0  3.941662  0
C  C70  1  0.35816367  0.12920697  0.58660866  1  0  0.010022  0  3.68459  0  0  -0.026696  0  3.954307  0  0  -0.030599  0  3.973942  0  0  0.013043  -0.024606  0  3.941637  0
C  C71  1  0.85816821  0.87079456  0.91339013  1  0  0.010188  0  3.684634  0  0  -0.026565  0  3.954365  0  0  -0.030463  0  3.973981  0  0  0.013071  -0.024463  0  3.941702  0
C  C72  1  0.83825590  0.86921938  0.41356449  1  0  0.113408  0  3.694994  0  0  0.0767  0  3.955149  0  0  0.087031  0  3.968627  0  0  0.044974  0.069832  0  3.94629  0
C  C73  1  0.33825846  0.13078060  0.08643230  1  0  0.113484  0  3.694916  0  0  0.076681  0  3.955122  0  0  0.087022  0  3.968611  0  0  0.044976  0.069811  0  3.946259  0
C  C74  1  0.16174197  0.13078032  0.58643449  1  0  0.113441  0  3.695033  0  0  0.076714  0  3.955222  0  0  0.087041  0  3.968704  0  0  0.044997  0.069845  0  3.946366  0
C  C75  1  0.66174366  0.86922073  0.91356347  1  0  0.113436  0  3.694971  0  0  0.076747  0  3.955113  0  0  0.087077  0  3.968593  0  0  0.045052  0.069875  0  3.94625  0
C  C76  1  0.63766845  0.88437073  0.56734273  1  0  -0.065986  0  3.663536  0  0  -0.058766  0  3.908332  0  0  -0.065655  0  3.927192  0  0  0.101362  -0.055103  0  3.896314  0
C  C77  1  0.13766642  0.11563104  0.93265657  1  0  -0.066071  0  3.663618  0  0  -0.058843  0  3.908412  0  0  -0.065743  0  3.927277  0  0  0.10133  -0.05518  0  3.896395  0
C  C78  1  0.36232800  0.11562975  0.43265761  1  0  -0.066006  0  3.663612  0  0  -0.05878  0  3.908388  0  0  -0.065665  0  3.927257  0  0  0.101377  -0.055119  0  3.896373  0
C  C79  1  0.86233429  0.88436945  0.06734311  1  0  -0.066121  0  3.663597  0  0  -0.058867  0  3.908374  0  0  -0.065765  0  3.927234  0  0  0.101324  -0.055204  0  3.896359  0
C  C80  1  0.84235424  0.88948319  0.56750920  1  0  0.41739  0  3.831293  0  0  0.37933  0  4.100126  0  0  0.398605  0  4.114811  0  0  0.231684  0.366396  0  4.090216  0
C  C81  1  0.34235784  0.11051590  0.93249010  1  0  0.417353  0  3.831371  0  0  0.379314  0  4.100168  0  0  0.398588  0  4.114853  0  0  0.23172  0.36638  0  4.090258  0
C  C82  1  0.15764079  0.11051491  0.43249035  1  0  0.417472  0  3.831213  0  0  0.379349  0  4.100136  0  0  0.398624  0  4.114819  0  0  0.231732  0.366414  0  4.090226  0
C  C83  1  0.65764287  0.88948461  0.06750760  1  0  0.417523  0  3.831268  0  0  0.379444  0  4.100127  0  0  0.398718  0  4.114812  0  0  0.231768  0.366507  0  4.090217  0
C  C84  1  0.52625695  0.88593161  0.65299302  1  0  0.624072  0  3.951269  0  0  0.566804  0  4.25699  0  0  0.599669  0  4.252816  0  0  0.196969  0.544742  0  4.25893  0
C  C85  1  0.02624894  0.11407461  0.84700910  1  0  0.62417  0  3.95131  0  0  0.566899  0  4.257036  0  0  0.599773  0  4.252845  0  0  0.196991  0.544838  0  4.258976  0
C  C86  1  0.47374375  0.11407200  0.34701014  1  0  0.623942  0  3.951458  0  0  0.566731  0  4.257108  0  0  0.599566  0  4.252979  0  0  0.196877  0.544669  0  4.259047  0
C  C87  1  0.97374752  0.88592981  0.15299279  1  0  0.624116  0  3.951399  0  0  0.566833  0  4.257149  0  0  0.599713  0  4.252952  0  0  0.196893  0.544771  0  4.25909  0
N  N88  1  0.56855168  0.62892266  0.56757700  1  0  -0.227939  0  3.399354  0  0  -0.153686  0  3.669198  0  0  -0.163259  0  3.687717  0  0  -0.329116  -0.14682  0  3.656894  0
N  N89  1  0.06855021  0.37107417  0.93242328  1  0  -0.227874  0  3.399328  0  0  -0.15362  0  3.669116  0  0  -0.16318  0  3.687635  0  0  -0.329146  -0.146756  0  3.656816  0
N  N90  1  0.43145044  0.37107779  0.43242532  1  0  -0.227996  0  3.399276  0  0  -0.153773  0  3.669171  0  0  -0.163355  0  3.6877  0  0  -0.329176  -0.146908  0  3.656866  0
N  N91  1  0.93144908  0.62892472  0.06757697  1  0  -0.227821  0  3.399291  0  0  -0.153593  0  3.669127  0  0  -0.16316  0  3.687654  0  0  -0.329132  -0.146728  0  3.656824  0
N  N92  1  0.96109026  0.63662295  0.56916328  1  0  -0.379437  0  3.298487  0  0  -0.289125  0  3.578652  0  0  -0.311867  0  3.591856  0  0  -0.354994  -0.273977  0  3.569557  0
N  N93  1  0.46108873  0.36337643  0.93083678  1  0  -0.379421  0  3.298488  0  0  -0.289104  0  3.578663  0  0  -0.311845  0  3.591862  0  0  -0.355004  -0.273957  0  3.569566  0
N  N94  1  0.03891470  0.36337354  0.43083814  1  0  -0.379386  0  3.29854  0  0  -0.289049  0  3.578672  0  0  -0.311791  0  3.591878  0  0  -0.35498  -0.273901  0  3.569576  0
N  N95  1  0.53891056  0.63662486  0.06916229  1  0  -0.379454  0  3.298578  0  0  -0.289114  0  3.578732  0  0  -0.311854  0  3.591932  0  0  -0.355007  -0.273967  0  3.569636  0
N  N96  1  0.96390036  0.61180302  0.41571095  1  0  -0.667883  0  3.150526  0  0  -0.628818  0  3.381946  0  0  -0.653589  0  3.381247  0  0  -0.57237  -0.611765  0  3.382224  0
N  N97  1  0.46389641  0.38819562  0.08429048  1  0  -0.667862  0  3.150385  0  0  -0.62881  0  3.381842  0  0  -0.653579  0  3.38114  0  0  -0.572349  -0.611757  0  3.382124  0
N  N98  1  0.03610318  0.38819266  0.58429175  1  0  -0.667885  0  3.150324  0  0  -0.628827  0  3.381762  0  0  -0.653598  0  3.381059  0  0  -0.572351  -0.611771  0  3.382046  0
N  N99  1  0.53610004  0.61180170  0.91570902  1  0  -0.667913  0  3.150428  0  0  -0.628837  0  3.381809  0  0  -0.653607  0  3.381107  0  0  -0.572369  -0.611783  0  3.382089  0
N  N100  1  0.54548886  0.87464117  0.49039062  1  0  -0.237794  0  3.418054  0  0  -0.166188  0  3.691443  0  0  -0.175434  0  3.710403  0  0  -0.333027  -0.159558  0  3.678963  0
N  N101  1  0.04549111  0.12536042  0.00961000  1  0  -0.237783  0  3.418164  0  0  -0.166197  0  3.691553  0  0  -0.175436  0  3.710511  0  0  -0.333025  -0.159567  0  3.679068  0
N  N102  1  0.45450901  0.12536012  0.50960845  1  0  -0.237764  0  3.417961  0  0  -0.166145  0  3.691327  0  0  -0.175387  0  3.710283  0  0  -0.333014  -0.159516  0  3.678851  0
N  N103  1  0.95451101  0.87463688  0.99039015  1  0  -0.237817  0  3.418049  0  0  -0.16621  0  3.691434  0  0  -0.175447  0  3.710389  0  0  -0.333009  -0.15958  0  3.678952  0
N  N104  1  0.93757933  0.87609798  0.48914866  1  0  -0.387209  0  3.309064  0  0  -0.301571  0  3.594867  0  0  -0.323577  0  3.607715  0  0  -0.358457  -0.286855  0  3.586129  0
N  N105  1  0.43757732  0.12390223  0.01084954  1  0  -0.387143  0  3.30915  0  0  -0.301488  0  3.594955  0  0  -0.323484  0  3.607782  0  0  -0.358424  -0.286771  0  3.586218  0
N  N106  1  0.06241854  0.12390170  0.51085229  1  0  -0.38726  0  3.309187  0  0  -0.301613  0  3.595045  0  0  -0.323611  0  3.60788  0  0  -0.358473  -0.286896  0  3.586309  0
N  N107  1  0.56242197  0.87609750  0.98914747  1  0  -0.387322  0  3.309257  0  0  -0.301731  0  3.595136  0  0  -0.323732  0  3.607972  0  0  -0.358543  -0.287006  0  3.586397  0
N  N108  1  0.94118565  0.90347353  0.64204746  1  0  -0.644404  0  3.150748  0  0  -0.607411  0  3.390421  0  0  -0.631446  0  3.38964  0  0  -0.561744  -0.590918  0  3.390894  0
N  N109  1  0.44118037  0.09652346  0.85794981  1  0  -0.644369  0  3.150631  0  0  -0.607367  0  3.390255  0  0  -0.6314  0  3.389477  0  0  -0.561743  -0.590877  0  3.390726  0
N  N110  1  0.05881647  0.09652379  0.35795204  1  0  -0.644378  0  3.150697  0  0  -0.607352  0  3.390375  0  0  -0.631385  0  3.389597  0  0  -0.561728  -0.590861  0  3.390844  0
N  N111  1  0.55881750  0.90347469  0.14204644  1  0  -0.644393  0  3.150673  0  0  -0.607392  0  3.390344  0  0  -0.631426  0  3.389561  0  0  -0.56172  -0.5909  0  3.390816  0
O  O112  1  0.37206589  0.62942152  0.40845328  1  0  -0.668926  0  2.076032  0  0  -0.600867  0  2.328902  0  0  -0.62867  0  2.316984  0  0  -0.334447  -0.581424  0  2.33618  0
O  O113  1  0.87206260  0.37057930  0.09154688  1  0  -0.668889  0  2.076048  0  0  -0.600847  0  2.328899  0  0  -0.628649  0  2.31698  0  0  -0.334458  -0.581403  0  2.336175  0
O  O114  1  0.62793340  0.37057974  0.59154842  1  0  -0.668946  0  2.076099  0  0  -0.600877  0  2.328934  0  0  -0.628684  0  2.317027  0  0  -0.334463  -0.58143  0  2.336201  0
O  O115  1  0.12793102  0.62941800  0.90845394  1  0  -0.66887  0  2.07611  0  0  -0.600847  0  2.328981  0  0  -0.62865  0  2.317062  0  0  -0.334442  -0.581404  0  2.336257  0
O  O116  1  0.63895583  0.58116179  0.33521416  1  0  -0.613481  0  1.939921  0  0  -0.566043  0  2.168274  0  0  -0.589918  0  2.159427  0  0  -0.320866  -0.549287  0  2.173685  0
O  O117  1  0.13895239  0.41884163  0.16478599  1  0  -0.61343  0  1.939901  0  0  -0.566005  0  2.168233  0  0  -0.589881  0  2.15938  0  0  -0.320843  -0.549248  0  2.173643  0
O  O118  1  0.36104913  0.41884023  0.66478957  1  0  -0.613482  0  1.939796  0  0  -0.566067  0  2.168154  0  0  -0.589934  0  2.159289  0  0  -0.320897  -0.549311  0  2.173566  0
O  O119  1  0.86104264  0.58115808  0.83521299  1  0  -0.613513  0  1.939817  0  0  -0.566098  0  2.168156  0  0  -0.589973  0  2.159303  0  0  -0.320904  -0.549341  0  2.173568  0
O  O120  1  0.35733138  0.84794461  0.65018603  1  0  -0.687989  0  2.0876  0  0  -0.616651  0  2.341418  0  0  -0.645059  0  2.327951  0  0  -0.331996  -0.596648  0  2.349644  0
O  O121  1  0.85732870  0.15205766  0.84981610  1  0  -0.688049  0  2.087745  0  0  -0.616692  0  2.341539  0  0  -0.645111  0  2.328082  0  0  -0.331991  -0.596688  0  2.349761  0
O  O122  1  0.64266649  0.15205743  0.34981638  1  0  -0.687965  0  2.087638  0  0  -0.616654  0  2.341437  0  0  -0.645046  0  2.327974  0  0  -0.331974  -0.59665  0  2.349655  0
O  O123  1  0.14266918  0.84794200  0.15018551  1  0  -0.687996  0  2.087572  0  0  -0.616639  0  2.341374  0  0  -0.645054  0  2.327906  0  0  -0.331968  -0.596638  0  2.349604  0
O  O124  1  0.60840009  0.92307435  0.72169877  1  0  -0.578214  0  1.928984  0  0  -0.51984  0  2.13906  0  0  -0.543968  0  2.13347  0  0  -0.305797  -0.502975  0  2.142331  0
O  O125  1  0.10838730  0.07692974  0.77829998  1  0  -0.578214  0  1.928895  0  0  -0.519919  0  2.139053  0  0  -0.544043  0  2.13345  0  0  -0.30585  -0.503054  0  2.142323  0
O  O126  1  0.39160345  0.07692771  0.27830232  1  0  -0.578145  0  1.928943  0  0  -0.519802  0  2.138997  0  0  -0.54392  0  2.133424  0  0  -0.305774  -0.502938  0  2.142266  0
O  O127  1  0.89161199  0.92307553  0.22169800  1  0  -0.578171  0  1.929083  0  0  -0.519866  0  2.139237  0  0  -0.544007  0  2.133653  0  0  -0.305763  -0.503001  0  2.142506  0
O  O128  1  0.27413844  0.80372262  0.31395907  1  0  -0.836041  0  1.835927  0  0  -0.779197  0  2.018449  0  0  -0.798504  0  1.984935  0  0  -0.605628  -0.765317  0  2.041647  0
O  O129  1  0.77414830  0.19627554  0.18604350  1  0  -0.836098  0  1.835842  0  0  -0.779256  0  2.018352  0  0  -0.798567  0  1.984835  0  0  -0.60561  -0.765374  0  2.041549  0
O  O130  1  0.72585234  0.19627705  0.68604254  1  0  -0.836173  0  1.835851  0  0  -0.779331  0  2.018316  0  0  -0.798638  0  1.984801  0  0  -0.605643  -0.765453  0  2.041515  0
O  O131  1  0.22585383  0.80372256  0.81395670  1  0  -0.83611  0  1.83594  0  0  -0.779259  0  2.018417  0  0  -0.798569  0  1.984902  0  0  -0.605614  -0.765378  0  2.041615  0
