# generated using pymatgen
data_Dy2H20C12O13
_symmetry_space_group_name_H-M   'P 1'
_cell_length_a   8.33656724
_cell_length_b   11.36941753
_cell_length_c   11.36942773
_cell_angle_alpha   92.00916030
_cell_angle_beta   107.60797403
_cell_angle_gamma   107.60789559
_symmetry_Int_Tables_number   1
_chemical_formula_structural   Dy2H20C12O13
_chemical_formula_sum   'Dy4 H40 C24 O26'
_cell_volume   969.45911373
_cell_formula_units_Z   2
loop_
 _symmetry_equiv_pos_site_id
 _symmetry_equiv_pos_as_xyz
  1  'x, y, z'
loop_
 _atom_site_type_symbol
 _atom_site_label
 _atom_site_symmetry_multiplicity
 _atom_site_fract_x
 _atom_site_fract_y
 _atom_site_fract_z
 _atom_site_occupancy
 _atom_site_hle17_bader_spin_density
 _atom_site_hle17_ddec_charge
 _atom_site_hle17_ddec_spin_density
 _atom_site_hle17_ddec_sum_bond_order
 _atom_site_hle17_magmom
 _atom_site_hse06_10hf_bader_spin_density
 _atom_site_hse06_10hf_ddec_charge
 _atom_site_hse06_10hf_ddec_spin_density
 _atom_site_hse06_10hf_ddec_sum_bond_order
 _atom_site_hse06_10hf_magmom
 _atom_site_hse06_bader_spin_density
 _atom_site_hse06_ddec_charge
 _atom_site_hse06_ddec_spin_density
 _atom_site_hse06_ddec_sum_bond_order
 _atom_site_hse06_magmom
 _atom_site_pbe_bader_spin_density
 _atom_site_pbe_cm5_charge
 _atom_site_pbe_ddec_charge
 _atom_site_pbe_ddec_spin_density
 _atom_site_pbe_ddec_sum_bond_order
 _atom_site_pbe_magmom
Dy  Dy0  1  0.93207368  0.84580723  0.56059739  1  0  2.298834  0  1.601351  0  0  2.151607  0  2.062436  0  0  2.275712  0  1.877992  0  0  1.530566  2.115093  0  2.092684  0
Dy  Dy1  1  0.43207169  0.56059737  0.84580815  1  0  2.29884  0  1.601346  0  0  2.151604  0  2.062455  0  0  2.275722  0  1.877984  0  0  1.53058  2.115091  0  2.092691  0
Dy  Dy2  1  0.69566846  0.71314763  0.19685590  1  0  2.252936  0  1.680795  0  0  2.10998  0  2.149615  0  0  2.160902  0  2.108591  0  0  1.548595  2.071777  0  2.18352  0
Dy  Dy3  1  0.19567025  0.19685476  0.71314842  1  0  2.252947  0  1.680763  0  0  2.110007  0  2.149556  0  0  2.160908  0  2.108561  0  0  1.548604  2.071801  0  2.18344  0
H  H4  1  0.00429959  0.43506753  0.38008471  1  0  0.137672  0  0.932201  0  0  0.156221  0  0.989574  0  0  0.158725  0  0.988292  0  0  0.099284  0.154388  0  0.990544  0
H  H5  1  0.50430169  0.38008504  0.43506948  1  0  0.137657  0  0.932222  0  0  0.15621  0  0.989592  0  0  0.158713  0  0.98831  0  0  0.099285  0.154377  0  0.990566  0
H  H6  1  0.91284570  0.47325335  0.49333117  1  0  0.150028  0  0.930908  0  0  0.170578  0  0.987746  0  0  0.173212  0  0.986646  0  0  0.109202  0.168727  0  0.988428  0
H  H7  1  0.41284474  0.49332989  0.47325405  1  0  0.150033  0  0.930901  0  0  0.170595  0  0.987725  0  0  0.173228  0  0.986626  0  0  0.109211  0.168742  0  0.988412  0
H  H8  1  0.12528125  0.56797681  0.49824319  1  0  0.154902  0  0.944966  0  0  0.172915  0  1.006642  0  0  0.176281  0  1.00478  0  0  0.109951  0.170557  0  1.007915  0
H  H9  1  0.62528001  0.49824317  0.56797907  1  0  0.154897  0  0.944916  0  0  0.172908  0  1.006609  0  0  0.176274  0  1.004748  0  0  0.109957  0.170552  0  1.00788  0
H  H10  1  0.29255416  0.12134168  0.36821533  1  0  0.149432  0  0.962038  0  0  0.163391  0  1.026699  0  0  0.167244  0  1.023993  0  0  0.096171  0.160646  0  1.028525  0
H  H11  1  0.79255788  0.36821575  0.12134260  1  0  0.149418  0  0.962035  0  0  0.163377  0  1.0267  0  0  0.16723  0  1.023993  0  0  0.096156  0.160632  0  1.028525  0
H  H12  1  0.13349193  0.11047406  0.21745081  1  0  0.136401  0  0.935596  0  0  0.158114  0  0.990278  0  0  0.160058  0  0.990024  0  0  0.102461  0.156731  0  0.990438  0
H  H13  1  0.63349550  0.21745143  0.11047646  1  0  0.136415  0  0.935598  0  0  0.158142  0  0.990259  0  0  0.160086  0  0.990005  0  0  0.102488  0.156758  0  0.990424  0
H  H14  1  0.27624962  0.02060051  0.23552687  1  0  0.127721  0  0.953598  0  0  0.146384  0  1.015732  0  0  0.148572  0  1.01488  0  0  0.096917  0.144816  0  1.016354  0
H  H15  1  0.77625219  0.23552745  0.02060191  1  0  0.127755  0  0.953563  0  0  0.146422  0  1.015694  0  0  0.14861  0  1.014843  0  0  0.096923  0.144854  0  1.016312  0
H  H16  1  0.29508723  0.65521298  0.33786933  1  0  0.152599  0  0.928294  0  0  0.174081  0  0.983431  0  0  0.176238  0  0.983013  0  0  0.112157  0.172573  0  0.983588  0
H  H17  1  0.79508814  0.33786952  0.65521335  1  0  0.152613  0  0.928296  0  0  0.174094  0  0.983431  0  0  0.176251  0  0.983013  0  0  0.112152  0.172585  0  0.98359  0
H  H18  1  0.33633574  0.79833107  0.27507560  1  0  0.145597  0  0.935775  0  0  0.163854  0  0.994626  0  0  0.166366  0  0.993582  0  0  0.106604  0.162094  0  0.995156  0
H  H19  1  0.83633563  0.27507522  0.79833229  1  0  0.145601  0  0.935761  0  0  0.163852  0  0.994618  0  0  0.166363  0  0.993575  0  0  0.1066  0.162092  0  0.995146  0
H  H20  1  0.30124377  0.79027344  0.42439205  1  0  0.160548  0  0.940034  0  0  0.178115  0  0.997437  0  0  0.181007  0  0.996688  0  0  0.10925  0.176096  0  0.997817  0
H  H21  1  0.80124620  0.42439342  0.79027397  1  0  0.160537  0  0.94004  0  0  0.178102  0  0.997444  0  0  0.180992  0  0.996698  0  0  0.109234  0.176079  0  0.997825  0
H  H22  1  0.57671231  0.93307929  0.68419459  1  0  0.156165  0  0.949944  0  0  0.172201  0  1.010198  0  0  0.175137  0  1.009141  0  0  0.108708  0.170147  0  1.01079  0
H  H23  1  0.07670698  0.68419685  0.93307785  1  0  0.156193  0  0.949939  0  0  0.172244  0  1.010186  0  0  0.175177  0  1.009133  0  0  0.108718  0.170191  0  1.010776  0
H  H24  1  0.56579693  0.06728852  0.76827179  1  0  0.148634  0  0.942212  0  0  0.166835  0  1.002698  0  0  0.16928  0  1.001962  0  0  0.108863  0.165112  0  1.003066  0
H  H25  1  0.06579127  0.76827407  0.06728794  1  0  0.148625  0  0.942242  0  0  0.166876  0  1.002682  0  0  0.169321  0  1.001944  0  0  0.108882  0.16515  0  1.003055  0
H  H26  1  0.51742438  0.05518255  0.60543732  1  0  0.155017  0  0.916869  0  0  0.176593  0  0.971575  0  0  0.179085  0  0.970454  0  0  0.113394  0.174867  0  0.972183  0
H  H27  1  0.01742144  0.60543981  0.05518100  1  0  0.155035  0  0.916746  0  0  0.176614  0  0.971482  0  0  0.179106  0  0.97036  0  0  0.113398  0.174888  0  0.972086  0
H  H28  1  0.73107690  0.04801560  0.31592916  1  0  0.165044  0  0.922756  0  0  0.183386  0  0.979374  0  0  0.186875  0  0.977263  0  0  0.1157  0.180944  0  0.980785  0
H  H29  1  0.23107526  0.31592813  0.04801591  1  0  0.165036  0  0.922739  0  0  0.183379  0  0.979358  0  0  0.186869  0  0.977247  0  0  0.115703  0.180941  0  0.980764  0
H  H30  1  0.72704672  0.20402639  0.34498989  1  0  0.135081  0  0.9399  0  0  0.154901  0  0.996572  0  0  0.156873  0  0.996098  0  0  0.100567  0.153457  0  0.996965  0
H  H31  1  0.22704549  0.34498966  0.20402796  1  0  0.135065  0  0.939916  0  0  0.154883  0  0.99659  0  0  0.156856  0  0.996116  0  0  0.100557  0.15344  0  0.996982  0
H  H32  1  0.60047367  0.07614972  0.40241610  1  0  0.140231  0  0.934551  0  0  0.162579  0  0.989866  0  0  0.164468  0  0.989665  0  0  0.106056  0.161264  0  0.989929  0
H  H33  1  0.10047244  0.40241546  0.07614983  1  0  0.140257  0  0.934556  0  0  0.162599  0  0.989878  0  0  0.164488  0  0.989679  0  0  0.10606  0.161282  0  0.989939  0
H  H34  1  0.72908652  0.89267537  0.90411582  1  0  0.145276  0  0.954995  0  0  0.161439  0  1.01596  0  0  0.164286  0  1.015373  0  0  0.10353  0.159362  0  1.01649  0
H  H35  1  0.22908725  0.90411934  0.89267371  1  0  0.145281  0  0.954987  0  0  0.161435  0  1.015967  0  0  0.164283  0  1.015378  0  0  0.103534  0.159358  0  1.016503  0
H  H36  1  0.83222210  0.05609505  0.96360349  1  0  0.1228  0  0.951177  0  0  0.141206  0  1.012949  0  0  0.143445  0  1.011888  0  0  0.092572  0.139586  0  1.013694  0
H  H37  1  0.33222572  0.96360792  0.05609455  1  0  0.1228  0  0.951234  0  0  0.141198  0  1.013015  0  0  0.143436  0  1.011953  0  0  0.092574  0.139581  0  1.013762  0
H  H38  1  0.94332611  0.94862381  0.01770211  1  0  0.145908  0  0.950729  0  0  0.164539  0  1.011588  0  0  0.167249  0  1.010732  0  0  0.103362  0.162619  0  1.012087  0
H  H39  1  0.44333081  0.01770433  0.94862435  1  0  0.145912  0  0.950742  0  0  0.164572  0  1.011576  0  0  0.167283  0  1.01072  0  0  0.103369  0.162649  0  1.012075  0
H  H40  1  0.99548563  0.62471486  0.69350898  1  0  0.449995  0  0.844054  0  0  0.422121  0  0.901274  0  0  0.433311  0  0.885147  0  0  0.305855  0.414496  0  0.912306  0
H  H41  1  0.49548513  0.69350739  0.62471538  1  0  0.45  0  0.84406  0  0  0.422129  0  0.901273  0  0  0.433318  0  0.885148  0  0  0.305864  0.414501  0  0.912309  0
H  H42  1  0.84232664  0.65934181  0.72344511  1  0  0.442932  0  0.85779  0  0  0.413774  0  0.918401  0  0  0.424799  0  0.902491  0  0  0.302449  0.406121  0  0.929529  0
H  H43  1  0.34232795  0.72344564  0.65934127  1  0  0.442926  0  0.857781  0  0  0.41377  0  0.918391  0  0  0.424794  0  0.902482  0  0  0.30246  0.406118  0  0.929518  0
C  C44  1  0.90797421  0.59101618  0.35193355  1  0  0.789727  0  3.80976  0  0  0.753585  0  4.099194  0  0  0.78834  0  4.089685  0  0  0.214357  0.73035  0  4.10524  0
C  C45  1  0.40797329  0.35193169  0.59101737  1  0  0.789667  0  3.809737  0  0  0.753482  0  4.099256  0  0  0.788233  0  4.089754  0  0  0.214335  0.730248  0  4.105293  0
C  C46  1  0.99313494  0.51174810  0.43437997  1  0  -0.449585  0  3.624772  0  0  -0.524922  0  3.855294  0  0  -0.531864  0  3.855641  0  0  -0.237772  -0.519922  0  3.854604  0
C  C47  1  0.49313441  0.43437956  0.51174879  1  0  -0.449563  0  3.62464  0  0  -0.524893  0  3.855175  0  0  -0.531834  0  3.855524  0  0  -0.237797  -0.519895  0  3.854494  0
C  C48  1  0.06452984  0.95287019  0.31192604  1  0  0.812448  0  3.799549  0  0  0.780687  0  4.084359  0  0  0.815284  0  4.074782  0  0  0.234999  0.757464  0  4.090837  0
C  C49  1  0.56453202  0.31192661  0.95287202  1  0  0.812524  0  3.799487  0  0  0.780769  0  4.084281  0  0  0.815366  0  4.074702  0  0  0.235019  0.757539  0  4.090769  0
C  C50  1  0.20209212  0.05857474  0.28306065  1  0  -0.465424  0  3.642746  0  0  -0.539298  0  3.867279  0  0  -0.546389  0  3.868227  0  0  -0.245193  -0.534173  0  3.86615  0
C  C51  1  0.70209438  0.28306134  0.05857627  1  0  -0.465484  0  3.642715  0  0  -0.539373  0  3.867236  0  0  -0.546466  0  3.868184  0  0  -0.245218  -0.534246  0  3.86611  0
C  C52  1  0.55555724  0.78260573  0.42441957  1  0  0.793048  0  3.794376  0  0  0.748397  0  4.092575  0  0  0.782416  0  4.088322  0  0  0.226636  0.724592  0  4.099501  0
C  C53  1  0.05555930  0.42441953  0.78260632  1  0  0.793028  0  3.794512  0  0  0.748397  0  4.092684  0  0  0.782415  0  4.08843  0  0  0.226605  0.724593  0  4.099607  0
C  C54  1  0.35990165  0.75669817  0.36140093  1  0  -0.464127  0  3.606591  0  0  -0.538768  0  3.836161  0  0  -0.54571  0  3.837041  0  0  -0.2359  -0.53337  0  3.834667  0
C  C55  1  0.85990165  0.36140183  0.75669943  1  0  -0.464136  0  3.60657  0  0  -0.53877  0  3.836113  0  0  -0.545713  0  3.836997  0  0  -0.235874  -0.533373  0  3.834621  0
C  C56  1  0.31255662  0.93882795  0.66028858  1  0  0.813399  0  3.771865  0  0  0.772725  0  4.059898  0  0  0.807116  0  4.054471  0  0  0.230839  0.748555  0  4.067466  0
C  C57  1  0.81255080  0.66029038  0.93882693  1  0  0.813417  0  3.772015  0  0  0.772901  0  4.059802  0  0  0.807267  0  4.054417  0  0  0.230921  0.748727  0  4.067367  0
C  C58  1  0.50673975  0.00053073  0.68242665  1  0  -0.4601  0  3.597654  0  0  -0.535852  0  3.824311  0  0  -0.542833  0  3.825022  0  0  -0.23269  -0.530414  0  3.822969  0
C  C59  1  0.00673555  0.68243062  0.00052964  1  0  -0.460147  0  3.597599  0  0  -0.536006  0  3.824218  0  0  -0.542982  0  3.824944  0  0  -0.232759  -0.53056  0  3.822876  0
C  C60  1  0.87984270  0.14066178  0.50243394  1  0  0.788209  0  3.810419  0  0  0.754881  0  4.096827  0  0  0.789951  0  4.08676  0  0  0.219329  0.731463  0  4.103206  0
C  C61  1  0.37984023  0.50243346  0.14066279  1  0  0.788236  0  3.81056  0  0  0.754859  0  4.097027  0  0  0.789929  0  4.086961  0  0  0.219307  0.731437  0  4.103414  0
C  C62  1  0.72615166  0.11705791  0.38361638  1  0  -0.450547  0  3.624965  0  0  -0.525322  0  3.849208  0  0  -0.53221  0  3.850367  0  0  -0.235539  -0.52045  0  3.848052  0
C  C63  1  0.22615011  0.38361625  0.11705902  1  0  -0.450551  0  3.624962  0  0  -0.525305  0  3.849224  0  0  -0.532194  0  3.850383  0  0  -0.235531  -0.520432  0  3.848063  0
C  C64  1  0.93953429  0.99032740  0.83436167  1  0  0.809287  0  3.805893  0  0  0.777016  0  4.090872  0  0  0.811417  0  4.081655  0  0  0.230844  0.753841  0  4.097319  0
C  C65  1  0.43953477  0.83436207  0.99032762  1  0  0.809307  0  3.806082  0  0  0.777029  0  4.091078  0  0  0.811429  0  4.081862  0  0  0.230852  0.753855  0  4.097516  0
C  C66  1  0.85416817  0.97082296  0.93486583  1  0  -0.458217  0  3.630429  0  0  -0.53286  0  3.857843  0  0  -0.540313  0  3.859681  0  0  -0.244959  -0.527314  0  3.855856  0
C  C67  1  0.35417121  0.93486866  0.97082318  1  0  -0.45825  0  3.630503  0  0  -0.532915  0  3.857952  0  0  -0.540366  0  3.859788  0  0  -0.244977  -0.527368  0  3.855971  0
O  O68  1  0.85836635  0.56743215  0.23384777  1  0  -0.701669  0  1.914259  0  0  -0.65571  0  2.144984  0  0  -0.680125  0  2.13569  0  0  -0.372294  -0.638371  0  2.150254  0
O  O69  1  0.35836949  0.23384739  0.56743341  1  0  -0.701603  0  1.914341  0  0  -0.655632  0  2.145094  0  0  -0.680045  0  2.135804  0  0  -0.372274  -0.638297  0  2.150357  0
O  O70  1  0.87966531  0.68403081  0.40079647  1  0  -0.856866  0  2.121979  0  0  -0.799117  0  2.383201  0  0  -0.836587  0  2.370743  0  0  -0.449574  -0.779884  0  2.389247  0
O  O71  1  0.37966533  0.40079567  0.68403161  1  0  -0.856858  0  2.121949  0  0  -0.79909  0  2.38319  0  0  -0.836558  0  2.37073  0  0  -0.449568  -0.779854  0  2.389225  0
O  O72  1  0.94973458  0.87264246  0.21988740  1  0  -0.772013  0  1.997945  0  0  -0.722233  0  2.250965  0  0  -0.748144  0  2.239517  0  0  -0.42407  -0.703742  0  2.258019  0
O  O73  1  0.44973659  0.21988743  0.87264389  1  0  -0.77204  0  1.997891  0  0  -0.722261  0  2.250905  0  0  -0.748171  0  2.239459  0  0  -0.424075  -0.703772  0  2.25796  0
O  O74  1  0.06879502  0.94944098  0.42374071  1  0  -0.743404  0  2.064255  0  0  -0.69505  0  2.312803  0  0  -0.730165  0  2.300829  0  0  -0.384459  -0.677112  0  2.317891  0
O  O75  1  0.56879414  0.42374032  0.94944244  1  0  -0.743417  0  2.06425  0  0  -0.695071  0  2.312821  0  0  -0.730189  0  2.300845  0  0  -0.384464  -0.677133  0  2.317911  0
O  O76  1  0.66606669  0.82299435  0.36523817  1  0  -0.822742  0  2.105058  0  0  -0.768468  0  2.370272  0  0  -0.801849  0  2.360598  0  0  -0.426505  -0.749865  0  2.377191  0
O  O77  1  0.16606597  0.36523974  0.82299381  1  0  -0.822791  0  2.105173  0  0  -0.768504  0  2.370318  0  0  -0.801881  0  2.36064  0  0  -0.426498  -0.749907  0  2.377239  0
O  O78  1  0.61697252  0.76622741  0.53741741  1  0  -0.69543  0  1.998007  0  0  -0.632567  0  2.227228  0  0  -0.666412  0  2.21672  0  0  -0.350136  -0.614509  0  2.233426  0
O  O79  1  0.11697282  0.53741752  0.76622690  1  0  -0.695377  0  1.9981  0  0  -0.632538  0  2.227347  0  0  -0.666386  0  2.216838  0  0  -0.350119  -0.614485  0  2.233543  0
O  O80  1  0.23221820  0.82414804  0.61640696  1  0  -0.695573  0  1.988172  0  0  -0.635283  0  2.213204  0  0  -0.668435  0  2.202804  0  0  -0.343081  -0.61748  0  2.219649  0
O  O81  1  0.73221338  0.61640927  0.82414841  1  0  -0.695624  0  1.988133  0  0  -0.635415  0  2.213164  0  0  -0.668534  0  2.202719  0  0  -0.343141  -0.61761  0  2.219609  0
O  O82  1  0.21919516  0.00361498  0.68076891  1  0  -0.843027  0  2.186383  0  0  -0.787985  0  2.459882  0  0  -0.822477  0  2.448777  0  0  -0.459692  -0.7688  0  2.467352  0
O  O83  1  0.71919044  0.68076960  0.00361592  1  0  -0.842977  0  2.18649  0  0  -0.787979  0  2.459909  0  0  -0.822473  0  2.448821  0  0  -0.459683  -0.768809  0  2.467421  0
O  O84  1  0.90448992  0.04941053  0.56125756  1  0  -0.834546  0  2.096264  0  0  -0.779153  0  2.352101  0  0  -0.81593  0  2.340254  0  0  -0.428426  -0.760051  0  2.357545  0
O  O85  1  0.40448977  0.56125722  0.04941241  1  0  -0.834563  0  2.096387  0  0  -0.779161  0  2.352259  0  0  -0.815941  0  2.34041  0  0  -0.428431  -0.760057  0  2.357716  0
O  O86  1  0.98561436  0.25086120  0.54671151  1  0  -0.708333  0  1.924771  0  0  -0.658846  0  2.151649  0  0  -0.684363  0  2.143555  0  0  -0.377413  -0.640674  0  2.156036  0
O  O87  1  0.48561334  0.54670969  0.25086181  1  0  -0.708343  0  1.924796  0  0  -0.658834  0  2.151701  0  0  -0.684355  0  2.143608  0  0  -0.377378  -0.640659  0  2.156092  0
O  O88  1  0.90656748  0.89726719  0.75514766  1  0  -0.747256  0  2.011303  0  0  -0.700066  0  2.265649  0  0  -0.734746  0  2.251638  0  0  -0.39506  -0.68272  0  2.272583  0
O  O89  1  0.40656671  0.75514835  0.89726855  1  0  -0.747254  0  2.011431  0  0  -0.700046  0  2.265756  0  0  -0.734727  0  2.251747  0  0  -0.395057  -0.682697  0  2.272684  0
O  O90  1  0.04276777  0.10025060  0.83664989  1  0  -0.770613  0  1.986078  0  0  -0.722023  0  2.234625  0  0  -0.746991  0  2.222607  0  0  -0.431624  -0.704157  0  2.242106  0
O  O91  1  0.54276733  0.83665094  0.10025042  1  0  -0.770611  0  1.986121  0  0  -0.722008  0  2.234671  0  0  -0.746979  0  2.222653  0  0  -0.431615  -0.704142  0  2.242154  0
O  O92  1  0.90834422  0.66937468  0.66241271  1  0  -0.940416  0  1.869705  0  0  -0.898613  0  2.077776  0  0  -0.928127  0  2.039035  0  0  -0.664853  -0.884745  0  2.10033  0
O  O93  1  0.40834370  0.66241243  0.66937373  1  0  -0.940417  0  1.869678  0  0  -0.898617  0  2.077753  0  0  -0.928131  0  2.039015  0  0  -0.66487  -0.884748  0  2.100307  0
