# generated using pymatgen
data_DyH8C6O7
_symmetry_space_group_name_H-M   'P 1'
_cell_length_a   7.65479639
_cell_length_b   10.68627566
_cell_length_c   12.67505731
_cell_angle_alpha   95.33411166
_cell_angle_beta   107.57134498
_cell_angle_gamma   110.99166455
_symmetry_Int_Tables_number   1
_chemical_formula_structural   DyH8C6O7
_chemical_formula_sum   'Dy4 H32 C24 O28'
_cell_volume   898.99127854
_cell_formula_units_Z   4
loop_
 _symmetry_equiv_pos_site_id
 _symmetry_equiv_pos_as_xyz
  1  'x, y, z'
loop_
 _atom_site_type_symbol
 _atom_site_label
 _atom_site_symmetry_multiplicity
 _atom_site_fract_x
 _atom_site_fract_y
 _atom_site_fract_z
 _atom_site_occupancy
 _atom_site_hle17_bader_spin_density
 _atom_site_hle17_ddec_charge
 _atom_site_hle17_ddec_spin_density
 _atom_site_hle17_ddec_sum_bond_order
 _atom_site_hle17_magmom
 _atom_site_hse06_10hf_bader_spin_density
 _atom_site_hse06_10hf_ddec_charge
 _atom_site_hse06_10hf_ddec_spin_density
 _atom_site_hse06_10hf_ddec_sum_bond_order
 _atom_site_hse06_10hf_magmom
 _atom_site_hse06_bader_spin_density
 _atom_site_hse06_ddec_charge
 _atom_site_hse06_ddec_spin_density
 _atom_site_hse06_ddec_sum_bond_order
 _atom_site_hse06_magmom
 _atom_site_pbe_bader_spin_density
 _atom_site_pbe_cm5_charge
 _atom_site_pbe_ddec_charge
 _atom_site_pbe_ddec_spin_density
 _atom_site_pbe_ddec_sum_bond_order
 _atom_site_pbe_magmom
Dy  Dy0  1  0.75542233  0.31023771  0.77021427  1  0  2.27922  0  1.61143  0  0  2.128552  0  2.077607  0  0  2.259555  0  1.88696  0  0  1.528859  2.090876  0  2.108822  0
Dy  Dy1  1  0.17503897  0.18980286  0.72984352  1  0  2.279711  0  1.612458  0  0  2.128418  0  2.079526  0  0  2.259859  0  1.888005  0  0  1.529391  2.090775  0  2.110665  0
Dy  Dy2  1  0.24457603  0.68975922  0.22978510  1  0  2.279212  0  1.611416  0  0  2.128569  0  2.077568  0  0  2.259552  0  1.886946  0  0  1.528846  2.090891  0  2.108782  0
Dy  Dy3  1  0.82495949  0.81019613  0.27015648  1  0  2.27967  0  1.612492  0  0  2.128418  0  2.079564  0  0  2.259856  0  1.888043  0  0  1.529382  2.090775  0  2.110703  0
H  H4  1  0.14714642  0.13616673  0.04096752  1  0  0.122808  0  0.918983  0  0  0.137626  0  0.975423  0  0  0.140376  0  0.973479  0  0  0.111224  0.135748  0  0.976503  0
H  H5  1  0.47027108  0.36379551  0.45905309  1  0  0.123421  0  0.918311  0  0  0.137569  0  0.975372  0  0  0.140334  0  0.973427  0  0  0.111318  0.135696  0  0.976489  0
H  H6  1  0.85285031  0.86383123  0.95903254  1  0  0.122764  0  0.918994  0  0  0.137638  0  0.975401  0  0  0.140389  0  0.973453  0  0  0.111217  0.135761  0  0.976482  0
H  H7  1  0.52972677  0.63620245  0.54094672  1  0  0.123429  0  0.918356  0  0  0.13758  0  0.975412  0  0  0.140347  0  0.973467  0  0  0.1113  0.135706  0  0.976529  0
H  H8  1  0.12684989  0.25875761  0.13745872  1  0  0.117789  0  0.912561  0  0  0.133099  0  0.965501  0  0  0.135872  0  0.963454  0  0  0.110537  0.131194  0  0.966678  0
H  H9  1  0.23080462  0.24130737  0.36259871  1  0  0.117947  0  0.912624  0  0  0.13303  0  0.965629  0  0  0.135819  0  0.963581  0  0  0.110382  0.131107  0  0.966819  0
H  H10  1  0.87314940  0.74124035  0.86253980  1  0  0.117788  0  0.912603  0  0  0.133112  0  0.965565  0  0  0.135884  0  0.96352  0  0  0.110561  0.131209  0  0.966739  0
H  H11  1  0.76919233  0.75868853  0.63739968  1  0  0.117904  0  0.9127  0  0  0.132999  0  0.965682  0  0  0.135791  0  0.963633  0  0  0.110381  0.131076  0  0.966871  0
H  H12  1  0.48739242  0.29689025  0.14906917  1  0  0.10457  0  0.912444  0  0  0.124262  0  0.962946  0  0  0.126382  0  0.96196  0  0  0.106444  0.122815  0  0.96346  0
H  H13  1  0.54141605  0.20302130  0.35095191  1  0  0.105469  0  0.912822  0  0  0.125204  0  0.963149  0  0  0.127323  0  0.962141  0  0  0.10703  0.123728  0  0.963691  0
H  H14  1  0.51260673  0.70310667  0.85093099  1  0  0.10459  0  0.912425  0  0  0.124275  0  0.96292  0  0  0.126398  0  0.961935  0  0  0.106468  0.122831  0  0.963429  0
H  H15  1  0.45858268  0.79697357  0.64904865  1  0  0.105433  0  0.912833  0  0  0.125165  0  0.963167  0  0  0.127286  0  0.962157  0  0  0.106992  0.123689  0  0.963709  0
H  H16  1  0.42968950  0.33492093  0.01437123  1  0  0.113497  0  0.940049  0  0  0.126064  0  1.00289  0  0  0.128404  0  1.002758  0  0  0.111489  0.124207  0  1.003416  0
H  H17  1  0.58032049  0.16497061  0.48563275  1  0  0.113325  0  0.941613  0  0  0.126282  0  1.003778  0  0  0.12858  0  1.003661  0  0  0.11176  0.12442  0  1.0043  0
H  H18  1  0.57030768  0.66507291  0.98562548  1  0  0.113443  0  0.940114  0  0  0.126001  0  1.002959  0  0  0.128339  0  1.002834  0  0  0.11146  0.124145  0  1.003482  0
H  H19  1  0.41968031  0.83503043  0.51436738  1  0  0.11334  0  0.941587  0  0  0.126311  0  1.00373  0  0  0.128613  0  1.003608  0  0  0.111766  0.124448  0  1.004252  0
H  H20  1  0.02187501  0.36394521  0.47012970  1  0  0.123012  0  0.923441  0  0  0.139307  0  0.976108  0  0  0.142309  0  0.974313  0  0  0.111818  0.137385  0  0.976916  0
H  H21  1  0.68788851  0.13594515  0.02973260  1  0  0.123358  0  0.923456  0  0  0.139226  0  0.976443  0  0  0.142215  0  0.974717  0  0  0.111791  0.13722  0  0.977369  0
H  H22  1  0.97811859  0.63605069  0.52986944  1  0  0.122991  0  0.92353  0  0  0.139272  0  0.976193  0  0  0.142274  0  0.974402  0  0  0.111823  0.137351  0  0.977001  0
H  H23  1  0.31211145  0.86405692  0.97026902  1  0  0.123364  0  0.923431  0  0  0.139227  0  0.976416  0  0  0.142217  0  0.974691  0  0  0.111806  0.137223  0  0.97734  0
H  H24  1  0.19557163  0.50076528  0.58350396  1  0  0.112999  0  0.90156  0  0  0.130439  0  0.95417  0  0  0.132386  0  0.953649  0  0  0.112329  0.129019  0  0.954578  0
H  H25  1  0.61107996  0.99899303  0.91640838  1  0  0.112595  0  0.902108  0  0  0.130117  0  0.954712  0  0  0.13212  0  0.954127  0  0  0.1121  0.128708  0  0.955063  0
H  H26  1  0.80442645  0.49923062  0.41649417  1  0  0.112994  0  0.901562  0  0  0.130428  0  0.954172  0  0  0.132375  0  0.953651  0  0  0.112303  0.129007  0  0.954581  0
H  H27  1  0.38891637  0.00100801  0.08359276  1  0  0.112563  0  0.902113  0  0  0.13006  0  0.954739  0  0  0.132063  0  0.954154  0  0  0.112067  0.128652  0  0.955088  0
H  H28  1  0.18845249  0.49713110  0.85276915  1  0  0.43181  0  0.864627  0  0  0.402953  0  0.924777  0  0  0.41411  0  0.908676  0  0  0.298609  0.395254  0  0.935995  0
H  H29  1  0.33851195  0.00286977  0.64715376  1  0  0.433069  0  0.863075  0  0  0.403585  0  0.924386  0  0  0.414839  0  0.908133  0  0  0.298932  0.395837  0  0.935671  0
H  H30  1  0.81154562  0.50286274  0.14723122  1  0  0.431863  0  0.864561  0  0  0.40301  0  0.924705  0  0  0.414167  0  0.9086  0  0  0.298642  0.39531  0  0.935924  0
H  H31  1  0.66148767  0.99712716  0.35284822  1  0  0.433075  0  0.863061  0  0  0.403592  0  0.924371  0  0  0.414844  0  0.908123  0  0  0.298942  0.395843  0  0.935657  0
H  H32  1  0.08465819  0.57862243  0.91173602  1  0  0.449149  0  0.84447  0  0  0.418422  0  0.906838  0  0  0.430133  0  0.889826  0  0  0.301211  0.410395  0  0.918613  0
H  H33  1  0.09424154  0.92137164  0.58820609  1  0  0.449308  0  0.844254  0  0  0.418407  0  0.906892  0  0  0.430173  0  0.889809  0  0  0.301406  0.410377  0  0.918627  0
H  H34  1  0.91534356  0.42137244  0.08826483  1  0  0.449211  0  0.844383  0  0  0.418473  0  0.906764  0  0  0.430184  0  0.889754  0  0  0.301248  0.410421  0  0.918566  0
H  H35  1  0.90575631  0.07862632  0.41179372  1  0  0.449321  0  0.844242  0  0  0.418408  0  0.906891  0  0  0.430174  0  0.889809  0  0  0.301404  0.41038  0  0.918623  0
C  C36  1  0.02811555  0.26852166  0.96347900  1  0  0.753357  0  3.763152  0  0  0.709007  0  4.057783  0  0  0.743361  0  4.055158  0  0  0.227759  0.685538  0  4.064188  0
C  C37  1  0.29624417  0.23160395  0.53659540  1  0  0.75442  0  3.760233  0  0  0.709212  0  4.056197  0  0  0.743571  0  4.053654  0  0  0.227928  0.685708  0  4.062576  0
C  C38  1  0.97188551  0.73147527  0.03652169  1  0  0.753303  0  3.763237  0  0  0.709065  0  4.057742  0  0  0.743419  0  4.055117  0  0  0.227831  0.685597  0  4.064146  0
C  C39  1  0.70375358  0.76839195  0.46340377  1  0  0.754446  0  3.760258  0  0  0.709227  0  4.056242  0  0  0.743587  0  4.053696  0  0  0.227936  0.685722  0  4.062622  0
C  C40  1  0.16925977  0.24393429  0.06354504  1  0  -0.235497  0  3.642238  0  0  -0.27719  0  3.894261  0  0  -0.280897  0  3.898137  0  0  -0.156438  -0.274006  0  3.889912  0
C  C41  1  0.36192547  0.25606186  0.43650271  1  0  -0.23558  0  3.641838  0  0  -0.276301  0  3.893428  0  0  -0.280085  0  3.897406  0  0  -0.155958  -0.273115  0  3.889086  0
C  C42  1  0.83073953  0.75606366  0.93645348  1  0  -0.235409  0  3.642176  0  0  -0.27724  0  3.894266  0  0  -0.280941  0  3.898141  0  0  -0.156473  -0.274058  0  3.889917  0
C  C43  1  0.63807289  0.74393507  0.56349665  1  0  -0.235566  0  3.641927  0  0  -0.276289  0  3.893494  0  0  -0.280082  0  3.897482  0  0  -0.155944  -0.273101  0  3.889148  0
C  C44  1  0.39096674  0.33621387  0.09112032  1  0  -0.23884  0  3.637036  0  0  -0.279481  0  3.889292  0  0  -0.284153  0  3.89478  0  0  -0.153534  -0.275808  0  3.883908  0
C  C45  1  0.46359292  0.16371195  0.40890301  1  0  -0.239934  0  3.640859  0  0  -0.280922  0  3.892471  0  0  -0.285464  0  3.897805  0  0  -0.154871  -0.277226  0  3.887112  0
C  C46  1  0.60903223  0.66378408  0.90887923  1  0  -0.238832  0  3.636983  0  0  -0.279414  0  3.889269  0  0  -0.284103  0  3.894767  0  0  -0.153535  -0.27574  0  3.883887  0
C  C47  1  0.53640684  0.83628600  0.59109733  1  0  -0.2399  0  3.640854  0  0  -0.280933  0  3.892445  0  0  -0.285478  0  3.897783  0  0  -0.154876  -0.277235  0  3.887083  0
C  C48  1  0.45176316  0.48569463  0.14590006  1  0  0.762099  0  3.784273  0  0  0.718422  0  4.082877  0  0  0.75335  0  4.076418  0  0  0.239414  0.695195  0  4.089052  0
C  C49  1  0.32011729  0.01424768  0.35407502  1  0  0.760397  0  3.78756  0  0  0.717173  0  4.085032  0  0  0.752115  0  4.078565  0  0  0.239367  0.693919  0  4.091176  0
C  C50  1  0.54823614  0.51430332  0.85409845  1  0  0.762126  0  3.784269  0  0  0.718423  0  4.082906  0  0  0.753367  0  4.07643  0  0  0.23943  0.695185  0  4.089095  0
C  C51  1  0.67988312  0.98574924  0.64592775  1  0  0.760496  0  3.787438  0  0  0.717344  0  4.084753  0  0  0.752286  0  4.078286  0  0  0.239565  0.694091  0  4.090896  0
C  C52  1  0.92266662  0.39372341  0.60575094  1  0  0.734367  0  3.817592  0  0  0.690769  0  4.114874  0  0  0.724358  0  4.113823  0  0  0.209489  0.667743  0  4.120573  0
C  C53  1  0.42313567  0.10620379  0.89424398  1  0  0.733749  0  3.819684  0  0  0.690115  0  4.116645  0  0  0.723727  0  4.115626  0  0  0.209102  0.667095  0  4.12226  0
C  C54  1  0.07733011  0.60627455  0.39424912  1  0  0.734401  0  3.81755  0  0  0.690737  0  4.114932  0  0  0.724325  0  4.113882  0  0  0.209495  0.667712  0  4.120631  0
C  C55  1  0.57686238  0.89379828  0.10575709  1  0  0.73383  0  3.819395  0  0  0.690139  0  4.116439  0  0  0.72375  0  4.115419  0  0  0.209115  0.667121  0  4.122053  0
C  C56  1  0.03493229  0.45059112  0.53029455  1  0  -0.235357  0  3.682054  0  0  -0.275215  0  3.932889  0  0  -0.27964  0  3.938724  0  0  -0.157781  -0.271737  0  3.927518  0
C  C57  1  0.55402122  0.04930323  0.96965060  1  0  -0.234852  0  3.683615  0  0  -0.274348  0  3.934066  0  0  -0.278835  0  3.940038  0  0  -0.157358  -0.270756  0  3.928486  0
C  C58  1  0.96506496  0.54940581  0.46970506  1  0  -0.235326  0  3.682119  0  0  -0.275122  0  3.932931  0  0  -0.27956  0  3.938793  0  0  -0.157768  -0.271648  0  3.92756  0
C  C59  1  0.44597633  0.95069987  0.03035092  1  0  -0.234842  0  3.683463  0  0  -0.274275  0  3.933911  0  0  -0.278765  0  3.939886  0  0  -0.157314  -0.270675  0  3.928312  0
O  O60  1  0.02454933  0.23506638  0.86245796  1  0  -0.828717  0  2.143436  0  0  -0.770145  0  2.40291  0  0  -0.816185  0  2.392794  0  0  -0.431236  -0.750834  0  2.408145  0
O  O61  1  0.42712284  0.26502118  0.63761906  1  0  -0.829029  0  2.145613  0  0  -0.770259  0  2.405402  0  0  -0.816341  0  2.395391  0  0  -0.431077  -0.750933  0  2.410572  0
O  O62  1  0.97544726  0.76493055  0.13754374  1  0  -0.828726  0  2.14346  0  0  -0.77018  0  2.402889  0  0  -0.816218  0  2.392772  0  0  -0.431271  -0.75087  0  2.408123  0
O  O63  1  0.57287682  0.73497472  0.36238065  1  0  -0.829048  0  2.14572  0  0  -0.770307  0  2.405569  0  0  -0.816386  0  2.395555  0  0  -0.431033  -0.750983  0  2.410741  0
O  O64  1  0.90593703  0.31887616  0.97521208  1  0  -0.68823  0  2.045605  0  0  -0.63328  0  2.281288  0  0  -0.666451  0  2.270722  0  0  -0.341601  -0.615534  0  2.287428  0
O  O65  1  0.11196480  0.18123342  0.52485475  1  0  -0.689402  0  2.042266  0  0  -0.633764  0  2.278365  0  0  -0.667007  0  2.267792  0  0  -0.342156  -0.615942  0  2.284278  0
O  O66  1  0.09406216  0.68111871  0.02479030  1  0  -0.688176  0  2.045707  0  0  -0.633291  0  2.281377  0  0  -0.666458  0  2.270809  0  0  -0.34163  -0.615554  0  2.287524  0
O  O67  1  0.88803356  0.81876351  0.47514462  1  0  -0.689375  0  2.0422  0  0  -0.633741  0  2.278304  0  0  -0.666983  0  2.26773  0  0  -0.34218  -0.615921  0  2.284218  0
O  O68  1  0.63555154  0.56888641  0.17283077  1  0  -0.747193  0  2.027462  0  0  -0.693408  0  2.275957  0  0  -0.730027  0  2.263143  0  0  -0.367767  -0.67479  0  2.282212  0
O  O69  1  0.39390957  0.93111121  0.32722718  1  0  -0.746817  0  2.029158  0  0  -0.693133  0  2.27758  0  0  -0.729739  0  2.264799  0  0  -0.367247  -0.674509  0  2.283875  0
O  O70  1  0.36444852  0.43111361  0.82716630  1  0  -0.747196  0  2.02752  0  0  -0.693391  0  2.276016  0  0  -0.730015  0  2.263197  0  0  -0.36777  -0.674768  0  2.282278  0
O  O71  1  0.60609051  0.06888572  0.67277663  1  0  -0.746854  0  2.029063  0  0  -0.693216  0  2.277467  0  0  -0.729823  0  2.264686  0  0  -0.367349  -0.674591  0  2.283762  0
O  O72  1  0.31680895  0.51832225  0.16107218  1  0  -0.704716  0  2.05422  0  0  -0.649706  0  2.309075  0  0  -0.686842  0  2.295007  0  0  -0.397667  -0.631927  0  2.315558  0
O  O73  1  0.13730513  0.98159645  0.33871218  1  0  -0.704323  0  2.054498  0  0  -0.649167  0  2.308789  0  0  -0.686389  0  2.294684  0  0  -0.397972  -0.631301  0  2.315274  0
O  O74  1  0.68319085  0.48167467  0.83892589  1  0  -0.704722  0  2.054194  0  0  -0.649705  0  2.309061  0  0  -0.686849  0  2.294991  0  0  -0.397669  -0.631938  0  2.315585  0
O  O75  1  0.86269561  0.01840048  0.66128955  1  0  -0.704447  0  2.054557  0  0  -0.649244  0  2.308753  0  0  -0.686464  0  2.294639  0  0  -0.398044  -0.63138  0  2.315243  0
O  O76  1  0.96368433  0.30463137  0.65972773  1  0  -0.851231  0  2.171716  0  0  -0.797927  0  2.443911  0  0  -0.843785  0  2.433093  0  0  -0.461129  -0.778849  0  2.449558  0
O  O77  1  0.49930703  0.19539233  0.84033393  1  0  -0.850884  0  2.173176  0  0  -0.797447  0  2.445035  0  0  -0.843272  0  2.434247  0  0  -0.460243  -0.778346  0  2.450583  0
O  O78  1  0.03631385  0.69536659  0.34027103  1  0  -0.85126  0  2.171721  0  0  -0.797935  0  2.443933  0  0  -0.843786  0  2.433109  0  0  -0.46114  -0.778854  0  2.44957  0
O  O79  1  0.50068944  0.80460974  0.15966558  1  0  -0.850882  0  2.173099  0  0  -0.79744  0  2.445024  0  0  -0.843262  0  2.434236  0  0  -0.460236  -0.778344  0  2.450576  0
O  O80  1  0.78930967  0.43055502  0.61779529  1  0  -0.65719  0  1.951984  0  0  -0.612894  0  2.187142  0  0  -0.644876  0  2.177989  0  0  -0.356858  -0.596197  0  2.192074  0
O  O81  1  0.24091768  0.06935731  0.88223636  1  0  -0.657127  0  1.951655  0  0  -0.612937  0  2.187106  0  0  -0.644929  0  2.177833  0  0  -0.357005  -0.596196  0  2.192039  0
O  O82  1  0.21068829  0.56944499  0.38220515  1  0  -0.657204  0  1.952018  0  0  -0.61287  0  2.18719  0  0  -0.644844  0  2.178028  0  0  -0.356854  -0.596175  0  2.192121  0
O  O83  1  0.75908028  0.93064271  0.11776409  1  0  -0.657162  0  1.951514  0  0  -0.612982  0  2.187025  0  0  -0.644972  0  2.177749  0  0  -0.357037  -0.596241  0  2.191958  0
O  O84  1  0.06521305  0.51221768  0.84434528  1  0  -0.917624  0  1.879355  0  0  -0.869412  0  2.065154  0  0  -0.897632  0  2.026978  0  0  -0.645564  -0.855545  0  2.087196  0
O  O85  1  0.20860052  0.98782293  0.65556577  1  0  -0.918886  0  1.878035  0  0  -0.870349  0  2.064633  0  0  -0.89874  0  2.026146  0  0  -0.646226  -0.856426  0  2.086755  0
O  O86  1  0.93478539  0.48777616  0.15565404  1  0  -0.917723  0  1.879247  0  0  -0.869506  0  2.065058  0  0  -0.897728  0  2.026878  0  0  -0.645625  -0.855613  0  2.087156  0
O  O87  1  0.79139906  0.01217606  0.34443398  1  0  -0.918927  0  1.878036  0  0  -0.870363  0  2.064641  0  0  -0.898753  0  2.026155  0  0  -0.646238  -0.856441  0  2.086762  0
