# generated using pymatgen
data_CdH14C12(NCl)2
_symmetry_space_group_name_H-M   'P 1'
_cell_length_a   3.88915769
_cell_length_b   11.27237510
_cell_length_c   14.68301590
_cell_angle_alpha   90.00006798
_cell_angle_beta   90.00008878
_cell_angle_gamma   88.17739317
_symmetry_Int_Tables_number   1
_chemical_formula_structural   CdH14C12(NCl)2
_chemical_formula_sum   'Cd2 H28 C24 N4 Cl4'
_cell_volume   643.37841072
_cell_formula_units_Z   2
loop_
 _symmetry_equiv_pos_site_id
 _symmetry_equiv_pos_as_xyz
  1  'x, y, z'
loop_
 _atom_site_type_symbol
 _atom_site_label
 _atom_site_symmetry_multiplicity
 _atom_site_fract_x
 _atom_site_fract_y
 _atom_site_fract_z
 _atom_site_occupancy
 _atom_site_hle17_bader_spin_density
 _atom_site_hle17_ddec_charge
 _atom_site_hle17_ddec_spin_density
 _atom_site_hle17_ddec_sum_bond_order
 _atom_site_hle17_magmom
 _atom_site_hse06_10hf_bader_spin_density
 _atom_site_hse06_10hf_ddec_charge
 _atom_site_hse06_10hf_ddec_spin_density
 _atom_site_hse06_10hf_ddec_sum_bond_order
 _atom_site_hse06_10hf_magmom
 _atom_site_hse06_bader_spin_density
 _atom_site_hse06_ddec_charge
 _atom_site_hse06_ddec_spin_density
 _atom_site_hse06_ddec_sum_bond_order
 _atom_site_hse06_magmom
 _atom_site_pbe_bader_spin_density
 _atom_site_pbe_cm5_charge
 _atom_site_pbe_ddec_charge
 _atom_site_pbe_ddec_spin_density
 _atom_site_pbe_ddec_sum_bond_order
 _atom_site_pbe_magmom
Cd  Cd0  1  0.99999766  0.00000079  0.99999912  1  0  0.93712  0  1.907619  0  0  0.767291  0  2.356266  0  0  0.81515  0  2.317843  0  0  0.595386  0.733559  0  2.382502  0
Cd  Cd1  1  0.00000123  0.50000083  0.49999968  1  0  0.937087  0  1.90761  0  0  0.767229  0  2.356276  0  0  0.815084  0  2.31786  0  0  0.595362  0.733497  0  2.382522  0
H  H2  1  0.74062096  0.90810674  0.80435369  1  0  0.074215  0  0.980077  0  0  0.081117  0  1.052964  0  0  0.083394  0  1.051145  0  0  0.100129  0.079409  0  1.054347  0
H  H3  1  0.25937382  0.59189282  0.30435468  1  0  0.074233  0  0.98006  0  0  0.081152  0  1.052936  0  0  0.08343  0  1.051116  0  0  0.10015  0.079444  0  1.054318  0
H  H4  1  0.25936346  0.09189510  0.19564519  1  0  0.07426  0  0.98003  0  0  0.081178  0  1.052896  0  0  0.083457  0  1.051074  0  0  0.100189  0.079475  0  1.054278  0
H  H5  1  0.74063628  0.40810601  0.69564624  1  0  0.074312  0  0.980003  0  0  0.081234  0  1.052856  0  0  0.083514  0  1.051035  0  0  0.10019  0.079529  0  1.054238  0
H  H6  1  0.02126231  0.15103982  0.59085280  1  0  0.099535  0  0.949862  0  0  0.109619  0  1.013538  0  0  0.11248  0  1.011286  0  0  0.098046  0.10744  0  1.015358  0
H  H7  1  0.97874965  0.34895919  0.09084954  1  0  0.099533  0  0.949754  0  0  0.109569  0  1.0135  0  0  0.11243  0  1.011245  0  0  0.098062  0.10739  0  1.015316  0
H  H8  1  0.97872979  0.84896015  0.40914744  1  0  0.099526  0  0.949807  0  0  0.109609  0  1.013504  0  0  0.112471  0  1.01125  0  0  0.098046  0.107432  0  1.015321  0
H  H9  1  0.02125792  0.65104235  0.90914934  1  0  0.099493  0  0.9497  0  0  0.10956  0  1.013427  0  0  0.11242  0  1.011172  0  0  0.098045  0.107386  0  1.015235  0
H  H10  1  0.27923208  0.27569336  0.70923458  1  0  0.097832  0  0.975274  0  0  0.105913  0  1.041844  0  0  0.108733  0  1.041197  0  0  0.096955  0.103865  0  1.042471  0
H  H11  1  0.72078308  0.22430314  0.20923042  1  0  0.09776  0  0.97537  0  0  0.105869  0  1.041887  0  0  0.108687  0  1.041255  0  0  0.096943  0.103821  0  1.042516  0
H  H12  1  0.72077028  0.72430470  0.29076498  1  0  0.097857  0  0.975226  0  0  0.105938  0  1.0418  0  0  0.108764  0  1.041148  0  0  0.096952  0.103892  0  1.042423  0
H  H13  1  0.27921931  0.77569669  0.79076914  1  0  0.097808  0  0.975328  0  0  0.105928  0  1.041842  0  0  0.108752  0  1.041196  0  0  0.096944  0.103884  0  1.04246  0
H  H14  1  0.25756251  0.20873771  0.87405763  1  0  0.069632  0  0.988681  0  0  0.07629  0  1.060351  0  0  0.078892  0  1.057801  0  0  0.098094  0.074371  0  1.0622  0
H  H15  1  0.74243559  0.29126017  0.37405354  1  0  0.069623  0  0.988611  0  0  0.076275  0  1.060289  0  0  0.078883  0  1.057724  0  0  0.098074  0.074359  0  1.062128  0
H  H16  1  0.74243981  0.79125857  0.12594125  1  0  0.069619  0  0.988674  0  0  0.076292  0  1.060307  0  0  0.07889  0  1.057775  0  0  0.098089  0.074371  0  1.062164  0
H  H17  1  0.25756174  0.70874416  0.62594261  1  0  0.069632  0  0.988515  0  0  0.076283  0  1.06017  0  0  0.078887  0  1.057618  0  0  0.098071  0.07436  0  1.06203  0
H  H18  1  0.91405359  0.89494781  0.57331876  1  0  0.110891  0  0.948669  0  0  0.133112  0  1.012235  0  0  0.133756  0  1.012314  0  0  0.09201  0.132554  0  1.012279  0
H  H19  1  0.08594763  0.60505307  0.07332105  1  0  0.110877  0  0.948629  0  0  0.133118  0  1.012168  0  0  0.133762  0  1.012245  0  0  0.092009  0.132558  0  1.012209  0
H  H20  1  0.08592562  0.10505055  0.42668148  1  0  0.110958  0  0.948621  0  0  0.133172  0  1.012186  0  0  0.133816  0  1.012266  0  0  0.092027  0.132617  0  1.012226  0
H  H21  1  0.91407027  0.39495010  0.92668192  1  0  0.110932  0  0.948608  0  0  0.133169  0  1.012146  0  0  0.133812  0  1.012225  0  0  0.092028  0.132616  0  1.01218  0
H  H22  1  0.53115628  0.98429246  0.57354756  1  0  0.106803  0  0.965838  0  0  0.130695  0  1.02571  0  0  0.13128  0  1.026359  0  0  0.091553  0.130217  0  1.025295  0
H  H23  1  0.46885275  0.51571276  0.07354788  1  0  0.106863  0  0.965727  0  0  0.130711  0  1.025657  0  0  0.131293  0  1.026304  0  0  0.091565  0.130231  0  1.025243  0
H  H24  1  0.46882553  0.01570764  0.42645268  1  0  0.106824  0  0.965876  0  0  0.130749  0  1.025697  0  0  0.131332  0  1.026348  0  0  0.09157  0.130269  0  1.025288  0
H  H25  1  0.53117288  0.48429120  0.92645304  1  0  0.106826  0  0.965864  0  0  0.130753  0  1.025681  0  0  0.131336  0  1.026331  0  0  0.091578  0.130275  0  1.025266  0
H  H26  1  0.57878615  0.86255492  0.64977504  1  0  0.10909  0  0.964476  0  0  0.131397  0  1.026185  0  0  0.132196  0  1.027039  0  0  0.091285  0.130772  0  1.025631  0
H  H27  1  0.42120777  0.63744530  0.14978022  1  0  0.109  0  0.964564  0  0  0.131318  0  1.026257  0  0  0.132122  0  1.027104  0  0  0.091252  0.130691  0  1.025704  0
H  H28  1  0.42120083  0.13744600  0.35022724  1  0  0.109139  0  0.964469  0  0  0.131419  0  1.026189  0  0  0.132223  0  1.027037  0  0  0.091283  0.130793  0  1.025642  0
H  H29  1  0.57879975  0.36255357  0.85022615  1  0  0.10913  0  0.964473  0  0  0.131413  0  1.026191  0  0  0.132217  0  1.027039  0  0  0.091281  0.130789  0  1.02564  0
C  C30  1  0.86082082  0.98819200  0.77964425  1  0  0.057605  0  3.686917  0  0  0.019976  0  3.933019  0  0  0.025832  0  3.952234  0  0  0.035685  0.016332  0  3.919851  0
C  C31  1  0.13917893  0.51180568  0.27964444  1  0  0.057629  0  3.687025  0  0  0.019987  0  3.933134  0  0  0.025838  0  3.952365  0  0  0.035647  0.016339  0  3.919986  0
C  C32  1  0.13916612  0.01180714  0.22035327  1  0  0.057545  0  3.686841  0  0  0.019885  0  3.933035  0  0  0.025742  0  3.952252  0  0  0.035601  0.016229  0  3.919888  0
C  C33  1  0.86083895  0.48819660  0.72035240  1  0  0.057357  0  3.686991  0  0  0.019667  0  3.933232  0  0  0.025521  0  3.952455  0  0  0.035542  0.016024  0  3.920077  0
C  C34  1  0.86512728  0.01612073  0.68691288  1  0  0.091661  0  3.753881  0  0  0.126598  0  3.982809  0  0  0.122446  0  4.008892  0  0  -0.006087  0.129073  0  3.965198  0
C  C35  1  0.13488268  0.48387935  0.18691347  1  0  0.091518  0  3.753948  0  0  0.126415  0  3.982918  0  0  0.122263  0  4.008998  0  0  -0.006078  0.128892  0  3.965302  0
C  C36  1  0.13486479  0.98387746  0.31308736  1  0  0.091669  0  3.753944  0  0  0.12658  0  3.982932  0  0  0.122428  0  4.009018  0  0  -0.006026  0.129059  0  3.965324  0
C  C37  1  0.86513002  0.51612123  0.81308949  1  0  0.09165  0  3.753764  0  0  0.126547  0  3.982762  0  0  0.122394  0  4.008846  0  0  -0.006036  0.129019  0  3.965157  0
C  C38  1  0.01555578  0.12254057  0.66185387  1  0  -0.057458  0  3.681148  0  0  -0.081757  0  3.921712  0  0  -0.079673  0  3.940504  0  0  -0.068603  -0.082814  0  3.908971  0
C  C39  1  0.98444621  0.37745425  0.16185268  1  0  -0.057258  0  3.681239  0  0  -0.081489  0  3.921784  0  0  -0.0794  0  3.940571  0  0  -0.068553  -0.082542  0  3.909034  0
C  C40  1  0.98444148  0.87746021  0.33814433  1  0  -0.057473  0  3.681304  0  0  -0.081774  0  3.92188  0  0  -0.079692  0  3.940678  0  0  -0.068668  -0.082832  0  3.909137  0
C  C41  1  0.01556129  0.62254374  0.83814348  1  0  -0.057271  0  3.681377  0  0  -0.081546  0  3.921959  0  0  -0.07946  0  3.940755  0  0  -0.068596  -0.082601  0  3.909204  0
C  C42  1  0.15746900  0.19379064  0.72850781  1  0  -0.117513  0  3.760855  0  0  -0.127793  0  4.012752  0  0  -0.134726  0  4.035658  0  0  -0.088527  -0.123372  0  3.997421  0
C  C43  1  0.84254116  0.30620773  0.22850241  1  0  -0.117504  0  3.761308  0  0  -0.127819  0  4.013199  0  0  -0.134761  0  4.036111  0  0  -0.088528  -0.123398  0  3.997866  0
C  C44  1  0.84252823  0.80620837  0.27149107  1  0  -0.117532  0  3.760949  0  0  -0.127818  0  4.012826  0  0  -0.134753  0  4.035734  0  0  -0.088483  -0.123396  0  3.997488  0
C  C45  1  0.15746380  0.69379207  0.77149715  1  0  -0.117606  0  3.761307  0  0  -0.127943  0  4.013205  0  0  -0.134883  0  4.036117  0  0  -0.088546  -0.123518  0  3.997862  0
C  C46  1  0.14444966  0.15802676  0.81908319  1  0  0.111127  0  3.723111  0  0  0.077496  0  3.975882  0  0  0.083697  0  3.995722  0  0  0.032957  0.073535  0  3.96241  0
C  C47  1  0.85555585  0.34197093  0.31907919  1  0  0.111112  0  3.722949  0  0  0.077513  0  3.975668  0  0  0.083717  0  3.995507  0  0  0.032929  0.073557  0  3.962201  0
C  C48  1  0.85555531  0.84197304  0.18091637  1  0  0.111135  0  3.72331  0  0  0.077534  0  3.976017  0  0  0.083732  0  3.995854  0  0  0.032999  0.073579  0  3.962533  0
C  C49  1  0.14443874  0.65802457  0.68092037  1  0  0.11107  0  3.723134  0  0  0.077519  0  3.975797  0  0  0.083718  0  3.995639  0  0  0.033003  0.073559  0  3.962324  0
C  C50  1  0.71413886  0.93521898  0.61756987  1  0  -0.333487  0  3.734936  0  0  -0.419621  0  3.967986  0  0  -0.421193  0  3.979988  0  0  -0.238754  -0.418185  0  3.959769  0
C  C51  1  0.28586770  0.56477925  0.11757220  1  0  -0.333394  0  3.734852  0  0  -0.419504  0  3.967942  0  0  -0.421077  0  3.979943  0  0  -0.238711  -0.418069  0  3.95972  0
C  C52  1  0.28585324  0.06478099  0.38243038  1  0  -0.333619  0  3.735018  0  0  -0.419727  0  3.968087  0  0  -0.421299  0  3.980078  0  0  -0.238791  -0.418296  0  3.959882  0
C  C53  1  0.71414497  0.43521956  0.88243008  1  0  -0.333591  0  3.734991  0  0  -0.419703  0  3.968062  0  0  -0.421277  0  3.980059  0  0  -0.238789  -0.418274  0  3.959845  0
N  N54  1  0.99707980  0.05694604  0.84423278  1  0  -0.320968  0  3.307185  0  0  -0.240526  0  3.568757  0  0  -0.261278  0  3.59192  0  0  -0.331641  -0.226358  0  3.552534  0
N  N55  1  0.00291817  0.44305356  0.34423193  1  0  -0.321047  0  3.30712  0  0  -0.240601  0  3.568707  0  0  -0.261349  0  3.591855  0  0  -0.331656  -0.226439  0  3.552493  0
N  N56  1  0.00291484  0.94305212  0.15576746  1  0  -0.320947  0  3.307369  0  0  -0.240513  0  3.568951  0  0  -0.261259  0  3.592102  0  0  -0.331689  -0.226344  0  3.552732  0
N  N57  1  0.99708682  0.55694712  0.65576968  1  0  -0.320776  0  3.307587  0  0  -0.240311  0  3.569091  0  0  -0.261053  0  3.592238  0  0  -0.331602  -0.226152  0  3.552883  0
Cl  Cl58  1  0.48415429  0.15936350  0.03371804  1  0  -0.567514  0  0.942689  0  0  -0.506164  0  1.219294  0  0  -0.523418  0  1.199591  0  0  -0.300794  -0.493625  0  1.232948  0
Cl  Cl59  1  0.51583938  0.34063743  0.53371758  1  0  -0.567522  0  0.942677  0  0  -0.506165  0  1.219279  0  0  -0.523422  0  1.199575  0  0  -0.300793  -0.49362  0  1.232934  0
Cl  Cl60  1  0.51584041  0.84063732  0.96628152  1  0  -0.567512  0  0.942683  0  0  -0.506169  0  1.219297  0  0  -0.523422  0  1.199594  0  0  -0.300793  -0.493633  0  1.232948  0
Cl  Cl61  1  0.48416049  0.65936509  0.46628334  1  0  -0.567499  0  0.942678  0  0  -0.506144  0  1.219289  0  0  -0.5234  0  1.199587  0  0  -0.300785  -0.493596  0  1.232946  0
