# generated using pymatgen
data_PrH4(C3O4)2
_symmetry_space_group_name_H-M   'P 1'
_cell_length_a   6.99639788
_cell_length_b   7.10611574
_cell_length_c   16.87683210
_cell_angle_alpha   89.99985971
_cell_angle_beta   90.00019981
_cell_angle_gamma   100.78521017
_symmetry_Int_Tables_number   1
_chemical_formula_structural   PrH4(C3O4)2
_chemical_formula_sum   'Pr4 H16 C24 O32'
_cell_volume   824.24739603
_cell_formula_units_Z   4
loop_
 _symmetry_equiv_pos_site_id
 _symmetry_equiv_pos_as_xyz
  1  'x, y, z'
loop_
 _atom_site_type_symbol
 _atom_site_label
 _atom_site_symmetry_multiplicity
 _atom_site_fract_x
 _atom_site_fract_y
 _atom_site_fract_z
 _atom_site_occupancy
 _atom_site_hle17_bader_spin_density
 _atom_site_hle17_ddec_charge
 _atom_site_hle17_ddec_spin_density
 _atom_site_hle17_ddec_sum_bond_order
 _atom_site_hle17_magmom
 _atom_site_hse06_10hf_bader_spin_density
 _atom_site_hse06_10hf_ddec_charge
 _atom_site_hse06_10hf_ddec_spin_density
 _atom_site_hse06_10hf_ddec_sum_bond_order
 _atom_site_hse06_10hf_magmom
 _atom_site_hse06_bader_spin_density
 _atom_site_hse06_ddec_charge
 _atom_site_hse06_ddec_spin_density
 _atom_site_hse06_ddec_sum_bond_order
 _atom_site_hse06_magmom
 _atom_site_pbe_bader_spin_density
 _atom_site_pbe_cm5_charge
 _atom_site_pbe_ddec_charge
 _atom_site_pbe_ddec_spin_density
 _atom_site_pbe_ddec_sum_bond_order
 _atom_site_pbe_magmom
Pr  Pr0  1  0.50894728  0.75801269  0.58037015  1  0  2.303673  0  1.551039  0  0  2.188088  0  1.909143  0  0  2.224317  0  1.87086  0  0  1.479423  2.101391  0  2.045619  0
Pr  Pr1  1  0.99105347  0.24198558  0.08036994  1  0  2.303689  0  1.551112  0  0  2.188084  0  1.909221  0  0  2.224315  0  1.870937  0  0  1.479403  2.101354  0  2.045751  0
Pr  Pr2  1  0.49105149  0.24198719  0.41963112  1  0  2.303684  0  1.551021  0  0  2.188087  0  1.909125  0  0  2.224316  0  1.870842  0  0  1.47942  2.101379  0  2.045612  0
Pr  Pr3  1  0.00894558  0.75801573  0.91963073  1  0  2.303675  0  1.551119  0  0  2.18807  0  1.909228  0  0  2.224301  0  1.870943  0  0  1.4794  2.101325  0  2.045782  0
H  H4  1  0.84761151  0.09487413  0.61827240  1  0  0.428283  0  0.874483  0  0  0.394305  0  0.943034  0  0  0.405404  0  0.927139  0  0  0.295052  0.386436  0  0.954102  0
H  H5  1  0.65239152  0.90512683  0.11827220  1  0  0.428275  0  0.874505  0  0  0.39429  0  0.943067  0  0  0.405391  0  0.927169  0  0  0.295029  0.38642  0  0.954137  0
H  H6  1  0.15238897  0.90512717  0.38172768  1  0  0.428292  0  0.87447  0  0  0.394322  0  0.943007  0  0  0.405421  0  0.927113  0  0  0.295063  0.386454  0  0.954075  0
H  H7  1  0.34760869  0.09487304  0.88172788  1  0  0.42828  0  0.874495  0  0  0.394294  0  0.94306  0  0  0.405396  0  0.927161  0  0  0.295043  0.386423  0  0.954132  0
H  H8  1  0.77477258  0.51309592  0.67894407  1  0  0.436573  0  0.855703  0  0  0.405442  0  0.919111  0  0  0.415984  0  0.903728  0  0  0.300993  0.397606  0  0.930485  0
H  H9  1  0.72522948  0.48690478  0.17894440  1  0  0.436556  0  0.855728  0  0  0.405399  0  0.919156  0  0  0.415942  0  0.903774  0  0  0.300973  0.397566  0  0.930522  0
H  H10  1  0.22522790  0.48690538  0.32105602  1  0  0.436523  0  0.855777  0  0  0.405372  0  0.919197  0  0  0.415913  0  0.903818  0  0  0.300965  0.397539  0  0.930563  0
H  H11  1  0.27477072  0.51309509  0.82105568  1  0  0.436561  0  0.855721  0  0  0.405406  0  0.919146  0  0  0.41595  0  0.903763  0  0  0.300978  0.39757  0  0.930517  0
H  H12  1  0.81205180  0.72402537  0.71555038  1  0  0.446472  0  0.842943  0  0  0.41682  0  0.904133  0  0  0.427745  0  0.887834  0  0  0.307747  0.408973  0  0.91562  0
H  H13  1  0.68794796  0.27597661  0.21555029  1  0  0.446458  0  0.842971  0  0  0.416803  0  0.904164  0  0  0.427727  0  0.887866  0  0  0.307738  0.408955  0  0.915652  0
H  H14  1  0.18795011  0.27597592  0.28444970  1  0  0.446484  0  0.842935  0  0  0.416828  0  0.904129  0  0  0.427752  0  0.88783  0  0  0.307735  0.408979  0  0.915617  0
H  H15  1  0.31205110  0.72402470  0.78444980  1  0  0.446472  0  0.842947  0  0  0.416826  0  0.904127  0  0  0.42775  0  0.88783  0  0  0.307741  0.408978  0  0.915616  0
H  H16  1  0.94938474  0.92054844  0.58749080  1  0  0.438456  0  0.850343  0  0  0.411874  0  0.90615  0  0  0.42228  0  0.890965  0  0  0.303141  0.404078  0  0.917459  0
H  H17  1  0.55061464  0.07944981  0.08748953  1  0  0.438461  0  0.850347  0  0  0.411879  0  0.906152  0  0  0.422285  0  0.890967  0  0  0.303151  0.40408  0  0.917465  0
H  H18  1  0.05061546  0.07945143  0.41250988  1  0  0.438456  0  0.850348  0  0  0.411878  0  0.906149  0  0  0.422284  0  0.890964  0  0  0.303158  0.404082  0  0.917458  0
H  H19  1  0.44938413  0.92055007  0.91251174  1  0  0.438488  0  0.850305  0  0  0.411906  0  0.90611  0  0  0.422312  0  0.890926  0  0  0.303165  0.404106  0  0.917425  0
C  C20  1  0.40663840  0.16757809  0.62941217  1  0  0.204795  0  3.879954  0  0  0.182461  0  4.167024  0  0  0.194874  0  4.176817  0  0  0.107212  0.174852  0  4.152266  0
C  C21  1  0.09336365  0.83241891  0.12941551  1  0  0.204887  0  3.879971  0  0  0.182677  0  4.166908  0  0  0.195094  0  4.176691  0  0  0.107271  0.175061  0  4.15215  0
C  C22  1  0.59336323  0.83242177  0.37058673  1  0  0.204779  0  3.880007  0  0  0.182515  0  4.166998  0  0  0.194929  0  4.176789  0  0  0.107224  0.174902  0  4.152239  0
C  C23  1  0.90663683  0.16758239  0.87058457  1  0  0.204801  0  3.880049  0  0  0.182584  0  4.166978  0  0  0.195001  0  4.176761  0  0  0.107245  0.174972  0  4.152222  0
C  C24  1  0.35256570  0.33120408  0.67097850  1  0  0.242543  0  3.843232  0  0  0.222582  0  4.12506  0  0  0.236643  0  4.134238  0  0  0.123598  0.212966  0  4.115766  0
C  C25  1  0.14743715  0.66880993  0.17097912  1  0  0.242503  0  3.843064  0  0  0.222457  0  4.124965  0  0  0.23652  0  4.13414  0  0  0.123502  0.212844  0  4.115661  0
C  C26  1  0.64743676  0.66880008  0.32902100  1  0  0.242535  0  3.843295  0  0  0.222529  0  4.125163  0  0  0.23659  0  4.134342  0  0  0.123584  0.212916  0  4.115858  0
C  C27  1  0.85256591  0.33118992  0.82902155  1  0  0.242516  0  3.843048  0  0  0.222492  0  4.124924  0  0  0.236555  0  4.134099  0  0  0.123477  0.212879  0  4.115623  0
C  C28  1  0.35518498  0.22719153  0.74726538  1  0  0.214859  0  3.81662  0  0  0.189109  0  4.096569  0  0  0.202225  0  4.108625  0  0  0.118103  0.179465  0  4.089867  0
C  C29  1  0.14481793  0.77281211  0.24726471  1  0  0.214972  0  3.816261  0  0  0.189205  0  4.096284  0  0  0.20232  0  4.108336  0  0  0.118164  0.179561  0  4.089584  0
C  C30  1  0.64481606  0.77281263  0.25273470  1  0  0.214867  0  3.816575  0  0  0.189093  0  4.096583  0  0  0.202206  0  4.108641  0  0  0.118128  0.17945  0  4.089878  0
C  C31  1  0.85518398  0.22718918  0.75273596  1  0  0.214954  0  3.816315  0  0  0.189169  0  4.096347  0  0  0.202285  0  4.108397  0  0  0.118146  0.179524  0  4.089653  0
C  C32  1  0.05301972  0.62362423  0.53284794  1  0  0.213958  0  3.870015  0  0  0.190308  0  4.152518  0  0  0.20377  0  4.161834  0  0  0.118319  0.181664  0  4.142005  0
C  C33  1  0.44697906  0.37636746  0.03284753  1  0  0.213969  0  3.870081  0  0  0.190337  0  4.152547  0  0  0.203795  0  4.161871  0  0  0.11833  0.181695  0  4.142023  0
C  C34  1  0.94698048  0.37637563  0.46715096  1  0  0.214001  0  3.87004  0  0  0.19036  0  4.152528  0  0  0.203822  0  4.161842  0  0  0.118333  0.181718  0  4.142012  0
C  C35  1  0.55301658  0.62363099  0.96715137  1  0  0.214006  0  3.87012  0  0  0.190353  0  4.152614  0  0  0.203812  0  4.161938  0  0  0.118351  0.18171  0  4.142091  0
C  C36  1  0.86036788  0.51866387  0.50950178  1  0  0.232299  0  3.853636  0  0  0.211488  0  4.134288  0  0  0.225007  0  4.142861  0  0  0.121712  0.202688  0  4.121118  0
C  C37  1  0.63964119  0.48133610  0.00950378  1  0  0.232364  0  3.853895  0  0  0.211563  0  4.134531  0  0  0.225082  0  4.143107  0  0  0.121796  0.202763  0  4.12135  0
C  C38  1  0.13963403  0.48133742  0.49049593  1  0  0.232246  0  3.853657  0  0  0.211473  0  4.134252  0  0  0.224992  0  4.142825  0  0  0.121711  0.202673  0  4.121082  0
C  C39  1  0.36035901  0.51866377  0.99049631  1  0  0.232304  0  3.853927  0  0  0.21153  0  4.134521  0  0  0.225047  0  4.143101  0  0  0.121784  0.202733  0  4.121343  0
C  C40  1  0.40282341  0.06216493  0.70315592  1  0  0.182641  0  3.904855  0  0  0.15771  0  4.194523  0  0  0.169709  0  4.20644  0  0  0.099577  0.150436  0  4.181443  0
C  C41  1  0.09717836  0.93782744  0.20315560  1  0  0.18267  0  3.90475  0  0  0.157686  0  4.194401  0  0  0.16969  0  4.206308  0  0  0.099563  0.150408  0  4.181324  0
C  C42  1  0.59717509  0.93783351  0.29684416  1  0  0.182704  0  3.904846  0  0  0.157735  0  4.194513  0  0  0.169737  0  4.206428  0  0  0.09957  0.150459  0  4.181431  0
C  C43  1  0.90282240  0.06217529  0.79684507  1  0  0.182736  0  3.904643  0  0  0.157761  0  4.19429  0  0  0.169766  0  4.206195  0  0  0.09961  0.150482  0  4.181218  0
O  O44  1  0.83100568  0.97814113  0.58376072  1  0  -0.915094  0  1.847893  0  0  -0.87069  0  2.034066  0  0  -0.888442  0  2.002433  0  0  -0.645984  -0.850555  0  2.060148  0
O  O45  1  0.66899566  0.02185999  0.08376027  1  0  -0.915076  0  1.847885  0  0  -0.870677  0  2.034085  0  0  -0.888431  0  2.00245  0  0  -0.64598  -0.850539  0  2.060172  0
O  O46  1  0.16899480  0.02186017  0.41623877  1  0  -0.9151  0  1.847879  0  0  -0.870701  0  2.034054  0  0  -0.888453  0  2.002421  0  0  -0.646015  -0.850566  0  2.060137  0
O  O47  1  0.33100339  0.97814132  0.91624041  1  0  -0.915096  0  1.847831  0  0  -0.870699  0  2.034027  0  0  -0.888452  0  2.00239  0  0  -0.646002  -0.850558  0  2.060118  0
O  O48  1  0.13272689  0.77042966  0.57079580  1  0  -0.550549  0  2.08994  0  0  -0.505174  0  2.318788  0  0  -0.525243  0  2.314559  0  0  -0.312322  -0.485354  0  2.321611  0
O  O49  1  0.36727128  0.22957191  0.07079424  1  0  -0.550604  0  2.090221  0  0  -0.50524  0  2.319056  0  0  -0.525312  0  2.31484  0  0  -0.31239  -0.485414  0  2.321875  0
O  O50  1  0.86727332  0.22957021  0.42920428  1  0  -0.550569  0  2.089955  0  0  -0.5052  0  2.318795  0  0  -0.525274  0  2.314574  0  0  -0.312328  -0.485377  0  2.321615  0
O  O51  1  0.63272607  0.77042797  0.92920644  1  0  -0.550611  0  2.090272  0  0  -0.505239  0  2.319132  0  0  -0.525305  0  2.314898  0  0  -0.312387  -0.485412  0  2.321953  0
O  O52  1  0.68136540  0.52480638  0.51659184  1  0  -0.651414  0  2.237419  0  0  -0.604894  0  2.493565  0  0  -0.624829  0  2.487708  0  0  -0.392861  -0.57862  0  2.495942  0
O  O53  1  0.81862687  0.47519507  0.01658995  1  0  -0.651474  0  2.238013  0  0  -0.604939  0  2.494108  0  0  -0.624869  0  2.488248  0  0  -0.392897  -0.578675  0  2.496519  0
O  O54  1  0.31863425  0.47519063  0.48340824  1  0  -0.651414  0  2.237473  0  0  -0.604899  0  2.49359  0  0  -0.624833  0  2.487731  0  0  -0.392872  -0.578624  0  2.495966  0
O  O55  1  0.18136905  0.52480481  0.98341013  1  0  -0.65151  0  2.237967  0  0  -0.604988  0  2.494063  0  0  -0.624921  0  2.488204  0  0  -0.392936  -0.5787  0  2.496423  0
O  O56  1  0.32279911  0.49491471  0.65414288  1  0  -0.581493  0  2.176966  0  0  -0.540593  0  2.425725  0  0  -0.560744  0  2.421929  0  0  -0.382324  -0.519485  0  2.4295  0
O  O57  1  0.17720832  0.50507211  0.15414195  1  0  -0.581546  0  2.176507  0  0  -0.540652  0  2.42535  0  0  -0.56081  0  2.421556  0  0  -0.382296  -0.519537  0  2.429119  0
O  O58  1  0.67720367  0.50508371  0.34585661  1  0  -0.581497  0  2.176868  0  0  -0.540582  0  2.425642  0  0  -0.560733  0  2.421846  0  0  -0.382324  -0.519475  0  2.429413  0
O  O59  1  0.82279188  0.49492775  0.84585814  1  0  -0.581525  0  2.176473  0  0  -0.540633  0  2.425301  0  0  -0.560793  0  2.421508  0  0  -0.382269  -0.519514  0  2.429073  0
O  O60  1  0.33606381  0.27394526  0.81823542  1  0  -0.482808  0  2.085577  0  0  -0.423248  0  2.292942  0  0  -0.446609  0  2.29326  0  0  -0.265969  -0.407568  0  2.293702  0
O  O61  1  0.16393852  0.72605234  0.31823956  1  0  -0.482797  0  2.085123  0  0  -0.423228  0  2.292465  0  0  -0.446581  0  2.292778  0  0  -0.265971  -0.407564  0  2.293238  0
O  O62  1  0.66393782  0.72605461  0.18176289  1  0  -0.482811  0  2.085477  0  0  -0.423226  0  2.292818  0  0  -0.446583  0  2.293132  0  0  -0.265969  -0.407555  0  2.293583  0
O  O63  1  0.83606625  0.27394894  0.68176111  1  0  -0.482815  0  2.085176  0  0  -0.42323  0  2.292533  0  0  -0.446586  0  2.292842  0  0  -0.265971  -0.407561  0  2.293306  0
O  O64  1  0.73594155  0.63995891  0.67556834  1  0  -0.927394  0  1.886282  0  0  -0.882293  0  2.075431  0  0  -0.899603  0  2.043366  0  0  -0.6461  -0.863241  0  2.102153  0
O  O65  1  0.76405878  0.36004038  0.17556886  1  0  -0.927331  0  1.886266  0  0  -0.882207  0  2.075524  0  0  -0.899522  0  2.043449  0  0  -0.646065  -0.863155  0  2.102246  0
O  O66  1  0.26406036  0.36004239  0.32443115  1  0  -0.927338  0  1.88629  0  0  -0.882219  0  2.075554  0  0  -0.899533  0  2.04348  0  0  -0.646058  -0.863169  0  2.102272  0
O  O67  1  0.23594000  0.63995950  0.82443181  1  0  -0.927369  0  1.886257  0  0  -0.882229  0  2.075473  0  0  -0.899543  0  2.043398  0  0  -0.646069  -0.863175  0  2.102198  0
O  O68  1  0.45332198  0.11711051  0.56047986  1  0  -0.672257  0  2.174371  0  0  -0.629325  0  2.439073  0  0  -0.649033  0  2.432661  0  0  -0.392158  -0.601737  0  2.44189  0
O  O69  1  0.04667868  0.88288966  0.06047775  1  0  -0.672332  0  2.174153  0  0  -0.629422  0  2.438761  0  0  -0.649133  0  2.432346  0  0  -0.392215  -0.601826  0  2.441582  0
O  O70  1  0.54667965  0.88288935  0.43952081  1  0  -0.672285  0  2.174284  0  0  -0.629388  0  2.438992  0  0  -0.649099  0  2.432581  0  0  -0.39218  -0.601801  0  2.44181  0
O  O71  1  0.95332009  0.11711021  0.93952352  1  0  -0.672314  0  2.174207  0  0  -0.62941  0  2.438819  0  0  -0.649123  0  2.432405  0  0  -0.3922  -0.601811  0  2.441639  0
O  O72  1  0.44183101  0.89717077  0.71531657  1  0  -0.563536  0  2.093598  0  0  -0.513991  0  2.326666  0  0  -0.533478  0  2.321228  0  0  -0.337163  -0.494  0  2.329831  0
O  O73  1  0.05816935  0.10283589  0.21531646  1  0  -0.563598  0  2.093355  0  0  -0.513976  0  2.32638  0  0  -0.533464  0  2.320936  0  0  -0.337101  -0.493981  0  2.329542  0
O  O74  1  0.55816832  0.10283197  0.28468411  1  0  -0.563579  0  2.093531  0  0  -0.513979  0  2.326585  0  0  -0.533457  0  2.321122  0  0  -0.337145  -0.493985  0  2.329744  0
O  O75  1  0.94183255  0.89716540  0.78468362  1  0  -0.563588  0  2.093231  0  0  -0.51398  0  2.326257  0  0  -0.533468  0  2.320811  0  0  -0.337111  -0.493981  0  2.329422  0
