# generated using pymatgen
data_CoH13C17S3(NO)5
_symmetry_space_group_name_H-M   'P 1'
_cell_length_a   9.49887474
_cell_length_b   10.24077489
_cell_length_c   11.01415402
_cell_angle_alpha   101.27656658
_cell_angle_beta   96.87787718
_cell_angle_gamma   105.29623503
_symmetry_Int_Tables_number   1
_chemical_formula_structural   CoH13C17S3(NO)5
_chemical_formula_sum   'Co2 H26 C34 S6 N10 O10'
_cell_volume   996.74074777
_cell_formula_units_Z   2
loop_
 _symmetry_equiv_pos_site_id
 _symmetry_equiv_pos_as_xyz
  1  'x, y, z'
loop_
 _atom_site_type_symbol
 _atom_site_label
 _atom_site_symmetry_multiplicity
 _atom_site_fract_x
 _atom_site_fract_y
 _atom_site_fract_z
 _atom_site_occupancy
 _atom_site_hle17_ddec_charge
 _atom_site_hle17_ddec_spin_density
 _atom_site_hle17_ddec_sum_bond_order
 _atom_site_hle17_magmom
 _atom_site_hse06_10hf_ddec_charge
 _atom_site_hse06_10hf_ddec_spin_density
 _atom_site_hse06_10hf_ddec_sum_bond_order
 _atom_site_hse06_10hf_magmom
 _atom_site_hse06_ddec_charge
 _atom_site_hse06_ddec_spin_density
 _atom_site_hse06_ddec_sum_bond_order
 _atom_site_hse06_magmom
 _atom_site_pbe_cm5_charge
 _atom_site_pbe_ddec_charge
 _atom_site_pbe_ddec_spin_density
 _atom_site_pbe_ddec_sum_bond_order
 _atom_site_pbe_magmom
Co  Co0  1  0.92183889  0.10135993  0.14993868  1  0.97176  -2.882994  2.01796  -2.58  0.94012  -2.860428  2.423593  -2.645  1.016345  -2.896353  2.353497  -2.72  0.667581  0.86954  -2.82612  2.491123  -2.571
Co  Co1  1  0.07815614  0.89864594  0.85005788  1  0.971898  -2.883038  2.0179  -2.58  0.940212  -2.860422  2.423573  -2.645  1.016433  -2.896345  2.353477  -2.72  0.667598  0.869592  -2.826151  2.491139  -2.571
H  H2  1  0.54322128  0.92824658  0.82928679  1  0.143553  0.000494  0.916024  0.001  0.152993  -2.3e-05  0.975826  0.0  0.156545  4e-06  0.973343  0.0  0.109451  0.150099  5.1e-05  0.978541  0.0
H  H3  1  0.45677483  0.07174982  0.17071358  1  0.143601  0.000495  0.915997  0.001  0.153025  -2.3e-05  0.975814  0.0  0.156582  4e-06  0.97333  0.0  0.109457  0.150131  5.2e-05  0.978532  0.0
H  H4  1  0.58428871  0.76596536  0.80484810  1  0.145005  0.000512  0.952852  0.001  0.155199  -5.1e-05  1.014183  0.0  0.159132  -4.7e-05  1.011287  0.0  0.109297  0.152598  0.000105  1.01612  0.0
H  H5  1  0.41571514  0.23402875  0.19515623  1  0.145003  0.000511  0.952915  0.001  0.155196  -5.1e-05  1.014248  0.0  0.159145  -4.7e-05  1.011338  0.0  0.109301  0.152592  0.000105  1.016188  0.0
H  H6  1  0.42245947  0.69919252  0.13148588  1  0.306533  3.2e-05  0.869422  0.0  0.293353  3.1e-05  0.926176  0.0  0.300113  1.5e-05  0.920974  0.0  0.328354  0.288513  9e-06  0.93  0.0
H  H7  1  0.57754464  0.30079319  0.86850785  1  0.306481  3.2e-05  0.869491  0.0  0.2933  3.1e-05  0.926231  0.0  0.300058  1.4e-05  0.921046  0.0  0.328363  0.28847  9e-06  0.930044  0.0
H  H8  1  0.81310770  0.47428581  0.36093245  1  0.132575  0.000596  0.928271  0.0  0.147717  0.000478  0.986434  0.0  0.149799  0.000352  0.985521  0.0  0.11042  0.14693  0.000448  0.986237  0.0
H  H9  1  0.18688873  0.52571478  0.63906418  1  0.13252  0.000595  0.928252  0.0  0.147714  0.000479  0.986394  0.0  0.149799  0.000353  0.985476  0.0  0.110427  0.146922  0.000448  0.9862  0.0
H  H10  1  0.65631350  0.33926621  0.36810267  1  0.13316  -0.000105  0.950279  0.0  0.141699  -0.000283  1.01721  0.0  0.143826  -0.0002  1.016242  0.0  0.102248  0.140555  -0.000323  1.017301  0.0
H  H11  1  0.34368503  0.66073119  0.63189266  1  0.133129  -0.000105  0.950271  0.0  0.141687  -0.000283  1.01722  0.0  0.143813  -0.0002  1.016255  0.0  0.102239  0.140541  -0.000323  1.017311  0.0
H  H12  1  0.88755912  0.22570746  0.91654519  1  0.090963  -0.000205  0.962902  -0.001  0.093291  -9.6e-05  1.034978  -0.001  0.096784  -4.1e-05  1.030863  -0.001  0.118554  0.090291  -0.000139  1.038411  -0.001
H  H13  1  0.11242814  0.77429125  0.08344476  1  0.0909  -0.000203  0.963044  -0.001  0.093208  -9.6e-05  1.035152  -0.001  0.096696  -4.1e-05  1.031049  -0.001  0.118565  0.090209  -0.00014  1.038586  -0.001
H  H14  1  0.04293914  0.40697806  0.82814263  1  0.109227  -4.2e-05  0.944239  0.0  0.118169  -0.000271  1.004468  0.0  0.121313  -0.00019  1.004535  0.0  0.106498  0.115747  -0.00032  1.004721  0.0
H  H15  1  0.95706600  0.59303283  0.17184676  1  0.109207  -4.5e-05  0.944257  0.0  0.118061  -0.000271  1.004581  0.0  0.121199  -0.00019  1.004659  0.0  0.106458  0.115648  -0.00032  1.004841  0.0
H  H16  1  0.29491924  0.55021302  0.94874925  1  0.106825  -0.000151  0.925599  -0.001  0.121115  0.000128  0.979707  0.0  0.124952  8.7e-05  0.976162  0.0  0.112384  0.11772  0.000214  0.983125  0.0
H  H17  1  0.70508843  0.44977680  0.05125103  1  0.106893  -0.000151  0.925464  -0.001  0.121152  0.000127  0.979634  0.0  0.125034  8.6e-05  0.97603  0.0  0.112419  0.117792  0.000214  0.98301  0.0
H  H18  1  0.20407569  0.32851411  0.24083330  1  0.092303  -0.000414  0.943435  -0.001  0.095312  -0.000315  1.01494  -0.001  0.099026  -0.000233  1.011136  -0.001  0.119135  0.092597  -0.000442  1.017488  -0.001
H  H19  1  0.79590665  0.67147316  0.75915496  1  0.092254  -0.000416  0.943447  -0.001  0.0953  -0.000315  1.01494  -0.001  0.099011  -0.000233  1.011141  -0.001  0.119107  0.092585  -0.000442  1.01748  -0.001
H  H20  1  0.66683949  0.62818997  0.38151832  1  0.121058  -9.4e-05  0.95802  -0.001  0.130518  0.000155  1.015491  0.0  0.134491  0.000107  1.011909  0.0  0.109739  0.127526  0.000172  1.018241  0.0
H  H21  1  0.33316721  0.37180932  0.61849088  1  0.121045  -9.4e-05  0.95802  -0.001  0.130497  0.000155  1.015492  0.0  0.134468  0.000107  1.011912  0.0  0.109715  0.127507  0.000172  1.018243  0.0
H  H22  1  0.92495858  0.78807446  0.46601426  1  0.117039  -0.000153  0.968436  0.0  0.122029  -0.000269  1.037785  0.0  0.126303  -0.000167  1.035577  0.0  0.101791  0.118643  -0.000436  1.039803  0.0
H  H23  1  0.07504916  0.21193426  0.53399314  1  0.117006  -0.000153  0.968507  0.0  0.122099  -0.00027  1.037743  0.0  0.126385  -0.000167  1.03554  0.0  0.101805  0.118724  -0.000436  1.039735  0.0
H  H24  1  0.02303509  0.98390222  0.36202811  1  0.086123  -0.000261  0.957257  -0.001  0.090305  -8.8e-05  1.028992  -0.001  0.093161  -2e-06  1.026503  -0.001  0.110603  0.088041  -0.000195  1.030882  -0.001
H  H25  1  0.97696492  0.01610564  0.63797656  1  0.086149  -0.000261  0.957186  -0.001  0.090303  -8.8e-05  1.028967  -0.001  0.093177  -2e-06  1.026459  -0.001  0.110629  0.088038  -0.000196  1.030855  -0.001
H  H26  1  0.62985283  0.87428293  0.10865289  1  0.104337  -0.000447  0.930453  -0.002  0.114535  -0.000312  0.988541  -0.001  0.118421  -0.000193  0.984796  -0.001  0.122083  0.111183  -0.000495  0.991943  -0.001
H  H27  1  0.37014640  0.12570079  0.89134454  1  0.104389  -0.000447  0.930467  -0.002  0.114573  -0.000312  0.988545  -0.001  0.11846  -0.000193  0.984796  -0.001  0.122133  0.111217  -0.000495  0.991946  -0.001
C  C28  1  0.77701016  0.94584549  0.87602455  1  0.718045  0.012817  3.846116  0.008  0.674743  -0.000947  4.155778  -0.004  0.714333  -0.001199  4.147403  -0.004  0.220877  0.645199  0.000775  4.158719  -0.002
C  C29  1  0.22298773  0.05415297  0.12398000  1  0.717973  0.012822  3.846154  0.008  0.674625  -0.000945  4.155889  -0.004  0.714206  -0.001198  4.147532  -0.004  0.22082  0.645078  0.000781  4.15883  -0.002
C  C30  1  0.62249511  0.87484633  0.79654112  1  -0.314435  -0.005983  3.624167  -0.009  -0.345917  -0.004008  3.876224  -0.006  -0.351492  -0.002773  3.879423  -0.004  -0.150432  -0.34227  -0.005393  3.874961  -0.008
C  C31  1  0.37750202  0.12515004  0.20345571  1  -0.31447  -0.005982  3.624251  -0.009  -0.34588  -0.004007  3.876154  -0.006  -0.351472  -0.002774  3.879357  -0.004  -0.150437  -0.342229  -0.005392  3.87489  -0.008
C  C32  1  0.67701197  0.03343159  0.63243327  1  0.066016  0.000591  3.808133  0.0  0.062546  0.000315  4.120447  0.0  0.073293  0.000214  4.134366  0.0  0.111831  0.055746  6.7e-05  4.10979  0.0
C  C33  1  0.32299397  0.96657507  0.36756904  1  0.066053  0.000593  3.808356  0.0  0.062522  0.000315  4.120746  0.0  0.073267  0.000214  4.13467  0.0  0.111795  0.055719  6.8e-05  4.110093  0.0
C  C34  1  0.76971485  0.26053179  0.59444841  1  0.061185  -0.000133  3.787666  0.0  0.060391  -0.000116  4.100719  0.0  0.070561  -9.1e-05  4.114587  0.0  0.109407  0.053636  -0.000294  4.091167  0.0
C  C35  1  0.23029283  0.73946433  0.40555212  1  0.061123  -0.000134  3.787885  0.0  0.060316  -0.000116  4.100946  0.0  0.070487  -9.4e-05  4.114814  0.0  0.109325  0.053561  -0.000294  4.091392  0.0
C  C36  1  0.77787728  0.37351465  0.38642859  1  -0.311397  -0.001384  3.660182  -0.002  -0.34171  -0.001169  3.913475  -0.001  -0.345503  -0.000603  3.91814  -0.001  -0.153799  -0.33991  -0.001714  3.909668  -0.002
C  C37  1  0.22212161  0.62648694  0.61356846  1  -0.311176  -0.001385  3.659866  -0.002  -0.341626  -0.001169  3.913316  -0.001  -0.34542  -0.000605  3.917984  -0.001  -0.153782  -0.339819  -0.001715  3.909501  -0.002
C  C38  1  0.83614198  0.27102485  0.30227323  1  0.657  0.013479  3.909024  0.011  0.615863  0.005788  4.218549  0.005  0.649992  0.00462  4.216891  0.004  0.179707  0.59203  0.006258  4.215505  0.006
C  C39  1  0.16384947  0.72897691  0.69771496  1  0.656979  0.013476  3.909367  0.011  0.61585  0.005786  4.218916  0.005  0.649978  0.004621  4.217258  0.004  0.179755  0.592016  0.006257  4.215863  0.006
C  C40  1  0.99617791  0.29126569  0.96856842  1  0.15399  0.02277  3.633008  0.015  0.122529  0.008087  3.891631  0.005  0.132994  0.007084  3.90493  0.004  0.056382  0.11512  0.009708  3.883446  0.006
C  C41  1  0.00381880  0.70873595  0.03141844  1  0.154053  0.022698  3.633152  0.015  0.122631  0.008088  3.891721  0.005  0.133101  0.007077  3.905003  0.004  0.056378  0.115219  0.009703  3.883534  0.006
C  C42  1  0.08448950  0.39251662  0.91951919  1  -0.110787  -0.008738  3.721507  -0.012  -0.121621  -0.002112  3.975074  -0.003  -0.130168  -0.002222  3.996535  -0.003  -0.083945  -0.116486  -0.001981  3.962007  -0.004
C  C43  1  0.91551951  0.60748998  0.08047160  1  -0.110686  -0.008703  3.721524  -0.012  -0.121445  -0.002113  3.975084  -0.003  -0.129991  -0.002219  3.996555  -0.003  -0.083885  -0.116331  -0.001981  3.962057  -0.004
C  C44  1  0.22390099  0.47266491  0.98792330  1  -0.026746  0.024298  3.690077  0.016  -0.05816  0.009453  3.941436  0.005  -0.050848  0.00701  3.955844  0.004  -0.066333  -0.063945  0.013342  3.933845  0.008
C  C45  1  0.77610871  0.52733117  0.01206744  1  -0.026776  0.024232  3.690138  0.016  -0.058216  0.009451  3.941505  0.005  -0.050936  0.007011  3.955908  0.004  -0.066413  -0.064031  0.013342  3.933921  0.008
C  C46  1  0.26998686  0.44916701  0.10536542  1  -0.107553  -0.008085  3.771276  -0.012  -0.087196  -0.002424  4.015329  -0.004  -0.098387  -0.002345  4.037499  -0.004  -0.011624  -0.080739  -0.002434  4.002655  -0.004
C  C47  1  0.73001795  0.55082393  0.89462753  1  -0.107939  -0.008052  3.771597  -0.012  -0.087452  -0.002425  4.015636  -0.004  -0.098652  -0.002348  4.0378  -0.004  -0.011674  -0.080995  -0.002434  4.002973  -0.004
C  C48  1  0.17315342  0.34716800  0.14862529  1  0.11678  0.021851  3.665427  0.015  0.081554  0.006833  3.916302  0.004  0.091262  0.006164  3.931411  0.004  0.051602  0.073729  0.008933  3.908237  0.006
C  C49  1  0.82684333  0.65283048  0.85136735  1  0.117049  0.021799  3.665483  0.015  0.08178  0.00684  3.916321  0.004  0.091487  0.006177  3.93143  0.004  0.051723  0.073957  0.008934  3.90824  0.006
C  C50  1  0.42004520  0.51904209  0.18512791  1  0.552474  -0.000739  3.834518  0.0  0.504563  -0.000643  4.124031  -0.001  0.533967  -0.00041  4.123568  0.0  0.247505  0.484895  -0.000766  4.124163  -0.001
C  C51  1  0.57995378  0.48095634  0.81488037  1  0.552996  -0.000742  3.834188  0.0  0.504857  -0.000644  4.123967  -0.001  0.534296  -0.000406  4.123452  0.0  0.247507  0.485184  -0.000766  4.124104  -0.001
C  C52  1  0.62966332  0.73640654  0.23621766  1  0.21178  -0.006934  3.790553  -0.01  0.209885  -0.002053  4.041722  -0.004  0.212918  -0.002093  4.064144  -0.003  0.099551  0.207193  -0.00214  4.027407  -0.004
C  C53  1  0.37033853  0.26360021  0.76379879  1  0.211525  -0.00693  3.790636  -0.01  0.209618  -0.002053  4.041815  -0.004  0.212653  -0.002095  4.064237  -0.003  0.099316  0.206927  -0.00214  4.027502  -0.004
C  C54  1  0.71353822  0.71344012  0.33940071  1  -0.116598  0.020244  3.695205  0.013  -0.142171  0.00756  3.945352  0.004  -0.140089  0.006123  3.961006  0.003  -0.081111  -0.144378  0.010366  3.93633  0.006
C  C55  1  0.28646642  0.28656867  0.66061457  1  -0.116505  0.020241  3.69491  0.013  -0.142066  0.00756  3.945072  0.004  -0.139987  0.006124  3.960741  0.003  -0.081023  -0.144273  0.010371  3.936044  0.006
C  C56  1  0.85679137  0.80308486  0.38578520  1  -0.124456  -0.00791  3.76683  -0.011  -0.1369  -0.002289  4.025608  -0.003  -0.143815  -0.002284  4.046797  -0.003  -0.092916  -0.133202  -0.002413  4.013938  -0.004
C  C57  1  0.14321114  0.19692399  0.61422535  1  -0.124465  -0.007906  3.766725  -0.011  -0.136978  -0.002289  4.025449  -0.003  -0.143916  -0.002281  4.046656  -0.003  -0.092937  -0.133283  -0.002413  4.013803  -0.004
C  C58  1  0.91147913  0.91229093  0.32997168  1  0.108615  0.019288  3.697062  0.013  0.07757  0.006693  3.957563  0.004  0.084184  0.006319  3.975474  0.004  0.031637  0.072062  0.007651  3.946856  0.005
C  C59  1  0.08852086  0.08771693  0.67003208  1  0.108664  0.019278  3.696881  0.013  0.077615  0.006695  3.9575  0.004  0.084222  0.006307  3.975406  0.004  0.0316  0.072096  0.007651  3.946796  0.005
C  C60  1  0.69158139  0.85128117  0.18792482  1  0.027058  0.020453  3.666349  0.014  -0.010103  0.007403  3.93031  0.005  -0.004172  0.00666  3.94481  0.004  0.040671  -0.014362  0.008078  3.920918  0.005
C  C61  1  0.30841266  0.14871527  0.81208080  1  0.027238  0.020454  3.666379  0.014  -0.009852  0.00741  3.930275  0.005  -0.003912  0.006667  3.944769  0.004  0.040812  -0.014121  0.008082  3.920881  0.005
S  S62  1  0.84775668  0.41556980  0.55329558  1  0.086352  -0.001551  2.474189  -0.002  0.077178  -0.001679  2.822046  -0.002  0.074522  -0.000978  2.820452  -0.001  0.042336  0.079357  -0.002408  2.820938  -0.003
S  S63  1  0.15225270  0.58443469  0.44669939  1  0.086356  -0.001551  2.47422  -0.002  0.077225  -0.00168  2.822124  -0.002  0.074569  -0.000976  2.820532  -0.001  0.042364  0.079401  -0.002408  2.82102  -0.003
S  S64  1  0.72398919  0.09123886  0.50047185  1  0.110109  0.000429  2.555348  0.0  0.111539  0.000343  2.886504  0.0  0.112058  0.000308  2.890342  0.0  0.114871  0.11098  0.000122  2.883733  0.0
S  S65  1  0.27601888  0.90876461  0.49953370  1  0.110016  0.000429  2.555184  0.0  0.111468  0.000343  2.886349  0.0  0.111988  0.000308  2.890185  0.0  0.114858  0.110915  0.000122  2.883575  0.0
S  S66  1  0.61747040  0.85754991  0.63000432  1  0.082478  -0.00116  2.454534  -0.002  0.072974  -0.001109  2.794292  -0.002  0.069544  -0.000585  2.793456  -0.001  0.041886  0.076155  -0.001886  2.792492  -0.002
S  S67  1  0.38252433  0.14245177  0.36999779  1  0.082471  -0.00116  2.454567  -0.002  0.072978  -0.001109  2.794323  -0.002  0.069551  -0.000583  2.793496  -0.001  0.041917  0.076157  -0.001886  2.792528  -0.002
N  N68  1  0.03978364  0.26827896  0.08158308  1  -0.310243  -0.034152  3.300471  -0.066  -0.258822  -0.023387  3.575372  -0.041  -0.280277  -0.020241  3.586747  -0.035  -0.322927  -0.244034  -0.025163  3.57059  -0.044
N  N69  1  0.96021171  0.73172166  0.91840891  1  -0.310362  -0.034126  3.300495  -0.066  -0.258982  -0.023387  3.57544  -0.041  -0.280433  -0.020241  3.586814  -0.035  -0.322954  -0.244184  -0.025162  3.570644  -0.044
N  N70  1  0.82912975  0.93664239  0.23295930  1  -0.293887  -0.035325  3.355701  -0.067  -0.245876  -0.024078  3.636753  -0.043  -0.26626  -0.020518  3.652339  -0.037  -0.325983  -0.230218  -0.026864  3.625963  -0.047
N  N71  1  0.17086356  0.06335512  0.76704191  1  -0.293926  -0.035323  3.355728  -0.067  -0.245974  -0.024081  3.636831  -0.043  -0.26637  -0.020516  3.652427  -0.037  -0.325995  -0.230296  -0.026866  3.626023  -0.047
N  N72  1  0.48697033  0.65183232  0.17662882  1  -0.444539  -0.000532  3.377977  -0.001  -0.3957  -0.000294  3.620153  0.0  -0.417444  -0.000254  3.63023  0.0  -0.395919  -0.380344  -0.000472  3.61288  -0.001
N  N73  1  0.51303498  0.34816281  0.82338310  1  -0.444782  -0.000532  3.377975  -0.001  -0.395852  -0.000294  3.620206  0.0  -0.417619  -0.00026  3.630282  0.0  -0.395977  -0.380506  -0.000472  3.612929  -0.001
N  N74  1  0.75088452  0.26379311  0.71121946  1  -0.226585  -2.8e-05  3.08838  0.0  -0.20832  -6.8e-05  3.384199  0.0  -0.217849  -3e-05  3.401117  0.0  -0.224108  -0.201463  -4.1e-05  3.372441  0.0
N  N75  1  0.24912704  0.73621447  0.28878447  1  -0.226719  -2.7e-05  3.088611  0.0  -0.208453  -6.9e-05  3.384441  0.0  -0.217983  -3e-05  3.40136  0.0  -0.224163  -0.201597  -4.1e-05  3.372687  0.0
N  N76  1  0.69817379  0.13499561  0.73357219  1  -0.226774  -0.000279  3.052801  -0.001  -0.20272  -0.000154  3.343416  0.0  -0.212049  -9.7e-05  3.358034  0.0  -0.227025  -0.196701  -0.000328  3.333136  -0.001
N  N77  1  0.30183392  0.86500996  0.26643190  1  -0.226611  -0.000279  3.052885  -0.001  -0.202534  -0.000154  3.34349  0.0  -0.211863  -9.5e-05  3.358112  0.0  -0.226923  -0.196514  -0.000328  3.333213  -0.001
O  O78  1  0.76421505  0.21982540  0.19036130  1  -0.593837  -0.037961  1.913085  -0.067  -0.564864  -0.028714  2.153645  -0.05  -0.601078  -0.020661  2.148555  -0.037  -0.320433  -0.533363  -0.037967  2.153615  -0.064
O  O79  1  0.23577290  0.78018485  0.80962630  1  -0.593862  -0.037964  1.913333  -0.067  -0.564896  -0.028718  2.153909  -0.05  -0.601109  -0.020664  2.148812  -0.037  -0.320461  -0.53339  -0.037971  2.153869  -0.064
O  O80  1  0.95178327  0.23965614  0.34133489  1  -0.622479  -0.037038  1.985009  -0.065  -0.59236  -0.028544  2.243819  -0.049  -0.628718  -0.020221  2.239907  -0.036  -0.312762  -0.561018  -0.037594  2.242784  -0.063
O  O81  1  0.04820742  0.76033724  0.65864623  1  -0.622601  -0.037024  1.985112  -0.065  -0.59235  -0.028537  2.243766  -0.049  -0.628699  -0.020215  2.239848  -0.036  -0.312789  -0.561011  -0.037586  2.242728  -0.063
O  O82  1  0.77854826  0.99407650  0.99123780  1  -0.604073  -0.044784  2.131817  -0.077  -0.570397  -0.036864  2.415675  -0.059  -0.607165  -0.028172  2.401225  -0.044  -0.304377  -0.538176  -0.046233  2.423438  -0.073
O  O83  1  0.22143173  0.00591293  0.00876335  1  -0.603999  -0.044791  2.131934  -0.077  -0.570322  -0.03687  2.415819  -0.059  -0.60709  -0.028175  2.401377  -0.044  -0.3043  -0.538091  -0.046241  2.42358  -0.074
O  O84  1  0.88993643  0.94985021  0.82418309  1  -0.645351  -0.039106  2.189733  -0.066  -0.620376  -0.030119  2.49504  -0.046  -0.659088  -0.021507  2.484406  -0.032  -0.318038  -0.584461  -0.041429  2.498092  -0.064
O  O85  1  0.11006045  0.05015457  0.17582616  1  -0.645298  -0.039108  2.189581  -0.066  -0.620297  -0.030117  2.494895  -0.046  -0.659009  -0.021505  2.48427  -0.032  -0.318012  -0.584386  -0.041432  2.497943  -0.064
O  O86  1  0.47983653  0.45650376  0.25156700  1  -0.53265  -0.001095  1.924946  -0.002  -0.484542  -0.000367  2.136122  -0.001  -0.505504  -0.000367  2.130534  -0.001  -0.284689  -0.471057  -0.000295  2.139585  0.0
O  O87  1  0.52015977  0.54349578  0.74845666  1  -0.532746  -0.001092  1.924933  -0.002  -0.484571  -0.000367  2.136213  -0.001  -0.505539  -0.000365  2.130603  -0.001  -0.28464  -0.471099  -0.000295  2.139697  0.0
