# generated using pymatgen
data_NiH42C24(NO2)4
_symmetry_space_group_name_H-M   'P 1'
_cell_length_a   7.97047934
_cell_length_b   8.47030627
_cell_length_c   10.97417654
_cell_angle_alpha   77.43071499
_cell_angle_beta   85.91601915
_cell_angle_gamma   67.86546442
_symmetry_Int_Tables_number   1
_chemical_formula_structural   NiH42C24(NO2)4
_chemical_formula_sum   'Ni1 H42 C24 N4 O8'
_cell_volume   669.79492050
_cell_formula_units_Z   1
loop_
 _symmetry_equiv_pos_site_id
 _symmetry_equiv_pos_as_xyz
  1  'x, y, z'
loop_
 _atom_site_type_symbol
 _atom_site_label
 _atom_site_symmetry_multiplicity
 _atom_site_fract_x
 _atom_site_fract_y
 _atom_site_fract_z
 _atom_site_occupancy
 _atom_site_hle17_ddec_charge
 _atom_site_hle17_ddec_spin_density
 _atom_site_hle17_ddec_sum_bond_order
 _atom_site_hle17_magmom
 _atom_site_hse06_10hf_ddec_charge
 _atom_site_hse06_10hf_ddec_spin_density
 _atom_site_hse06_10hf_ddec_sum_bond_order
 _atom_site_hse06_10hf_magmom
 _atom_site_hse06_ddec_charge
 _atom_site_hse06_ddec_spin_density
 _atom_site_hse06_ddec_sum_bond_order
 _atom_site_hse06_magmom
 _atom_site_pbe_cm5_charge
 _atom_site_pbe_ddec_charge
 _atom_site_pbe_ddec_spin_density
 _atom_site_pbe_ddec_sum_bond_order
 _atom_site_pbe_magmom
Ni  Ni0  1  0.99999892  0.00000070  0.99999929  1  0.696921  1.712878  2.072289  1.444  0.676867  1.779171  2.459824  1.564  0.763697  1.838468  2.400393  1.657  0.642447  0.617454  1.723197  2.501301  1.481
H  H1  1  0.97956593  0.21329593  0.13072960  1  0.258324  -0.002687  0.892564  -0.002  0.255009  -0.001151  0.942698  -0.001  0.259989  -0.001221  0.940821  -0.001  0.300764  0.252047  -0.001024  0.943276  -0.001
H  H2  1  0.02043802  0.78669966  0.86927238  1  0.258322  -0.00268  0.892522  -0.002  0.255021  -0.001151  0.942643  -0.001  0.26  -0.001221  0.940765  -0.001  0.300773  0.25206  -0.001025  0.943221  -0.001
H  H3  1  0.10746640  0.88046618  0.40607807  1  0.083527  -0.000369  0.933969  0.0  0.104642  -0.000186  0.987359  0.0  0.104755  -0.00016  0.989081  0.0  0.095996  0.104848  -0.000172  0.985928  0.0
H  H4  1  0.89253878  0.11952945  0.59392018  1  0.083527  -0.000388  0.934006  0.0  0.104626  -0.000185  0.987415  0.0  0.104738  -0.000159  0.989141  0.0  0.095989  0.104832  -0.000172  0.985984  0.0
H  H5  1  0.92099620  0.03109180  0.31369866  1  0.088647  -0.000151  0.937957  0.0  0.101858  -9.3e-05  1.003342  0.0  0.103488  -7.4e-05  1.003013  0.0  0.09628  0.100781  -0.000116  1.003688  0.0
H  H6  1  0.07900825  0.96890250  0.68630259  1  0.088625  -0.000171  0.938  0.0  0.101842  -9.3e-05  1.003379  0.0  0.103468  -7.4e-05  1.003061  0.0  0.096285  0.10077  -0.000116  1.003713  0.0
H  H7  1  0.17045353  0.69263380  0.23742654  1  0.037073  0.000217  0.919608  0.001  0.054132  0.000195  0.976852  0.0  0.053827  0.000121  0.977359  0.0  0.10501  0.054612  0.000277  0.976287  0.001
H  H8  1  0.82954686  0.30736445  0.76256973  1  0.0371  0.000213  0.919618  0.001  0.054168  0.000195  0.976834  0.0  0.053859  0.000121  0.977347  0.0  0.105035  0.054646  0.000277  0.97627  0.001
H  H9  1  0.02930011  0.61332108  0.08424370  1  0.067063  0.000139  0.923485  0.0  0.085035  0.000121  0.984848  0.0  0.085656  7.6e-05  0.984709  0.0  0.105133  0.085187  0.000107  0.98391  0.0
H  H10  1  0.97069554  0.38667971  0.91575787  1  0.067055  0.000137  0.923456  0.0  0.085005  0.000121  0.984845  0.0  0.085644  7.6e-05  0.984685  0.0  0.105116  0.085156  0.000107  0.983908  0.0
H  H11  1  0.81775562  0.64217075  0.15958325  1  0.074238  0.002115  0.942888  0.003  0.092102  0.001415  1.001684  0.002  0.092465  0.001003  1.001934  0.001  0.101488  0.092329  0.001835  1.000985  0.003
H  H12  1  0.18223977  0.35783396  0.84041678  1  0.074249  0.00211  0.942876  0.003  0.092115  0.001415  1.001671  0.002  0.092478  0.001003  1.001923  0.001  0.101494  0.092341  0.001836  1.000972  0.003
H  H13  1  0.33725363  0.10777984  0.01405128  1  0.072225  2.1e-05  0.92383  0.0  0.091925  4e-06  0.982986  0.0  0.091818  -1.3e-05  0.983838  0.0  0.110033  0.092152  7e-06  0.982388  0.0
H  H14  1  0.66274451  0.89222100  0.98594650  1  0.072214  1.8e-05  0.923868  0.0  0.09192  4e-06  0.983005  0.0  0.091811  -1.3e-05  0.983858  0.0  0.110037  0.092147  7e-06  0.982406  0.0
H  H15  1  0.22922679  0.30589944  0.06574799  1  0.052905  0.00207  0.945968  0.003  0.070475  0.001511  1.011042  0.002  0.069972  0.001049  1.011875  0.001  0.097312  0.071361  0.001862  1.010063  0.002
H  H16  1  0.77077438  0.69410008  0.93425167  1  0.052894  0.002067  0.945983  0.003  0.070462  0.001511  1.011057  0.002  0.069958  0.00105  1.011893  0.001  0.09731  0.071349  0.001862  1.010077  0.002
H  H17  1  0.37826636  0.80154576  0.16751927  1  0.116132  -5.8e-05  0.985637  0.0  0.132725  -6.7e-05  1.051907  0.0  0.134135  -7.6e-05  1.052625  0.0  0.087254  0.131828  -4.9e-05  1.051473  0.0
H  H18  1  0.62173909  0.19845243  0.83248220  1  0.116115  -6e-05  0.985609  0.0  0.132709  -6.7e-05  1.051885  0.0  0.134113  -7.6e-05  1.05261  0.0  0.087257  0.131812  -4.9e-05  1.051451  0.0
H  H19  1  0.42339364  0.81238292  0.32160173  1  0.100537  -0.000162  0.970872  0.0  0.123473  -7.2e-05  1.03246  0.0  0.123508  -6.8e-05  1.034643  0.0  0.08501  0.123832  -6.3e-05  1.030472  0.0
H  H20  1  0.57660904  0.18761920  0.67839834  1  0.100505  -0.000143  0.970935  0.0  0.123466  -7.2e-05  1.032508  0.0  0.123501  -6.9e-05  1.03469  0.0  0.085  0.123827  -6.3e-05  1.030516  0.0
H  H21  1  0.46801073  0.95621916  0.19284645  1  0.113083  3.2e-05  0.977341  0.0  0.131326  5.1e-05  1.042295  0.0  0.133365  4.1e-05  1.041579  0.0  0.086296  0.129896  6.3e-05  1.042945  0.0
H  H22  1  0.53199196  0.04378295  0.80715362  1  0.113039  2.9e-05  0.977326  0.0  0.131281  5.1e-05  1.042307  0.0  0.133314  4.2e-05  1.041596  0.0  0.086295  0.129843  6.3e-05  1.042965  0.0
H  H23  1  0.27453399  0.22309203  0.26907510  1  0.10761  -0.000273  0.972816  0.0  0.127248  -7.6e-05  1.036038  0.0  0.128652  -6.5e-05  1.036027  0.0  0.086325  0.126203  -7.5e-05  1.036381  0.0
H  H24  1  0.72546366  0.77691008  0.73092433  1  0.107616  -0.000275  0.972816  0.0  0.127254  -7.6e-05  1.036045  0.0  0.128653  -6.5e-05  1.036041  0.0  0.086318  0.126208  -7.5e-05  1.036392  0.0
H  H25  1  0.25288356  0.08114738  0.40789159  1  0.11015  0.000612  0.94102  0.001  0.132709  0.000569  0.998082  0.001  0.134039  0.000411  0.997908  0.001  0.089144  0.132069  0.000743  0.997933  0.001
H  H26  1  0.74711685  0.91885083  0.59210832  1  0.110122  0.000608  0.941025  0.001  0.132686  0.000569  0.998095  0.001  0.134017  0.000411  0.997919  0.001  0.089127  0.132048  0.000743  0.997944  0.001
H  H27  1  0.05458676  0.24409408  0.32892545  1  0.110412  -0.000278  0.976419  0.0  0.12842  -6e-05  1.043493  0.0  0.12997  -4.8e-05  1.043543  0.0  0.084866  0.127111  -6.7e-05  1.043956  0.0
H  H28  1  0.94541166  0.75590281  0.67107570  1  0.110391  -0.000283  0.976417  0.0  0.128408  -6e-05  1.043488  0.0  0.129956  -4.7e-05  1.043539  0.0  0.084878  0.127099  -6.7e-05  1.043951  0.0
H  H29  1  0.59739917  0.51905009  0.87473865  1  0.112929  0.000788  0.952518  0.001  0.118212  0.000707  1.021474  0.001  0.122733  0.000482  1.018005  0.0  0.106989  0.114969  0.000977  1.024305  0.001
H  H30  1  0.40259522  0.48095072  0.12526115  1  0.112887  0.000786  0.95258  0.001  0.1182  0.000707  1.021489  0.001  0.122721  0.000482  1.018018  0.0  0.106975  0.114956  0.000977  1.024319  0.001
H  H31  1  0.82610238  0.76207638  0.39655993  1  0.106117  -0.000328  0.93755  0.0  0.130705  -5.8e-05  0.992265  0.0  0.132213  -5.2e-05  0.99194  0.0  0.090109  0.129813  -5.2e-05  0.992266  0.0
H  H32  1  0.17390435  0.23791529  0.60344344  1  0.10612  -0.000322  0.937571  0.0  0.130707  -5.8e-05  0.992286  0.0  0.132213  -5.2e-05  0.991962  0.0  0.090128  0.129815  -5.2e-05  0.992288  0.0
H  H33  1  0.04875540  0.62595274  0.45110128  1  0.099937  0.000522  0.973687  0.0  0.121741  0.00054  1.037287  0.0  0.121972  0.000389  1.039066  0.0  0.087207  0.121674  0.000618  1.036129  0.001
H  H34  1  0.95125456  0.37404029  0.54889715  1  0.099973  0.00052  0.97361  0.0  0.12177  0.00054  1.037222  0.0  0.122001  0.000389  1.039002  0.0  0.087213  0.121703  0.000618  1.036065  0.001
H  H35  1  0.94258469  0.56661061  0.34116409  1  0.107008  -0.000262  0.977405  0.0  0.124642  -1.8e-05  1.044774  0.0  0.126267  -2.1e-05  1.044529  0.0  0.08783  0.123197  -8.2e-05  1.045655  0.0
H  H36  1  0.05742150  0.43338242  0.65883453  1  0.106996  -0.000263  0.977382  0.0  0.124636  -1.8e-05  1.044746  0.0  0.12626  -2.1e-05  1.044499  0.0  0.087803  0.123193  -8.2e-05  1.045628  0.0
H  H37  1  0.79807093  0.93407633  0.16957930  1  0.254707  -0.00173  0.948646  -0.002  0.24458  -0.00054  1.007879  -0.001  0.251625  -0.000721  1.003444  -0.001  0.2877  0.23977  -0.000305  1.010875  0.0
H  H38  1  0.20192925  0.06592577  0.83042181  1  0.254714  -0.001727  0.948648  -0.002  0.244563  -0.00054  1.007907  -0.001  0.251606  -0.00072  1.003477  -0.001  0.287674  0.239752  -0.000305  1.010907  0.0
H  H39  1  0.43570848  0.76748418  0.71399472  1  0.394954  -9.6e-05  0.908937  0.0  0.361779  -7e-05  0.991471  0.0  0.374651  -4.8e-05  0.974816  0.0  0.295808  0.352787  -8.5e-05  1.00069  0.0
H  H40  1  0.56428565  0.23252053  0.28600537  1  0.394957  -9.6e-05  0.908912  0.0  0.361796  -7e-05  0.991438  0.0  0.374667  -4.8e-05  0.97479  0.0  0.295813  0.352804  -8.5e-05  1.000657  0.0
H  H41  1  0.34557659  0.42977867  0.52972683  1  0.125384  -3e-06  0.949568  0.0  0.132737  2.5e-05  1.011301  0.0  0.136594  1.5e-05  1.009257  0.0  0.116234  0.129679  2e-05  1.013469  0.0
H  H42  1  0.65442258  0.57021953  0.47027407  1  0.125384  2.4e-05  0.949554  0.0  0.132733  2.5e-05  1.011289  0.0  0.136591  1.5e-05  1.009246  0.0  0.116222  0.129675  2e-05  1.013458  0.0
C  C43  1  0.36496713  0.74030371  0.92374474  1  0.673709  -0.005732  3.878169  -0.004  0.624895  -0.00129  4.181596  0.0  0.662222  -0.001072  4.169749  0.0  0.211834  0.59848  -0.001929  4.191068  -0.001
C  C44  1  0.63502848  0.25970364  0.07625120  1  0.673713  -0.005703  3.878276  -0.004  0.624943  -0.00129  4.181676  0.0  0.66227  -0.001072  4.169827  0.0  0.211791  0.598531  -0.00193  4.191149  -0.001
C  C45  1  0.05713386  0.93098228  0.30905010  1  -0.243246  0.000583  3.593004  0.002  -0.283735  0.000366  3.830957  0.001  -0.287962  0.000149  3.846008  0.001  -0.157208  -0.280968  0.000632  3.820447  0.002
C  C46  1  0.94287133  0.06901985  0.69094892  1  -0.243172  0.000624  3.593028  0.002  -0.283643  0.000366  3.830912  0.001  -0.28787  0.000149  3.845969  0.001  -0.157193  -0.280878  0.000632  3.820402  0.002
C  C47  1  0.18295244  0.02115611  0.23974534  1  0.33432  -0.001751  3.520577  -0.002  0.349428  -0.00017  3.763214  -0.001  0.355539  -0.000691  3.78108  -0.001  0.071459  0.345602  0.000366  3.75037  -0.001
C  C48  1  0.81704472  0.97884077  0.76025678  1  0.334149  -0.001749  3.520817  -0.002  0.349301  -0.00017  3.763435  -0.001  0.355402  -0.000692  3.781304  -0.001  0.071467  0.345482  0.000367  3.750588  -0.001
C  C49  1  0.03710735  0.77973959  0.26341553  1  0.214645  -0.003191  3.579535  -0.004  0.200079  -0.000986  3.826925  -0.002  0.205719  -0.001438  3.843482  -0.002  0.001365  0.195812  -0.000367  3.815521  -0.001
C  C50  1  0.96289181  0.22025863  0.73658353  1  0.214609  -0.003176  3.579582  -0.004  0.200053  -0.000985  3.826953  -0.002  0.205696  -0.001437  3.843506  -0.002  0.001355  0.195785  -0.000367  3.815552  -0.001
C  C51  1  0.89458722  0.71051246  0.09717434  1  0.004218  -0.003848  3.634481  -0.004  -0.053101  -0.001174  3.902494  -0.002  -0.049143  -0.001619  3.91513  -0.002  -0.074429  -0.055717  -0.00057  3.89237  -0.001
C  C52  1  0.10541145  0.28948704  0.90282728  1  0.004215  -0.00382  3.634585  -0.004  -0.053091  -0.001175  3.902587  -0.002  -0.049139  -0.00162  3.915223  -0.002  -0.07441  -0.055706  -0.00057  3.892462  -0.001
C  C53  1  0.20443132  0.20613707  0.02795772  1  0.019862  -0.003549  3.636073  -0.003  -0.040221  -0.00115  3.906208  -0.001  -0.035741  -0.001557  3.919564  -0.002  -0.071347  -0.043373  -0.000588  3.896569  -0.001
C  C54  1  0.79556808  0.79386375  0.97204091  1  0.019864  -0.003535  3.63609  -0.003  -0.040206  -0.001149  3.906216  -0.001  -0.035724  -0.001559  3.919569  -0.002  -0.071335  -0.043356  -0.000588  3.896576  -0.001
C  C55  1  0.37449220  0.88973775  0.22820994  1  -0.372962  -6.7e-05  3.640041  0.0  -0.453555  1.8e-05  3.874755  0.0  -0.457543  -1.5e-05  3.885264  0.0  -0.253934  -0.450766  5.9e-05  3.867028  0.0
C  C56  1  0.62551349  0.11026308  0.77178835  1  -0.372827  -7.4e-05  3.640105  0.0  -0.453469  1.8e-05  3.874821  0.0  -0.457444  -1.5e-05  3.885339  0.0  -0.253937  -0.450681  5.9e-05  3.867112  0.0
C  C57  1  0.19102718  0.15088182  0.31568103  1  -0.376697  0.004159  3.644564  0.005  -0.457236  0.002737  3.879816  0.003  -0.460955  0.001986  3.889887  0.002  -0.250168  -0.454572  0.003397  3.872812  0.004
C  C58  1  0.80897325  0.84911637  0.68432070  1  -0.3766  0.004172  3.644625  0.005  -0.457161  0.002738  3.879873  0.003  -0.460875  0.001986  3.88995  0.002  -0.250145  -0.4545  0.003396  3.872869  0.004
C  C59  1  0.49795039  0.55768812  0.94692880  1  -0.16633  0.002126  3.672447  0.003  -0.187866  0.002118  3.933388  0.003  -0.191771  0.001533  3.944558  0.002  -0.086552  -0.187336  0.003025  3.929525  0.004
C  C60  1  0.50204197  0.44231791  0.05306936  1  -0.166398  0.002138  3.672592  0.003  -0.187934  0.002114  3.933486  0.003  -0.191835  0.001534  3.944653  0.002  -0.086551  -0.187404  0.003024  3.929622  0.004
C  C61  1  0.95924422  0.67690092  0.36868957  1  -0.353284  0.004582  3.672216  0.006  -0.434718  0.003045  3.913543  0.004  -0.437905  0.002232  3.924151  0.003  -0.248425  -0.431895  0.003676  3.90611  0.004
C  C62  1  0.04076273  0.32309340  0.63130972  1  -0.353341  0.004577  3.672211  0.006  -0.434791  0.003044  3.913553  0.004  -0.437973  0.002232  3.924154  0.003  -0.248442  -0.431969  0.003676  3.906119  0.004
C  C63  1  0.42868046  0.50403357  0.53733489  1  -0.158544  0.000137  3.653919  0.0  -0.180632  1e-06  3.90949  0.0  -0.185223  1e-06  3.922884  0.0  -0.074287  -0.17904  0.00117  3.903052  0.001
C  C64  1  0.57131947  0.49596593  0.46266667  1  -0.158489  -0.000298  3.653803  0.0  -0.180563  -2e-06  3.909365  0.0  -0.185155  1e-06  3.92276  0.0  -0.074243  -0.178973  0.00117  3.902928  0.001
C  C65  1  0.37716836  0.60700963  0.63656457  1  0.667622  -2.4e-05  3.855646  0.0  0.626715  1.6e-05  4.149902  0.0  0.659232  7e-06  4.141126  0.0  0.221297  0.604192  0.000722  4.15666  0.001
C  C66  1  0.62282728  0.39299118  0.36343517  1  0.667603  9e-06  3.855554  0.0  0.626683  1.6e-05  4.149828  0.0  0.659199  8e-06  4.141054  0.0  0.221297  0.604161  0.000722  4.156586  0.001
N  N67  1  0.09957641  0.11874400  0.11359515  1  -0.422919  0.057967  3.142288  0.091  -0.381401  0.03939  3.404489  0.063  -0.408791  0.030653  3.417924  0.052  -0.473921  -0.36139  0.04623  3.393785  0.07
N  N68  1  0.90042450  0.88125942  0.88640389  1  -0.42284  0.057957  3.142372  0.091  -0.381386  0.039389  3.404636  0.063  -0.408746  0.030651  3.418015  0.052  -0.473959  -0.361381  0.046229  3.393932  0.07
N  N69  1  0.92198665  0.84573444  0.14924868  1  -0.41124  0.058528  3.226773  0.091  -0.371345  0.038889  3.501336  0.062  -0.398836  0.030371  3.513634  0.052  -0.493009  -0.350924  0.044936  3.491749  0.068
N  N70  1  0.07801226  0.15426767  0.85075159  1  -0.4112  0.058518  3.226887  0.091  -0.371297  0.038891  3.501438  0.062  -0.398793  0.030373  3.513745  0.052  -0.492981  -0.35087  0.044938  3.491841  0.068
O  O71  1  0.24311791  0.78214819  0.00452782  1  -0.589352  0.0371  2.119367  0.063  -0.548664  0.027784  2.390454  0.047  -0.583099  0.021033  2.381875  0.038  -0.29931  -0.524123  0.035003  2.39589  0.057
O  O72  1  0.75687846  0.21786046  0.99546878  1  -0.589361  0.037093  2.119336  0.063  -0.548678  0.027783  2.390407  0.047  -0.583115  0.021033  2.381834  0.038  -0.299302  -0.524123  0.035002  2.39581  0.057
O  O73  1  0.38302705  0.84557967  0.82458509  1  -0.629193  -0.00335  2.022225  -0.002  -0.570311  -0.001922  2.246683  -0.001  -0.594361  -0.001815  2.234288  -0.001  -0.314179  -0.555026  -0.002278  2.255607  -0.001
O  O74  1  0.61697663  0.15442636  0.17541337  1  -0.629109  -0.003365  2.022184  -0.002  -0.570346  -0.001921  2.246726  -0.001  -0.594398  -0.001815  2.234334  -0.001  -0.314146  -0.555063  -0.002278  2.255651  -0.001
O  O75  1  0.47008268  0.70867592  0.63592377  1  -0.564823  -8.4e-05  2.068634  0.0  -0.514197  -6.4e-05  2.28108  0.0  -0.536852  -5e-05  2.265034  0.0  -0.337895  -0.498783  0.000111  2.290448  0.0
O  O76  1  0.52991195  0.29132749  0.36407652  1  -0.564855  -8.8e-05  2.068593  0.0  -0.514224  -6.7e-05  2.281042  0.0  -0.536877  -5.1e-05  2.265001  0.0  -0.337949  -0.49881  0.000111  2.290409  0.0
O  O77  1  0.25827611  0.59441889  0.71302923  1  -0.567218  4.3e-05  1.910025  0.0  -0.52803  6.2e-05  2.12468  0.0  -0.548066  3.8e-05  2.117129  0.0  -0.295309  -0.515039  0.000391  2.13019  0.0
O  O78  1  0.74172029  0.40558322  0.28697117  1  -0.567217  -1e-05  1.910039  0.0  -0.528008  6.4e-05  2.124677  0.0  -0.548045  3.8e-05  2.117128  0.0  -0.295276  -0.515014  0.000391  2.13018  0.0
