# generated using pymatgen
data_Zn2H26C29BrN3O8
_symmetry_space_group_name_H-M   'P 1'
_cell_length_a   7.96206963
_cell_length_b   15.01526535
_cell_length_c   15.04360000
_cell_angle_alpha   60.08653285
_cell_angle_beta   75.05757478
_cell_angle_gamma   75.11803109
_symmetry_Int_Tables_number   1
_chemical_formula_structural   Zn2H26C29BrN3O8
_chemical_formula_sum   'Zn4 H52 C58 Br2 N6 O16'
_cell_volume   1488.42650300
_cell_formula_units_Z   2
loop_
 _symmetry_equiv_pos_site_id
 _symmetry_equiv_pos_as_xyz
  1  'x, y, z'
loop_
 _atom_site_type_symbol
 _atom_site_label
 _atom_site_symmetry_multiplicity
 _atom_site_fract_x
 _atom_site_fract_y
 _atom_site_fract_z
 _atom_site_occupancy
 _atom_site_hle17_bader_spin_density
 _atom_site_hle17_ddec_charge
 _atom_site_hle17_ddec_spin_density
 _atom_site_hle17_ddec_sum_bond_order
 _atom_site_hle17_magmom
 _atom_site_hse06_10hf_bader_spin_density
 _atom_site_hse06_10hf_ddec_charge
 _atom_site_hse06_10hf_ddec_spin_density
 _atom_site_hse06_10hf_ddec_sum_bond_order
 _atom_site_hse06_10hf_magmom
 _atom_site_hse06_bader_spin_density
 _atom_site_hse06_ddec_charge
 _atom_site_hse06_ddec_spin_density
 _atom_site_hse06_ddec_sum_bond_order
 _atom_site_hse06_magmom
 _atom_site_pbe_bader_charge
 _atom_site_pbe_bader_spin_density
 _atom_site_pbe_cm5_charge
 _atom_site_pbe_ddec_charge
 _atom_site_pbe_ddec_spin_density
 _atom_site_pbe_ddec_sum_bond_order
 _atom_site_pbe_magmom
Zn  Zn0  1  0.11202805  0.40431282  0.01955897  1  0  1.011429  0  1.892958  0  0  0.834104  0  2.368589  0  0  0.888155  0  2.3017  0  1.279368  0  0.661737  0.796603  0  2.414218  0
Zn  Zn1  1  0.38765652  0.98045339  0.59568910  1  0  1.011746  0  1.890029  0  0  0.834283  0  2.365644  0  0  0.88831  0  2.298908  0  1.280697  0  0.66143  0.796795  0  2.411161  0
Zn  Zn2  1  0.88797401  0.59568738  0.98044257  1  0  1.011421  0  1.893004  0  0  0.834061  0  2.368643  0  0  0.888102  0  2.30178  0  1.27925  0  0.66172  0.79656  0  2.414273  0
Zn  Zn3  1  0.61233954  0.01954993  0.40430972  1  0  1.011718  0  1.890092  0  0  0.83427  0  2.3657  0  0  0.888291  0  2.298973  0  1.280808  0  0.661409  0.79678  0  2.411224  0
H  H4  1  0.64891530  0.61834661  0.55496509  1  0  0.103282  0  0.950526  0  0  0.118163  0  1.004848  0  0  0.120458  0  1.004418  0  0.074299  0  0.104079  0.11648  0  1.005291  0
H  H5  1  0.85111088  0.44437214  0.38209487  1  0  0.10306  0  0.951115  0  0  0.117923  0  1.005546  0  0  0.12021  0  1.005107  0  0.1071  0  0.104119  0.116213  0  1.006025  0
H  H6  1  0.35109440  0.38163416  0.44503977  1  0  0.103288  0  0.950547  0  0  0.118186  0  1.004845  0  0  0.120481  0  1.004414  0  0.073826  0  0.104105  0.116515  0  1.005273  0
H  H7  1  0.14889928  0.55563196  0.61788901  1  0  0.103066  0  0.951138  0  0  0.117936  0  1.005556  0  0  0.120222  0  1.00512  0  0.064776  0  0.104162  0.116228  0  1.00603  0
H  H8  1  0.64895699  0.78234707  0.39156946  1  0  0.107776  0  0.963323  0  0  0.116124  0  1.027169  0  0  0.118987  0  1.026054  0  0.124456  0  0.104396  0.114063  0  1.028035  0
H  H9  1  0.85145163  0.60773504  0.21802320  1  0  0.10812  0  0.962853  0  0  0.116376  0  1.026682  0  0  0.119278  0  1.025533  0  0.125942  0  0.104688  0.114269  0  1.027597  0
H  H10  1  0.35104310  0.21764070  0.60844254  1  0  0.107755  0  0.963362  0  0  0.116106  0  1.027221  0  0  0.118968  0  1.026104  0  0.124882  0  0.104375  0.114044  0  1.028087  0
H  H11  1  0.14854733  0.39227217  0.78196730  1  0  0.108158  0  0.962872  0  0  0.116408  0  1.02671  0  0  0.119291  0  1.025585  0  0.125958  0  0.104712  0.1143  0  1.027627  0
H  H12  1  0.53535126  0.89351747  0.25353541  1  0  0.115352  0  0.979306  0  0  0.12327  0  1.045173  0  0  0.127272  0  1.04262  0  0.105791  0  0.107235  0.120368  0  1.047114  0
H  H13  1  0.96515370  0.74624066  0.10646154  1  0  0.115825  0  0.979605  0  0  0.123932  0  1.045106  0  0  0.127944  0  1.042542  0  0.101929  0  0.107567  0.121022  0  1.047046  0
H  H14  1  0.46465020  0.10648507  0.74646506  1  0  0.115362  0  0.979299  0  0  0.123288  0  1.045149  0  0  0.12729  0  1.042597  0  0.105459  0  0.107259  0.120385  0  1.047091  0
H  H15  1  0.03484337  0.25375877  0.89353908  1  0  0.115826  0  0.979598  0  0  0.123933  0  1.04509  0  0  0.127945  0  1.042524  0  0.101919  0  0.107583  0.121022  0  1.047031  0
H  H16  1  0.37694999  0.02864845  0.23742191  1  0  0.119342  0  0.982458  0  0  0.12862  0  1.042106  0  0  0.132224  0  1.040905  0  0.155146  0  0.109192  0.125978  0  1.043203  0
H  H17  1  0.12365131  0.76234696  0.97140316  1  0  0.119467  0  0.983247  0  0  0.12901  0  1.042358  0  0  0.132525  0  1.041289  0  0.155445  0  0.109232  0.126397  0  1.043387  0
H  H18  1  0.62305497  0.97135564  0.76257797  1  0  0.119346  0  0.982422  0  0  0.128607  0  1.042096  0  0  0.132212  0  1.040895  0  0.155132  0  0.109184  0.125967  0  1.043189  0
H  H19  1  0.87634746  0.23765092  0.02859800  1  0  0.119499  0  0.983227  0  0  0.129051  0  1.042336  0  0  0.132565  0  1.041268  0  0.155441  0  0.109255  0.126436  0  1.043372  0
H  H20  1  0.17244634  0.19446209  0.20030162  1  0  0.093233  0  0.927123  0  0  0.104453  0  0.98385  0  0  0.106683  0  0.982026  0  0.141904  0  0.125492  0.102754  0  0.985276  0
H  H21  1  0.32762354  0.79956522  0.80556147  1  0  0.093174  0  0.927588  0  0  0.104669  0  0.983913  0  0  0.106897  0  0.982092  0  0.140786  0  0.125571  0.102961  0  0.985337  0
H  H22  1  0.82755732  0.80554201  0.79969777  1  0  0.093243  0  0.927198  0  0  0.104468  0  0.983906  0  0  0.106699  0  0.982082  0  0.141898  0  0.125501  0.102769  0  0.985332  0
H  H23  1  0.67237873  0.20043421  0.19444043  1  0  0.093145  0  0.927543  0  0  0.104638  0  0.983883  0  0  0.106866  0  0.982063  0  0.140858  0  0.125555  0.102928  0  0.985304  0
H  H24  1  0.39966582  0.33194372  0.89182271  1  0  0.088047  0  0.945778  0  0  0.097195  0  1.008005  0  0  0.099715  0  1.005898  0  0.119733  0  0.120101  0.095241  0  1.009713  0
H  H25  1  0.09948621  0.10823449  0.66819551  1  0  0.088046  0  0.945649  0  0  0.097217  0  1.007863  0  0  0.099708  0  1.005777  0  0.119649  0  0.120144  0.095283  0  1.009552  0
H  H26  1  0.60033475  0.66805727  0.10817466  1  0  0.088091  0  0.945753  0  0  0.097235  0  1.007974  0  0  0.099754  0  1.005867  0  0.11967  0  0.120113  0.09528  0  1.009684  0
H  H27  1  0.90051106  0.89176417  0.33180546  1  0  0.088043  0  0.94567  0  0  0.097209  0  1.007891  0  0  0.099701  0  1.005805  0  0.11969  0  0.12014  0.095276  0  1.009578  0
H  H28  1  0.61258767  0.16845331  0.91468917  1  0  0.108699  0  0.954987  0  0  0.115114  0  1.020068  0  0  0.119454  0  1.017336  0  0.100611  0  0.106371  0.111975  0  1.022209  0
H  H29  1  0.88716104  0.08521216  0.83177070  1  0  0.108602  0  0.955098  0  0  0.11486  0  1.020335  0  0  0.119213  0  1.017598  0  0.101487  0  0.10622  0.111719  0  1.022475  0
H  H30  1  0.38741090  0.83154534  0.08531030  1  0  0.108731  0  0.954939  0  0  0.115123  0  1.020047  0  0  0.119458  0  1.017318  0  0.100618  0  0.10638  0.111983  0  1.022188  0
H  H31  1  0.11283793  0.91478494  0.16823015  1  0  0.108596  0  0.955047  0  0  0.114857  0  1.020279  0  0  0.119211  0  1.017539  0  0.101465  0  0.106228  0.111717  0  1.022417  0
H  H32  1  0.62436534  0.39992917  0.31514601  1  0  0.126005  0  0.95085  0  0  0.142965  0  1.015637  0  0  0.14541  0  1.014794  0  0.043199  0  0.091722  0.141229  0  1.01624  0
H  H33  1  0.87609494  0.68445592  0.60036336  1  0  0.125753  0  0.951544  0  0  0.142746  0  1.016287  0  0  0.145179  0  1.01546  0  0.038529  0  0.09143  0.141009  0  1.016886  0
H  H34  1  0.37563713  0.60006948  0.68485492  1  0  0.126015  0  0.950808  0  0  0.142982  0  1.015584  0  0  0.145422  0  1.014746  0  0.043191  0  0.091735  0.141252  0  1.016182  0
H  H35  1  0.12390022  0.31554585  0.39963968  1  0  0.125818  0  0.951457  0  0  0.142794  0  1.016211  0  0  0.145227  0  1.015385  0  0.038416  0  0.091398  0.141057  0  1.016811  0
H  H36  1  0.56107840  0.33922907  0.25622195  1  0  0.146698  0  0.933529  0  0  0.167233  0  0.99116  0  0  0.169794  0  0.990315  0  0.055967  0  0.103601  0.165384  0  0.991837  0
H  H37  1  0.93904802  0.74407138  0.66047312  1  0  0.14661  0  0.934287  0  0  0.167272  0  0.991682  0  0  0.169837  0  0.990835  0  0.05503  0  0.103628  0.165425  0  0.992359  0
H  H38  1  0.43892407  0.66076959  0.74377898  1  0  0.146692  0  0.933524  0  0  0.16722  0  0.991166  0  0  0.16978  0  0.990321  0  0.055955  0  0.103591  0.165371  0  0.991844  0
H  H39  1  0.06094524  0.25593271  0.33952835  1  0  0.146617  0  0.934244  0  0  0.167265  0  0.991653  0  0  0.169827  0  0.990811  0  0.054954  0  0.103608  0.165417  0  0.99233  0
H  H40  1  0.73775368  0.27385763  0.32816982  1  0  0.143091  0  0.966359  0  0  0.158941  0  1.029572  0  0  0.161956  0  1.028328  0  0.093331  0  0.094203  0.156756  0  1.030517  0
H  H41  1  0.76253354  0.67170072  0.72613930  1  0  0.142962  0  0.96618  0  0  0.158866  0  1.029353  0  0  0.161847  0  1.028143  0  0.090856  0  0.094019  0.15671  0  1.030276  0
H  H42  1  0.26224769  0.72614025  0.67183165  1  0  0.143129  0  0.966298  0  0  0.158957  0  1.029536  0  0  0.161977  0  1.028286  0  0.093328  0  0.094191  0.156772  0  1.030483  0
H  H43  1  0.23745692  0.32830415  0.27386217  1  0  0.14297  0  0.966152  0  0  0.158867  0  1.029328  0  0  0.161848  0  1.028119  0  0.090787  0  0.094002  0.156712  0  1.030248  0
H  H44  1  0.56539440  0.46459307  0.86656890  1  0  0.152091  0  0.952536  0  0  0.168524  0  1.012741  0  0  0.171649  0  1.011333  0  0.076242  0  0.099129  0.166271  0  1.013774  0
H  H45  1  0.93463583  0.13350385  0.53529290  1  0  0.152222  0  0.952428  0  0  0.168825  0  1.012429  0  0  0.171949  0  1.01102  0  0.075272  0  0.099243  0.166571  0  1.013473  0
H  H46  1  0.43460596  0.53540869  0.13343143  1  0  0.152102  0  0.952522  0  0  0.168533  0  1.012716  0  0  0.171658  0  1.011309  0  0.076238  0  0.099126  0.166281  0  1.01375  0
H  H47  1  0.06535723  0.86650103  0.46470755  1  0  0.152225  0  0.952445  0  0  0.168812  0  1.01246  0  0  0.171939  0  1.011051  0  0.07522  0  0.099263  0.166558  0  1.013504  0
H  H48  1  0.74186369  0.49273225  0.76141533  1  0  0.12636  0  0.956667  0  0  0.142939  0  1.023863  0  0  0.145003  0  1.023729  0  0.051203  0  0.092898  0.141459  0  1.023998  0
H  H49  1  0.75857646  0.23888173  0.50724462  1  0  0.126531  0  0.955802  0  0  0.14309  0  1.023129  0  0  0.145161  0  1.022986  0  0.048855  0  0.092749  0.141602  0  1.023274  0
H  H50  1  0.25813627  0.50727107  0.23858428  1  0  0.126335  0  0.956744  0  0  0.142902  0  1.02394  0  0  0.144966  0  1.023806  0  0.051236  0  0.09286  0.141422  0  1.024075  0
H  H51  1  0.24141571  0.76112159  0.49275539  1  0  0.126522  0  0.955743  0  0  0.143074  0  1.023048  0  0  0.145146  0  1.022904  0  0.048934  0  0.092799  0.141588  0  1.023193  0
H  H52  1  0.73672813  0.36232293  0.85989484  1  0  0.119656  0  0.960018  0  0  0.136908  0  1.023932  0  0  0.139632  0  1.022564  0  0.043919  0  0.086584  0.13501  0  1.024894  0
H  H53  1  0.76328623  0.14025970  0.63743361  1  0  0.119291  0  0.960487  0  0  0.136627  0  1.024332  0  0  0.139354  0  1.022971  0  0.046756  0  0.0864  0.134726  0  1.025298  0
H  H54  1  0.26327314  0.63768039  0.14010592  1  0  0.119756  0  0.959918  0  0  0.136944  0  1.023884  0  0  0.139667  0  1.022519  0  0.043921  0  0.086621  0.135047  0  1.024847  0
H  H55  1  0.23671053  0.85974595  0.36256861  1  0  0.119234  0  0.960657  0  0  0.13655  0  1.02452  0  0  0.139279  0  1.023158  0  0.046844  0  0.086361  0.13465  0  1.025486  0
C  C56  1  0.75003103  0.52194985  0.47792744  1  0  0.099303  0  3.74219  0  0  0.111836  0  4.015285  0  0  0.115322  0  4.038069  0  -0.121206  0  -0.015679  0.109361  0  3.999921  0
C  C57  1  0.24998085  0.47804259  0.52206467  1  0  0.098926  0  3.742021  0  0  0.111435  0  4.015167  0  0  0.114921  0  4.037943  0  -0.120865  0  -0.015953  0.108961  0  3.999811  0
C  C58  1  0.69275151  0.61650778  0.48098101  1  0  -0.126182  0  3.780742  0  0  -0.149792  0  4.033437  0  0  -0.15298  0  4.055076  0  -0.016478  0  -0.099171  -0.14761  0  4.018823  0
C  C59  1  0.80737824  0.51859174  0.38365687  1  0  -0.125811  0  3.781872  0  0  -0.149346  0  4.03448  0  0  -0.152547  0  4.056166  0  -0.061852  0  -0.099363  -0.147125  0  4.019823  0
C  C60  1  0.30725808  0.38347843  0.51902181  1  0  -0.126016  0  3.780361  0  0  -0.149622  0  4.033045  0  0  -0.15281  0  4.054684  0  -0.016072  0  -0.099112  -0.147451  0  4.018431  0
C  C61  1  0.19263643  0.48141002  0.61633088  1  0  -0.125731  0  3.781782  0  0  -0.149266  0  4.034388  0  0  -0.152465  0  4.056068  0  -0.01967  0  -0.099305  -0.147048  0  4.019737  0
C  C62  1  0.69267973  0.70888322  0.38811238  1  0  -0.087062  0  3.71107  0  0  -0.106792  0  3.960955  0  0  -0.108363  0  3.981368  0  -0.066967  0  -0.084858  -0.105579  0  3.947009  0
C  C63  1  0.80765717  0.61142981  0.29125461  1  0  -0.087853  0  3.712586  0  0  -0.107336  0  3.962077  0  0  -0.108978  0  3.982535  0  -0.060067  0  -0.084799  -0.106051  0  3.94809  0
C  C64  1  0.30732256  0.29110610  0.61189455  1  0  -0.087054  0  3.710905  0  0  -0.106789  0  3.960782  0  0  -0.108364  0  3.981194  0  -0.067929  0  -0.084822  -0.105577  0  3.946843  0
C  C65  1  0.19234799  0.38857351  0.70873898  1  0  -0.087805  0  3.712635  0  0  -0.107259  0  3.962121  0  0  -0.108891  0  3.982587  0  -0.059757  0  -0.084788  -0.105975  0  3.948135  0
C  C66  1  0.75022095  0.70793231  0.29190522  1  0  0.02531  0  3.785763  0  0  0.039693  0  4.017165  0  0  0.038681  0  4.04062  0  0.065235  0  -0.014356  0.040374  0  4.001128  0
C  C67  1  0.24977812  0.29206945  0.70809529  1  0  0.025226  0  3.785965  0  0  0.039553  0  4.017384  0  0  0.038553  0  4.040815  0  0.06533  0  -0.014397  0.040234  0  4.001346  0
C  C68  1  0.75021293  0.80618813  0.19368859  1  0  0.102184  0  3.779051  0  0  0.114795  0  4.012438  0  0  0.118024  0  4.035485  0  -0.01183  0  0.008766  0.112674  0  3.99671  0
C  C69  1  0.24978374  0.19381286  0.80631263  1  0  0.102092  0  3.779167  0  0  0.114772  0  4.012485  0  0  0.117999  0  4.035532  0  -0.011828  0  0.008707  0.112653  0  3.996756  0
C  C70  1  0.62981397  0.89540606  0.18600009  1  0  -0.181194  0  3.637934  0  0  -0.20776  0  3.884222  0  0  -0.213917  0  3.903039  0  -0.064158  0  -0.07753  -0.203636  0  3.871593  0
C  C71  1  0.87061466  0.81382958  0.10456734  1  0  -0.182021  0  3.63726  0  0  -0.208751  0  3.883679  0  0  -0.214909  0  3.902471  0  -0.048873  0  -0.078132  -0.204617  0  3.87106  0
C  C72  1  0.37018619  0.10459648  0.81399988  1  0  -0.18107  0  3.637828  0  0  -0.207625  0  3.884118  0  0  -0.213782  0  3.902937  0  -0.063798  0  -0.077483  -0.203501  0  3.871488  0
C  C73  1  0.12938240  0.18616985  0.89543395  1  0  -0.181981  0  3.637213  0  0  -0.208685  0  3.883634  0  0  -0.214842  0  3.902426  0  -0.048966  0  -0.078094  -0.204551  0  3.871014  0
C  C74  1  0.63389397  0.98698921  0.09135921  1  0  0.208979  0  3.784927  0  0  0.208563  0  4.033896  0  0  0.214697  0  4.052511  0  0.533607  0  0.119743  0.204435  0  4.021152  0
C  C75  1  0.86644474  0.90853136  0.01302910  1  0  0.208983  0  3.783536  0  0  0.208359  0  4.032394  0  0  0.214487  0  4.050983  0  0.538313  0  0.119658  0.204233  0  4.019668  0
C  C76  1  0.36610639  0.01301255  0.90864046  1  0  0.208871  0  3.784906  0  0  0.208358  0  4.033979  0  0  0.214491  0  4.052599  0  0.533352  0  0.119702  0.204232  0  4.021231  0
C  C77  1  0.13355473  0.09146885  0.98697147  1  0  0.209015  0  3.783429  0  0  0.208285  0  4.03243  0  0  0.214413  0  4.051018  0  0.538346  0  0.119633  0.20416  0  4.019703  0
C  C78  1  0.51018515  0.08384917  0.07729370  1  0  0.07707  0  3.739371  0  0  0.086823  0  3.97228  0  0  0.09119  0  3.993581  0  -0.011063  0  0.015259  0.0841  0  3.95774  0
C  C79  1  0.99003229  0.92255624  0.91622354  1  0  0.076819  0  3.739495  0  0  0.087183  0  3.971565  0  0  0.09157  0  3.992819  0  -0.019386  0  0.014913  0.084446  0  3.957044  0
C  C80  1  0.48981802  0.91615182  0.92270531  1  0  0.077086  0  3.739393  0  0  0.086953  0  3.972199  0  0  0.091321  0  3.993498  0  -0.011051  0  0.015271  0.084229  0  3.95766  0
C  C81  1  0.00997298  0.07744164  0.08377739  1  0  0.076868  0  3.739381  0  0  0.087269  0  3.971449  0  0  0.091658  0  3.992701  0  -0.019376  0  0.014954  0.084531  0  3.956931  0
C  C82  1  0.38508526  0.09217484  0.15854010  1  0  -0.145601  0  3.67592  0  0  -0.166986  0  3.928379  0  0  -0.175023  0  3.948722  0  -0.008032  0  -0.079752  -0.16182  0  3.914838  0
C  C83  1  0.11524954  0.84130087  0.90786871  1  0  -0.145586  0  3.676039  0  0  -0.167304  0  3.928297  0  0  -0.175288  0  3.948659  0  -0.005552  0  -0.079685  -0.162134  0  3.914761  0
C  C84  1  0.61491901  0.90782692  0.84146103  1  0  -0.145626  0  3.675993  0  0  -0.167039  0  3.928453  0  0  -0.175077  0  3.948796  0  -0.008193  0  -0.07973  -0.161874  0  3.914913  0
C  C85  1  0.88475273  0.15869856  0.09213319  1  0  -0.145656  0  3.676099  0  0  -0.167387  0  3.928352  0  0  -0.175373  0  3.948718  0  -0.008115  0  -0.079712  -0.162216  0  3.914814  0
C  C86  1  0.27232683  0.18518240  0.13931827  1  0  0.148622  0  3.665202  0  0  0.115565  0  3.917228  0  0  0.123839  0  3.934414  0  0.446265  0  0.057128  0.110178  0  3.905649  0
C  C87  1  0.22767742  0.86056390  0.81484401  1  0  0.148382  0  3.665343  0  0  0.115085  0  3.91753  0  0  0.123351  0  3.934697  0  0.421232  0  0.056959  0.109712  0  3.905942  0
C  C88  1  0.72767683  0.81482170  0.86068045  1  0  0.148573  0  3.66529  0  0  0.115526  0  3.917314  0  0  0.1238  0  3.934496  0  0.445945  0  0.057085  0.110138  0  3.905738  0
C  C89  1  0.77232895  0.13943476  0.18515639  1  0  0.148394  0  3.665432  0  0  0.115104  0  3.917617  0  0  0.12337  0  3.934786  0  0.423793  0  0.05697  0.109738  0  3.906018  0
C  C90  1  0.39965343  0.26188540  0.96635082  1  0  0.124347  0  3.701936  0  0  0.096093  0  3.947628  0  0  0.102431  0  3.967743  0  0.402544  0  0.048332  0.092056  0  3.933977  0
C  C91  1  0.09987598  0.03360824  0.73819471  1  0  0.123401  0  3.703065  0  0  0.095152  0  3.948899  0  0  0.101496  0  3.969025  0  0.401657  0  0.047578  0.091104  0  3.935257  0
C  C92  1  0.60034953  0.73811637  0.03364717  1  0  0.124289  0  3.702121  0  0  0.096048  0  3.947805  0  0  0.102386  0  3.967917  0  0.402135  0  0.048319  0.092011  0  3.934154  0
C  C93  1  0.90012649  0.96639041  0.26180555  1  0  0.123416  0  3.703042  0  0  0.095162  0  3.948886  0  0  0.101508  0  3.969008  0  0.401115  0  0.047582  0.091114  0  3.935244  0
C  C94  1  0.51674900  0.17192104  0.97951282  1  0  -0.150184  0  3.727794  0  0  -0.1711  0  3.980397  0  0  -0.17905  0  4.002021  0  0.015203  0  -0.082956  -0.165984  0  3.965916  0
C  C95  1  0.98310610  0.02040987  0.82818132  1  0  -0.149745  0  3.727986  0  0  -0.170709  0  3.980319  0  0  -0.178685  0  4.001983  0  0.016129  0  -0.082451  -0.165578  0  3.965809  0
C  C96  1  0.48325347  0.82807761  0.02048811  1  0  -0.15022  0  3.72779  0  0  -0.171154  0  3.980389  0  0  -0.179098  0  4.002008  0  0.015738  0  -0.082977  -0.166037  0  3.965908  0
C  C97  1  0.01689487  0.97958957  0.17182076  1  0  -0.14981  0  3.728021  0  0  -0.170769  0  3.980337  0  0  -0.178745  0  4.002  0  0.016107  0  -0.082506  -0.165639  0  3.96583  0
C  C98  1  0.79719258  0.40460984  0.17722530  1  0  0.758757  0  3.821723  0  0  0.719553  0  4.106946  0  0  0.754384  0  4.0997  0  1.574588  0  0.216714  0.695879  0  4.111026  0
C  C99  1  0.70288978  0.82259533  0.59534298  1  0  0.757849  0  3.820352  0  0  0.718627  0  4.105988  0  0  0.75348  0  4.098706  0  1.568642  0  0.21639  0.694938  0  4.110099  0
C  C100  1  0.20280989  0.59538882  0.82277696  1  0  0.758693  0  3.821902  0  0  0.719576  0  4.106998  0  0  0.754407  0  4.099749  0  1.574718  0  0.216716  0.695896  0  4.111086  0
C  C101  1  0.29709868  0.17740722  0.40466126  1  0  0.75783  0  3.820478  0  0  0.718686  0  4.105992  0  0  0.753543  0  4.098706  0  1.573232  0  0.21637  0.694995  0  4.110105  0
C  C102  1  0.67452013  0.35068503  0.27640006  1  0  -0.462876  0  3.643986  0  0  -0.537227  0  3.874974  0  0  -0.545103  0  3.877309  0  -0.097287  0  -0.25081  -0.53165  0  3.873275  0
C  C103  1  0.82571502  0.72350524  0.64930573  1  0  -0.462786  0  3.644727  0  0  -0.537107  0  3.875454  0  0  -0.54496  0  3.877813  0  -0.08618  0  -0.250406  -0.531551  0  3.873743  0
C  C104  1  0.32548234  0.64931363  0.72360154  1  0  -0.46289  0  3.643923  0  0  -0.537243  0  3.874904  0  0  -0.545117  0  3.877234  0  -0.09736  0  -0.250786  -0.531674  0  3.873205  0
C  C105  1  0.17427844  0.27649808  0.35069610  1  0  -0.462844  0  3.644611  0  0  -0.537145  0  3.875318  0  0  -0.545003  0  3.87768  0  -0.090435  0  -0.2503  -0.531586  0  3.873607  0
C  C106  1  0.81220571  0.46284754  0.90273015  1  0  0.759593  0  3.812817  0  0  0.720662  0  4.096669  0  0  0.755184  0  4.089681  0  1.563623  0  0.213727  0.697193  0  4.100596  0
C  C107  1  0.68755426  0.09736089  0.53721051  1  0  0.760026  0  3.812897  0  0  0.720799  0  4.096898  0  0  0.755378  0  4.08986  0  1.571565  0  0.21358  0.697308  0  4.100852  0
C  C108  1  0.18779055  0.53715500  0.09727102  1  0  0.759672  0  3.812694  0  0  0.720732  0  4.096532  0  0  0.755242  0  4.089562  0  1.563496  0  0.213779  0.697259  0  4.100467  0
C  C109  1  0.31243201  0.90264010  0.46279944  1  0  0.759971  0  3.812935  0  0  0.720677  0  4.097046  0  0  0.755254  0  4.090014  0  1.562691  0  0.213499  0.697186  0  4.100999  0
C  C110  1  0.70683763  0.44348422  0.84524615  1  0  -0.461762  0  3.665226  0  0  -0.536511  0  3.89909  0  0  -0.543903  0  3.900677  0  -0.082069  0  -0.251823  -0.531276  0  3.897882  0
C  C111  1  0.79323924  0.15491438  0.55641393  1  0  -0.462033  0  3.664569  0  0  -0.53685  0  3.898231  0  0  -0.544272  0  3.899819  0  -0.081139  0  -0.251816  -0.531603  0  3.897022  0
C  C112  1  0.29316233  0.55651910  0.15475413  1  0  -0.461845  0  3.665205  0  0  -0.53652  0  3.899074  0  0  -0.543907  0  3.900664  0  -0.082138  0  -0.251825  -0.531283  0  3.897868  0
C  C113  1  0.20675402  0.84508972  0.44358755  1  0  -0.461945  0  3.664707  0  0  -0.536696  0  3.89837  0  0  -0.544122  0  3.899955  0  -0.08141  0  -0.251829  -0.531449  0  3.897157  0
Br  Br114  1  0.75002858  0.39532471  0.60457080  1  0  -0.071516  0  1.203967  0  0  -0.052396  0  1.42028  0  0  -0.059381  0  1.417637  0  -0.076026  0  0.042391  -0.047219  0  1.42215  0
Br  Br115  1  0.24996794  0.60464673  0.39540394  1  0  -0.071421  0  1.204108  0  0  -0.052274  0  1.420382  0  0  -0.059257  0  1.417735  0  -0.076041  0  0.042472  -0.047098  0  1.422253  0
N  N116  1  0.27833778  0.26864981  0.04485264  1  0  -0.309653  0  3.270852  0  0  -0.225149  0  3.540251  0  0  -0.245314  0  3.555227  0  -1.255332  0  -0.330998  -0.211654  0  3.53006  0
N  N117  1  0.22126099  0.95508607  0.73135152  1  0  -0.309234  0  3.269604  0  0  -0.224653  0  3.538866  0  0  -0.244788  0  3.553787  0  -1.230745  0  -0.330431  -0.211176  0  3.528705  0
N  N118  1  0.72166388  0.73135195  0.95514686  1  0  -0.309602  0  3.270924  0  0  -0.225102  0  3.540311  0  0  -0.245266  0  3.555282  0  -1.254863  0  -0.330982  -0.211608  0  3.530121  0
N  N119  1  0.77873848  0.04491414  0.26865104  1  0  -0.309192  0  3.269556  0  0  -0.224608  0  3.5388  0  0  -0.244741  0  3.553719  0  -1.230297  0  -0.330414  -0.211129  0  3.528636  0
N  N120  1  0.75015361  0.99295200  0.00701896  1  0  -0.374185  0  3.085179  0  0  -0.344681  0  3.350071  0  0  -0.355738  0  3.3653  0  -1.192955  0  -0.307379  -0.336889  0  3.339475  0
N  N121  1  0.24984565  0.00704898  0.99298058  1  0  -0.374182  0  3.085101  0  0  -0.344631  0  3.350068  0  0  -0.355688  0  3.365295  0  -1.192658  0  -0.307396  -0.336842  0  3.339477  0
O  O122  1  0.93007643  0.34845588  0.15238408  1  0  -0.648103  0  2.044335  0  0  -0.582809  0  2.304416  0  0  -0.612614  0  2.29227  0  -1.186086  0  -0.318229  -0.562135  0  2.312022  0
O  O123  1  0.56988095  0.84748525  0.65137229  1  0  -0.648309  0  2.04329  0  0  -0.582846  0  2.303171  0  0  -0.612608  0  2.290943  0  -1.18334  0  -0.318126  -0.562187  0  2.310801  0
O  O124  1  0.06992584  0.65154355  0.84761849  1  0  -0.648081  0  2.044406  0  0  -0.582813  0  2.304446  0  0  -0.612629  0  2.292327  0  -1.186076  0  -0.318233  -0.562136  0  2.312056  0
O  O125  1  0.43011312  0.15251573  0.34862398  1  0  -0.6484  0  2.042981  0  0  -0.582951  0  2.302817  0  0  -0.612716  0  2.290585  0  -1.183172  0  -0.318176  -0.562299  0  2.310472  0
O  O126  1  0.75691092  0.50270937  0.12416756  1  0  -0.65701  0  2.057321  0  0  -0.588809  0  2.31394  0  0  -0.618421  0  2.300723  0  -1.186241  0  -0.320567  -0.568272  0  2.322292  0
O  O127  1  0.74313795  0.87552491  0.49733481  1  0  -0.656068  0  2.053462  0  0  -0.588535  0  2.310693  0  0  -0.618133  0  2.29744  0  -1.187023  0  -0.320754  -0.568011  0  2.319057  0
O  O128  1  0.24309155  0.49728929  0.87583337  1  0  -0.656969  0  2.057383  0  0  -0.588813  0  2.31398  0  0  -0.618426  0  2.300762  0  -1.186287  0  -0.320554  -0.568274  0  2.322333  0
O  O129  1  0.25686161  0.12447996  0.50266209  1  0  -0.655946  0  2.05381  0  0  -0.588487  0  2.311083  0  0  -0.61807  0  2.297798  0  -1.187067  0  -0.320707  -0.567964  0  2.319448  0
O  O130  1  0.94437022  0.39447255  0.93827194  1  0  -0.662808  0  2.062685  0  0  -0.592677  0  2.316823  0  0  -0.621841  0  2.303887  0  -1.19656  0  -0.318479  -0.572339  0  2.324968  0
O  O131  1  0.55526836  0.06178785  0.60557807  1  0  -0.662567  0  2.062563  0  0  -0.592021  0  2.316624  0  0  -0.621238  0  2.303679  0  -1.196511  0  -0.318213  -0.571633  0  2.324699  0
O  O132  1  0.05562113  0.60553388  0.06173196  1  0  -0.662906  0  2.062516  0  0  -0.592694  0  2.316569  0  0  -0.621855  0  2.303648  0  -1.196449  0  -0.318497  -0.572358  0  2.324725  0
O  O133  1  0.44473001  0.93821158  0.39442835  1  0  -0.662523  0  2.0624  0  0  -0.591973  0  2.316491  0  0  -0.62119  0  2.303546  0  -1.196308  0  -0.318155  -0.57159  0  2.324584  0
O  O134  1  0.76396555  0.54660341  0.91024529  1  0  -0.635886  0  2.020256  0  0  -0.5705  0  2.268263  0  0  -0.599661  0  2.255289  0  -1.16528  0  -0.319019  -0.550332  0  2.276518  0
O  O135  1  0.73567964  0.08983917  0.45357500  1  0  -0.63602  0  2.022213  0  0  -0.570374  0  2.270486  0  0  -0.599582  0  2.257465  0  -1.174002  0  -0.31853  -0.550181  0  2.27875  0
O  O136  1  0.23602950  0.45340380  0.08975373  1  0  -0.635895  0  2.02034  0  0  -0.570522  0  2.268353  0  0  -0.599678  0  2.255384  0  -1.165222  0  -0.319039  -0.550353  0  2.27661  0
O  O137  1  0.26430672  0.91016648  0.54642464  1  0  -0.636054  0  2.022365  0  0  -0.570361  0  2.270644  0  0  -0.599566  0  2.257623  0  -1.165136  0  -0.318534  -0.550169  0  2.278907  0
