# generated using pymatgen
data_ErH12C11O8
_symmetry_space_group_name_H-M   'P 1'
_cell_length_a   6.70424394
_cell_length_b   9.95020691
_cell_length_c   10.47597454
_cell_angle_alpha   93.58861728
_cell_angle_beta   107.61585918
_cell_angle_gamma   108.56999059
_symmetry_Int_Tables_number   1
_chemical_formula_structural   ErH12C11O8
_chemical_formula_sum   'Er2 H24 C22 O16'
_cell_volume   621.53808437
_cell_formula_units_Z   2
loop_
 _symmetry_equiv_pos_site_id
 _symmetry_equiv_pos_as_xyz
  1  'x, y, z'
loop_
 _atom_site_type_symbol
 _atom_site_label
 _atom_site_symmetry_multiplicity
 _atom_site_fract_x
 _atom_site_fract_y
 _atom_site_fract_z
 _atom_site_occupancy
 _atom_site_hle17_bader_spin_density
 _atom_site_hle17_ddec_charge
 _atom_site_hle17_ddec_spin_density
 _atom_site_hle17_ddec_sum_bond_order
 _atom_site_hle17_magmom
 _atom_site_hse06_10hf_bader_spin_density
 _atom_site_hse06_10hf_ddec_charge
 _atom_site_hse06_10hf_ddec_spin_density
 _atom_site_hse06_10hf_ddec_sum_bond_order
 _atom_site_hse06_10hf_magmom
 _atom_site_hse06_bader_spin_density
 _atom_site_hse06_ddec_charge
 _atom_site_hse06_ddec_spin_density
 _atom_site_hse06_ddec_sum_bond_order
 _atom_site_hse06_magmom
 _atom_site_pbe_bader_spin_density
 _atom_site_pbe_cm5_charge
 _atom_site_pbe_ddec_charge
 _atom_site_pbe_ddec_spin_density
 _atom_site_pbe_ddec_sum_bond_order
 _atom_site_pbe_magmom
Er  Er0  1  0.76087634  0.58507222  0.42241047  1  0  2.292876  0  1.570742  0  0  2.14567  0  2.036285  0  0  2.281729  0  1.835178  0  0  1.506687  2.108388  0  2.066064  0
Er  Er1  1  0.23912156  0.41492247  0.57758499  1  0  2.292886  0  1.570689  0  0  2.145642  0  2.036283  0  0  2.281722  0  1.835125  0  0  1.506686  2.108361  0  2.066048  0
H  H2  1  0.59373209  0.67211879  0.04561399  1  0  0.126413  0  0.939955  0  0  0.133596  0  1.00468  0  0  0.138312  0  0.999935  0  0  0.116184  0.130197  0  1.007883  0
H  H3  1  0.40626504  0.32788022  0.95438537  1  0  0.126393  0  0.939949  0  0  0.133532  0  1.004716  0  0  0.138243  0  0.999988  0  0  0.116172  0.130136  0  1.007915  0
H  H4  1  0.59425678  0.95088515  0.74680079  1  0  0.10047  0  0.932314  0  0  0.113226  0  0.986356  0  0  0.117125  0  0.983043  0  0  0.108198  0.110328  0  0.988867  0
H  H5  1  0.40575190  0.04911494  0.25319993  1  0  0.100454  0  0.932344  0  0  0.113222  0  0.986371  0  0  0.117131  0  0.983048  0  0  0.108196  0.110325  0  0.988883  0
H  H6  1  0.80208489  0.16351317  0.93170796  1  0  0.086604  0  0.97195  0  0  0.095617  0  1.0386  0  0  0.097657  0  1.039259  0  0  0.101471  0.094316  0  1.037913  0
H  H7  1  0.19791909  0.83648693  0.06829375  1  0  0.086602  0  0.971938  0  0  0.095594  0  1.03862  0  0  0.097629  0  1.039281  0  0  0.101473  0.09429  0  1.037947  0
H  H8  1  0.91782273  0.13134369  0.17325098  1  0  0.101144  0  0.945075  0  0  0.110519  0  1.008189  0  0  0.113994  0  1.005534  0  0  0.107664  0.108058  0  1.009911  0
H  H9  1  0.08217849  0.86865426  0.82675103  1  0  0.101176  0  0.945107  0  0  0.110558  0  1.008197  0  0  0.114033  0  1.005546  0  0  0.107686  0.108095  0  1.009921  0
H  H10  1  0.97031286  0.34535167  0.80879723  1  0  0.107902  0  0.931108  0  0  0.120804  0  0.994147  0  0  0.122399  0  0.994524  0  0  0.107947  0.119341  0  0.994528  0
H  H11  1  0.02968468  0.65465386  0.19121019  1  0  0.107937  0  0.931078  0  0  0.120825  0  0.994106  0  0  0.122421  0  0.994483  0  0  0.107967  0.119364  0  0.99449  0
H  H12  1  0.69989150  0.33634078  0.81173374  1  0  0.116966  0  0.935296  0  0  0.130229  0  0.995327  0  0  0.133003  0  0.993827  0  0  0.107006  0.128307  0  0.996383  0
H  H13  1  0.30010450  0.66366470  0.18826669  1  0  0.116932  0  0.935408  0  0  0.130234  0  0.995373  0  0  0.132984  0  0.993903  0  0  0.107007  0.128312  0  0.99643  0
H  H14  1  0.86534816  0.59172509  0.93277226  1  0  0.070332  0  0.938945  0  0  0.090068  0  0.9971  0  0  0.090451  0  0.998448  0  0  0.092111  0.089904  0  0.995736  0
H  H15  1  0.13464313  0.40828041  0.06722916  1  0  0.070305  0  0.938989  0  0  0.090049  0  0.997153  0  0  0.090432  0  0.998504  0  0  0.092108  0.089885  0  0.995787  0
H  H16  1  0.13218814  0.60262557  0.92623666  1  0  0.071156  0  0.939829  0  0  0.089736  0  0.999472  0  0  0.090263  0  1.000633  0  0  0.091707  0.089321  0  0.998689  0
H  H17  1  0.86780590  0.39738209  0.07376732  1  0  0.071148  0  0.939738  0  0  0.089752  0  0.999373  0  0  0.09028  0  1.000531  0  0  0.091698  0.089338  0  0.998584  0
H  H18  1  0.63550898  0.73988896  0.60961809  1  0  0.436246  0  0.870327  0  0  0.405738  0  0.933006  0  0  0.416392  0  0.917683  0  0  0.298682  0.398228  0  0.944003  0
H  H19  1  0.36449597  0.26011005  0.39038185  1  0  0.436216  0  0.870384  0  0  0.405736  0  0.933  0  0  0.416393  0  0.917675  0  0  0.298701  0.398231  0  0.943994  0
H  H20  1  0.24169886  0.76546653  0.55705776  1  0  0.454144  0  0.834057  0  0  0.425076  0  0.892114  0  0  0.436485  0  0.875532  0  0  0.30775  0.417177  0  0.903729  0
H  H21  1  0.75830297  0.23453248  0.44294157  1  0  0.454172  0  0.834022  0  0  0.425102  0  0.892084  0  0  0.436506  0  0.87551  0  0  0.307757  0.417203  0  0.903701  0
H  H22  1  0.86109800  0.86203945  0.60755296  1  0  0.450603  0  0.84827  0  0  0.418248  0  0.913773  0  0  0.429866  0  0.896772  0  0  0.297555  0.410142  0  0.925726  0
H  H23  1  0.13890480  0.13795848  0.39244554  1  0  0.450698  0  0.848134  0  0  0.4183  0  0.91372  0  0  0.429921  0  0.896714  0  0  0.297589  0.410199  0  0.925668  0
H  H24  1  0.10789035  0.86187511  0.46276250  1  0  0.444924  0  0.849889  0  0  0.413533  0  0.912222  0  0  0.425584  0  0.894838  0  0  0.302154  0.405  0  0.924661  0
H  H25  1  0.89211305  0.13812390  0.53723617  1  0  0.444944  0  0.849852  0  0  0.413568  0  0.912163  0  0  0.425611  0  0.894791  0  0  0.302172  0.405035  0  0.924599  0
C  C26  1  0.83494445  0.87227108  0.26720052  1  0  0.692666  0  3.862356  0  0  0.641889  0  4.154836  0  0  0.676887  0  4.148048  0  0  0.227879  0.618307  0  4.160204  0
C  C27  1  0.16505522  0.12772686  0.73279928  1  0  0.692715  0  3.862403  0  0  0.641966  0  4.154853  0  0  0.676965  0  4.148062  0  0  0.227901  0.618351  0  4.160256  0
C  C28  1  0.76165464  0.89945687  0.12457482  1  0  -0.087966  0  3.773342  0  0  -0.062827  0  4.009842  0  0  -0.072772  0  4.032865  0  0  -0.018898  -0.056199  0  3.993686  0
C  C29  1  0.23834584  0.10054537  0.87542441  1  0  -0.088142  0  3.773431  0  0  -0.063002  0  4.009939  0  0  -0.072939  0  4.032952  0  0  -0.018942  -0.056365  0  3.993771  0
C  C30  1  0.63957672  0.77996433  0.02065716  1  0  -0.063295  0  3.685068  0  0  -0.101817  0  3.936363  0  0  -0.097923  0  3.952718  0  0  -0.071286  -0.103924  0  3.924325  0
C  C31  1  0.36042921  0.22003361  0.97934291  1  0  -0.06323  0  3.684987  0  0  -0.101711  0  3.93631  0  0  -0.097824  0  3.952666  0  0  -0.071269  -0.103818  0  3.92426  0
C  C32  1  0.58033950  0.79762781  0.88459107  1  0  -0.085945  0  3.782793  0  0  -0.060884  0  4.022106  0  0  -0.070753  0  4.044821  0  0  -0.022554  -0.05426  0  4.006183  0
C  C33  1  0.41965860  0.20237014  0.11541033  1  0  -0.085925  0  3.782714  0  0  -0.060891  0  4.022045  0  0  -0.070751  0  4.044757  0  0  -0.022551  -0.054262  0  4.006106  0
C  C34  1  0.63906722  0.93655076  0.85272257  1  0  -0.039053  0  3.697379  0  0  -0.068782  0  3.951318  0  0  -0.065454  0  3.968642  0  0  -0.072841  -0.070536  0  3.939432  0
C  C35  1  0.36093989  0.06344934  0.14727880  1  0  -0.039059  0  3.697315  0  0  -0.068782  0  3.951235  0  0  -0.065463  0  3.968559  0  0  -0.072827  -0.070532  0  3.939346  0
C  C36  1  0.75739113  0.05597865  0.95670266  1  0  -0.072249  0  3.761805  0  0  -0.084368  0  4.01956  0  0  -0.090023  0  4.043734  0  0  -0.085352  -0.08086  0  4.003171  0
C  C37  1  0.24261324  0.94401927  0.04329520  1  0  -0.072186  0  3.761726  0  0  -0.084296  0  4.019484  0  0  -0.089948  0  4.043658  0  0  -0.085337  -0.080799  0  4.00311  0
C  C38  1  0.82129724  0.03806845  0.09216492  1  0  -0.042659  0  3.709582  0  0  -0.070501  0  3.960449  0  0  -0.068035  0  3.980267  0  0  -0.071679  -0.071608  0  3.946782  0
C  C39  1  0.17870123  0.96192734  0.90783549  1  0  -0.042673  0  3.709524  0  0  -0.070523  0  3.960392  0  0  -0.06805  0  3.9802  0  0  -0.071686  -0.071614  0  3.946713  0
C  C40  1  0.45982532  0.66715233  0.77761234  1  0  0.650903  0  3.895499  0  0  0.600295  0  4.186988  0  0  0.633702  0  4.186165  0  0  0.206216  0.577047  0  4.192138  0
C  C41  1  0.54017807  0.33284669  0.22238824  1  0  0.650944  0  3.895427  0  0  0.600342  0  4.186927  0  0  0.633744  0  4.186113  0  0  0.20621  0.577102  0  4.192068  0
C  C42  1  0.81409154  0.46256733  0.67548254  1  0  0.793571  0  3.732015  0  0  0.75297  0  4.018874  0  0  0.789565  0  4.014812  0  0  0.241209  0.727839  0  4.028114  0
C  C43  1  0.18590775  0.53743276  0.32451635  1  0  0.793746  0  3.731813  0  0  0.753107  0  4.018711  0  0  0.78971  0  4.014627  0  0  0.241205  0.727994  0  4.027923  0
C  C44  1  0.86070010  0.40755617  0.80815686  1  0  -0.271532  0  3.62664  0  0  -0.310653  0  3.876069  0  0  -0.316019  0  3.881023  0  0  -0.1549  -0.306574  0  3.872202  0
C  C45  1  0.13929805  0.59245040  0.19184501  1  0  -0.27172  0  3.626859  0  0  -0.310794  0  3.876209  0  0  -0.31615  0  3.881171  0  0  -0.154976  -0.306712  0  3.872329  0
C  C46  1  0.97509364  0.52947889  0.93331617  1  0  -0.071667  0  3.626342  0  0  -0.109395  0  3.881629  0  0  -0.109372  0  3.894313  0  0  -0.155668  -0.109088  0  3.872248  0
C  C47  1  0.02490354  0.47052877  0.06668652  1  0  -0.071504  0  3.626326  0  0  -0.109294  0  3.881622  0  0  -0.109265  0  3.894303  0  0  -0.155614  -0.108998  0  3.872238  0
O  O48  1  0.72363346  0.75076706  0.28884025  1  0  -0.746685  0  2.072092  0  0  -0.69335  0  2.332396  0  0  -0.732418  0  2.317384  0  0  -0.415013  -0.674672  0  2.338898  0
O  O49  1  0.27636523  0.24923196  0.71116037  1  0  -0.746664  0  2.072051  0  0  -0.693323  0  2.332332  0  0  -0.7324  0  2.317323  0  0  -0.415011  -0.674638  0  2.338836  0
O  O50  1  0.00653262  0.96459413  0.35712881  1  0  -0.627867  0  1.997056  0  0  -0.565438  0  2.211036  0  0  -0.590128  0  2.198434  0  0  -0.300542  -0.547708  0  2.219147  0
O  O51  1  0.99346668  0.03540596  0.64286912  1  0  -0.627835  0  1.997037  0  0  -0.565465  0  2.211012  0  0  -0.590152  0  2.198417  0  0  -0.300562  -0.547718  0  2.219138  0
O  O52  1  0.41056523  0.54272847  0.80828739  1  0  -0.652625  0  1.983662  0  0  -0.608701  0  2.229206  0  0  -0.641646  0  2.220255  0  0  -0.354725  -0.592153  0  2.2342  0
O  O53  1  0.58943719  0.45727161  0.19171115  1  0  -0.652668  0  1.983631  0  0  -0.608736  0  2.229159  0  0  -0.641682  0  2.220216  0  0  -0.354724  -0.592199  0  2.234171  0
O  O54  1  0.40793234  0.68016752  0.65006999  1  0  -0.740177  0  2.112527  0  0  -0.669635  0  2.337208  0  0  -0.703327  0  2.325909  0  0  -0.357473  -0.651396  0  2.344435  0
O  O55  1  0.59207105  0.31983151  0.34993155  1  0  -0.740172  0  2.112536  0  0  -0.669661  0  2.337237  0  0  -0.703356  0  2.325942  0  0  -0.357499  -0.651433  0  2.344466  0
O  O56  1  0.62129473  0.46601195  0.61209787  1  0  -0.78414  0  2.102672  0  0  -0.727217  0  2.360563  0  0  -0.772499  0  2.348766  0  0  -0.397078  -0.708202  0  2.36662  0
O  O57  1  0.37870219  0.53398382  0.38789937  1  0  -0.784169  0  2.102527  0  0  -0.727258  0  2.360469  0  0  -0.772547  0  2.348676  0  0  -0.397048  -0.708256  0  2.366525  0
O  O58  1  0.96873437  0.51000692  0.62372201  1  0  -0.812748  0  2.099915  0  0  -0.757547  0  2.359165  0  0  -0.804748  0  2.348827  0  0  -0.413192  -0.737558  0  2.364606  0
O  O59  1  0.03126627  0.48998994  0.37627697  1  0  -0.812793  0  2.099878  0  0  -0.757599  0  2.359159  0  0  -0.804784  0  2.348788  0  0  -0.41319  -0.737613  0  2.364589  0
O  O60  1  0.77217769  0.75638016  0.58480348  1  0  -0.95676  0  1.890467  0  0  -0.910367  0  2.094986  0  0  -0.941084  0  2.055197  0  0  -0.671957  -0.896408  0  2.117898  0
O  O61  1  0.22782393  0.24361561  0.41519467  1  0  -0.956802  0  1.890391  0  0  -0.9104  0  2.094946  0  0  -0.941123  0  2.05515  0  0  -0.672006  -0.896446  0  2.117849  0
O  O62  1  0.11023980  0.76519640  0.48180904  1  0  -0.941607  0  1.905014  0  0  -0.885735  0  2.098774  0  0  -0.917226  0  2.060249  0  0  -0.657258  -0.870757  0  2.121604  0
O  O63  1  0.88976203  0.23480261  0.51818933  1  0  -0.941672  0  1.904967  0  0  -0.885791  0  2.098703  0  0  -0.917282  0  2.06019  0  0  -0.657293  -0.870815  0  2.121535  0
