# generated using pymatgen
data_CdH8C6(SN3)2
_symmetry_space_group_name_H-M   'P 1'
_cell_length_a   8.13487959
_cell_length_b   10.17476276
_cell_length_c   13.06605610
_cell_angle_alpha   90.00005128
_cell_angle_beta   90.00048224
_cell_angle_gamma   90.00002659
_symmetry_Int_Tables_number   1
_chemical_formula_structural   CdH8C6(SN3)2
_chemical_formula_sum   'Cd4 H32 C24 S8 N24'
_cell_volume   1081.48360267
_cell_formula_units_Z   4
loop_
 _symmetry_equiv_pos_site_id
 _symmetry_equiv_pos_as_xyz
  1  'x, y, z'
loop_
 _atom_site_type_symbol
 _atom_site_label
 _atom_site_symmetry_multiplicity
 _atom_site_fract_x
 _atom_site_fract_y
 _atom_site_fract_z
 _atom_site_occupancy
 _atom_site_hle17_bader_spin_density
 _atom_site_hle17_ddec_charge
 _atom_site_hle17_ddec_spin_density
 _atom_site_hle17_ddec_sum_bond_order
 _atom_site_hle17_magmom
 _atom_site_hse06_10hf_bader_spin_density
 _atom_site_hse06_10hf_ddec_charge
 _atom_site_hse06_10hf_ddec_spin_density
 _atom_site_hse06_10hf_ddec_sum_bond_order
 _atom_site_hse06_10hf_magmom
 _atom_site_hse06_bader_spin_density
 _atom_site_hse06_ddec_charge
 _atom_site_hse06_ddec_spin_density
 _atom_site_hse06_ddec_sum_bond_order
 _atom_site_hse06_magmom
 _atom_site_pbe_bader_spin_density
 _atom_site_pbe_cm5_charge
 _atom_site_pbe_ddec_charge
 _atom_site_pbe_ddec_spin_density
 _atom_site_pbe_ddec_sum_bond_order
 _atom_site_pbe_magmom
Cd  Cd0  1  0.74999983  0.41374963  0.49999692  1  0  0.836599  0  2.000084  0  0  0.645203  0  2.483808  0  0  0.687507  0  2.448001  0  0  0.628944  0.616214  0  2.508322  0
Cd  Cd1  1  0.25000004  0.08624579  0.00000069  1  0  0.836639  0  2.000082  0  0  0.64528  0  2.483781  0  0  0.687588  0  2.44797  0  0  0.628982  0.616296  0  2.508289  0
Cd  Cd2  1  0.24999985  0.58624987  0.49999948  1  0  0.836648  0  2.000071  0  0  0.645253  0  2.483815  0  0  0.687562  0  2.448004  0  0  0.628975  0.616264  0  2.508332  0
Cd  Cd3  1  0.74999908  0.91375215  0.00000000  1  0  0.836645  0  2.000103  0  0  0.645269  0  2.483838  0  0  0.687572  0  2.44803  0  0  0.628976  0.616283  0  2.508347  0
H  H4  1  0.35151497  0.00767232  0.58559385  1  0  0.105234  0  0.959856  0  0  0.104344  0  1.040763  0  0  0.108145  0  1.036045  0  0  0.133381  0.101714  0  1.043903  0
H  H5  1  0.85152841  0.49232764  0.91440841  1  0  0.105238  0  0.959785  0  0  0.104358  0  1.040684  0  0  0.108159  0  1.035966  0  0  0.1334  0.101728  0  1.043823  0
H  H6  1  0.14848562  0.00767415  0.41440777  1  0  0.10522  0  0.959824  0  0  0.104334  0  1.040721  0  0  0.108138  0  1.036004  0  0  0.133375  0.101705  0  1.043859  0
H  H7  1  0.64847375  0.49232811  0.08559160  1  0  0.105194  0  0.959803  0  0  0.104314  0  1.040707  0  0  0.108115  0  1.03599  0  0  0.13338  0.101683  0  1.043847  0
H  H8  1  0.64847241  0.99233013  0.41440637  1  0  0.105211  0  0.959759  0  0  0.104333  0  1.040656  0  0  0.108134  0  1.035938  0  0  0.133391  0.101703  0  1.043796  0
H  H9  1  0.14847127  0.50767383  0.08559181  1  0  0.10525  0  0.959805  0  0  0.104368  0  1.040708  0  0  0.108165  0  1.035993  0  0  0.133414  0.10174  0  1.043847  0
H  H10  1  0.85153004  0.99233026  0.58560011  1  0  0.105234  0  0.959825  0  0  0.104348  0  1.040736  0  0  0.108144  0  1.036014  0  0  0.133388  0.101719  0  1.043874  0
H  H11  1  0.35152962  0.50767041  0.91440327  1  0  0.105252  0  0.959789  0  0  0.104379  0  1.04068  0  0  0.108179  0  1.035963  0  0  0.133408  0.101749  0  1.04382  0
H  H12  1  0.11633211  0.11107032  0.68532268  1  0  0.112892  0  0.944905  0  0  0.130613  0  1.012118  0  0  0.131329  0  1.01271  0  0  0.104403  0.130049  0  1.011746  0
H  H13  1  0.61633062  0.38893151  0.81467988  1  0  0.112886  0  0.944828  0  0  0.130587  0  1.012073  0  0  0.131304  0  1.012665  0  0  0.104419  0.130024  0  1.011701  0
H  H14  1  0.38367224  0.11107114  0.31467826  1  0  0.11289  0  0.944889  0  0  0.130611  0  1.012108  0  0  0.131328  0  1.012698  0  0  0.104405  0.130049  0  1.011734  0
H  H15  1  0.88366533  0.38893120  0.18532235  1  0  0.112863  0  0.944948  0  0  0.130602  0  1.012143  0  0  0.131319  0  1.012734  0  0  0.104393  0.130039  0  1.011772  0
H  H16  1  0.88366634  0.88893114  0.31467908  1  0  0.112872  0  0.94488  0  0  0.130599  0  1.012094  0  0  0.131317  0  1.012683  0  0  0.10441  0.130036  0  1.011722  0
H  H17  1  0.38367152  0.61106995  0.18532111  1  0  0.112894  0  0.944866  0  0  0.13062  0  1.012088  0  0  0.131338  0  1.012679  0  0  0.104398  0.130058  0  1.011714  0
H  H18  1  0.61632990  0.88893032  0.68532121  1  0  0.112882  0  0.944864  0  0  0.130608  0  1.012086  0  0  0.131325  0  1.012677  0  0  0.104409  0.130046  0  1.011713  0
H  H19  1  0.11633189  0.61106633  0.81467787  1  0  0.112851  0  0.944896  0  0  0.130576  0  1.01212  0  0  0.131292  0  1.012711  0  0  0.104395  0.130013  0  1.011749  0
H  H20  1  0.07571419  0.27685794  0.64431867  1  0  0.103611  0  0.955078  0  0  0.120312  0  1.02587  0  0  0.120771  0  1.026321  0  0  0.097248  0.11993  0  1.02557  0
H  H21  1  0.57572054  0.22314388  0.85568444  1  0  0.103611  0  0.955073  0  0  0.120325  0  1.025847  0  0  0.120783  0  1.0263  0  0  0.097275  0.119946  0  1.025542  0
H  H22  1  0.42428656  0.27685882  0.35568391  1  0  0.103586  0  0.95509  0  0  0.120292  0  1.02588  0  0  0.12075  0  1.026334  0  0  0.097264  0.119911  0  1.025578  0
H  H23  1  0.92427901  0.22314354  0.14431768  1  0  0.103604  0  0.955026  0  0  0.120342  0  1.025771  0  0  0.120801  0  1.026221  0  0  0.097257  0.119959  0  1.025475  0
H  H24  1  0.92427688  0.72314451  0.35568385  1  0  0.103605  0  0.954974  0  0  0.120321  0  1.025759  0  0  0.12078  0  1.02621  0  0  0.097232  0.119939  0  1.025462  0
H  H25  1  0.42428160  0.77685759  0.14431579  1  0  0.103628  0  0.955048  0  0  0.120335  0  1.025844  0  0  0.120793  0  1.026296  0  0  0.09729  0.119953  0  1.025543  0
H  H26  1  0.57571927  0.72314461  0.64431555  1  0  0.103608  0  0.955092  0  0  0.120326  0  1.025864  0  0  0.120785  0  1.026315  0  0  0.097283  0.119944  0  1.025566  0
H  H27  1  0.07572067  0.77685400  0.85568331  1  0  0.103632  0  0.954993  0  0  0.120337  0  1.02578  0  0  0.120796  0  1.026231  0  0  0.097258  0.119956  0  1.025483  0
H  H28  1  0.18214432  0.24764555  0.76127466  1  0  0.10854  0  0.941111  0  0  0.12845  0  1.002088  0  0  0.129008  0  1.002384  0  0  0.101599  0.127959  0  1.001945  0
H  H29  1  0.68214297  0.25235631  0.73872824  1  0  0.108472  0  0.941171  0  0  0.128419  0  1.002118  0  0  0.128979  0  1.002409  0  0  0.101606  0.127927  0  1.001973  0
H  H30  1  0.31785764  0.24764528  0.23872790  1  0  0.108482  0  0.941163  0  0  0.128418  0  1.002123  0  0  0.128977  0  1.002415  0  0  0.101606  0.127927  0  1.00198  0
H  H31  1  0.81785290  0.25235606  0.26127313  1  0  0.108525  0  0.941132  0  0  0.128448  0  1.002103  0  0  0.129008  0  1.002396  0  0  0.101605  0.127957  0  1.00196  0
H  H32  1  0.81785290  0.75235689  0.23872786  1  0  0.108535  0  0.941125  0  0  0.128477  0  1.002072  0  0  0.129037  0  1.002362  0  0  0.101622  0.127983  0  1.001926  0
H  H33  1  0.31785917  0.74764614  0.26127122  1  0  0.108491  0  0.941227  0  0  0.128438  0  1.002175  0  0  0.128998  0  1.002465  0  0  0.101608  0.127945  0  1.002028  0
H  H34  1  0.68214204  0.75235520  0.76127233  1  0  0.108438  0  0.941179  0  0  0.128379  0  1.00214  0  0  0.128939  0  1.002432  0  0  0.101593  0.127889  0  1.001997  0
H  H35  1  0.18214432  0.74764246  0.73872633  1  0  0.108552  0  0.941117  0  0  0.128479  0  1.002082  0  0  0.12904  0  1.002373  0  0  0.101617  0.127989  0  1.001938  0
C  C36  1  0.41626235  0.32059955  0.61010574  1  0  0.289418  0  3.824119  0  0  0.254365  0  4.103552  0  0  0.272338  0  4.118251  0  0  0.201867  0.242396  0  4.093271  0
C  C37  1  0.91626421  0.17939749  0.88989381  1  0  0.289396  0  3.824042  0  0  0.254332  0  4.103488  0  0  0.272306  0  4.118186  0  0  0.201838  0.242364  0  4.093206  0
C  C38  1  0.08373597  0.32059936  0.38989381  1  0  0.289359  0  3.82425  0  0  0.254304  0  4.103686  0  0  0.272278  0  4.118383  0  0  0.201853  0.242334  0  4.093407  0
C  C39  1  0.58373654  0.17939796  0.11010445  1  0  0.289447  0  3.824082  0  0  0.254394  0  4.103508  0  0  0.272369  0  4.118203  0  0  0.201851  0.242424  0  4.093229  0
C  C40  1  0.58373733  0.67939995  0.38989525  1  0  0.289451  0  3.824114  0  0  0.254375  0  4.103568  0  0  0.27235  0  4.118264  0  0  0.201858  0.242408  0  4.093285  0
C  C41  1  0.08373055  0.82060103  0.11010795  1  0  0.289396  0  3.82411  0  0  0.254349  0  4.10354  0  0  0.272321  0  4.118241  0  0  0.201819  0.242378  0  4.09326  0
C  C42  1  0.91626371  0.67939818  0.61010565  1  0  0.289435  0  3.824154  0  0  0.254369  0  4.103599  0  0  0.272342  0  4.118301  0  0  0.201867  0.242397  0  4.09332  0
C  C43  1  0.41626437  0.82059957  0.88989195  1  0  0.289418  0  3.824191  0  0  0.254372  0  4.10361  0  0  0.272348  0  4.118305  0  0  0.201831  0.2424  0  4.093328  0
C  C44  1  0.39932395  0.10725401  0.58648028  1  0  0.138344  0  3.677085  0  0  0.080181  0  3.957  0  0  0.091541  0  3.969021  0  0  0.144299  0.072712  0  3.948609  0
C  C45  1  0.89933240  0.39274400  0.91351994  1  0  0.138383  0  3.676954  0  0  0.080202  0  3.95687  0  0  0.091562  0  3.968889  0  0  0.144291  0.072732  0  3.948482  0
C  C46  1  0.10067670  0.10725484  0.41351988  1  0  0.13842  0  3.677104  0  0  0.080259  0  3.956998  0  0  0.091612  0  3.969024  0  0  0.144325  0.072787  0  3.948611  0
C  C47  1  0.60066724  0.39274445  0.08647923  1  0  0.138402  0  3.676967  0  0  0.080224  0  3.956878  0  0  0.091584  0  3.9689  0  0  0.1443  0.072753  0  3.94849  0
C  C48  1  0.60066712  0.89274549  0.41351765  1  0  0.138511  0  3.677076  0  0  0.080332  0  3.95698  0  0  0.091695  0  3.968999  0  0  0.144333  0.072862  0  3.948592  0
C  C49  1  0.10066974  0.60725747  0.08647952  1  0  0.138357  0  3.677038  0  0  0.08017  0  3.956976  0  0  0.091535  0  3.968992  0  0  0.144267  0.072696  0  3.948589  0
C  C50  1  0.89933527  0.89274466  0.58648647  1  0  0.13846  0  3.677145  0  0  0.08029  0  3.957065  0  0  0.091664  0  3.969074  0  0  0.144368  0.072816  0  3.948677  0
C  C51  1  0.39933490  0.60725505  0.91351717  1  0  0.138369  0  3.67709  0  0  0.080179  0  3.957014  0  0  0.091541  0  3.969034  0  0  0.144265  0.072704  0  3.948625  0
C  C52  1  0.16343669  0.21180290  0.68301992  1  0  -0.157033  0  3.620037  0  0  -0.260105  0  3.864738  0  0  -0.256302  0  3.873678  0  0  -0.13732  -0.262506  0  3.858712  0
C  C53  1  0.66343887  0.28819994  0.81698212  1  0  -0.156898  0  3.620016  0  0  -0.259996  0  3.864707  0  0  -0.256194  0  3.873649  0  0  -0.137365  -0.2624  0  3.858685  0
C  C54  1  0.33656525  0.21180272  0.31698261  1  0  -0.156943  0  3.620037  0  0  -0.260035  0  3.864726  0  0  -0.25623  0  3.873665  0  0  -0.137339  -0.262445  0  3.858718  0
C  C55  1  0.83655949  0.28819961  0.18302004  1  0  -0.156959  0  3.620089  0  0  -0.260101  0  3.864772  0  0  -0.256299  0  3.873712  0  0  -0.137316  -0.262492  0  3.858722  0
C  C56  1  0.83655930  0.78819955  0.31698031  1  0  -0.156916  0  3.619933  0  0  -0.260045  0  3.86462  0  0  -0.256241  0  3.873556  0  0  -0.13733  -0.262438  0  3.858585  0
C  C57  1  0.33656327  0.71180153  0.18301811  1  0  -0.156962  0  3.620054  0  0  -0.260096  0  3.864771  0  0  -0.256294  0  3.87371  0  0  -0.137352  -0.262503  0  3.858759  0
C  C58  1  0.66343934  0.78819874  0.68301838  1  0  -0.156845  0  3.620022  0  0  -0.259969  0  3.864729  0  0  -0.256164  0  3.87367  0  0  -0.137318  -0.262375  0  3.858705  0
C  C59  1  0.16343897  0.71179891  0.81697942  1  0  -0.156955  0  3.619994  0  0  -0.260065  0  3.864723  0  0  -0.256262  0  3.873662  0  0  -0.137319  -0.262464  0  3.85868  0
S  S60  1  0.37648951  0.47651376  0.65398427  1  0  -0.466866  0  2.116047  0  0  -0.427838  0  2.484377  0  0  -0.444411  0  2.475024  0  0  -0.215623  -0.41607  0  2.490109  0
S  S61  1  0.87648455  0.02348326  0.84601507  1  0  -0.466876  0  2.115971  0  0  -0.42785  0  2.484306  0  0  -0.444423  0  2.474951  0  0  -0.215645  -0.416083  0  2.490039  0
S  S62  1  0.12351013  0.47651452  0.34601462  1  0  -0.466854  0  2.116036  0  0  -0.427821  0  2.484351  0  0  -0.444396  0  2.474996  0  0  -0.215644  -0.416053  0  2.490086  0
S  S63  1  0.62351365  0.02348576  0.15398461  1  0  -0.466887  0  2.116064  0  0  -0.42787  0  2.484405  0  0  -0.444444  0  2.47505  0  0  -0.21565  -0.416104  0  2.490136  0
S  S64  1  0.62351140  0.52348672  0.34601443  1  0  -0.466831  0  2.116007  0  0  -0.427786  0  2.484326  0  0  -0.444361  0  2.474973  0  0  -0.215628  -0.416019  0  2.490058  0
S  S65  1  0.12351145  0.97651526  0.15398592  1  0  -0.466838  0  2.116011  0  0  -0.427808  0  2.484314  0  0  -0.444382  0  2.47496  0  0  -0.215625  -0.416041  0  2.490048  0
S  S66  1  0.87648832  0.52348399  0.65398408  1  0  -0.46691  0  2.116061  0  0  -0.427873  0  2.484381  0  0  -0.444445  0  2.475027  0  0  -0.21566  -0.416103  0  2.490114  0
S  S67  1  0.37648849  0.97651472  0.84601485  1  0  -0.466886  0  2.116051  0  0  -0.427862  0  2.484362  0  0  -0.444439  0  2.475008  0  0  -0.21565  -0.416097  0  2.490095  0
N  N68  1  0.31925670  0.21227859  0.62848743  1  0  -0.087303  0  3.522223  0  0  0.015466  0  3.736896  0  0  -0.001661  0  3.760976  0  0  -0.239869  0.026784  0  3.720394  0
N  N69  1  0.81926084  0.28772136  0.87151314  1  0  -0.087448  0  3.522421  0  0  0.015344  0  3.737086  0  0  -0.001785  0  3.761168  0  0  -0.239877  0.026662  0  3.720583  0
N  N70  1  0.18074524  0.21227940  0.37151511  1  0  -0.087329  0  3.522291  0  0  0.015435  0  3.736979  0  0  -0.001693  0  3.76106  0  0  -0.239863  0.026755  0  3.720477  0
N  N71  1  0.68073874  0.28772189  0.12848673  1  0  -0.087358  0  3.522372  0  0  0.015427  0  3.737037  0  0  -0.001701  0  3.761119  0  0  -0.239864  0.026747  0  3.720537  0
N  N72  1  0.68073683  0.78772386  0.37151050  1  0  -0.087523  0  3.522485  0  0  0.015273  0  3.737158  0  0  -0.001858  0  3.76124  0  0  -0.23988  0.02659  0  3.720657  0
N  N73  1  0.18073884  0.71228010  0.12848709  1  0  -0.087397  0  3.522329  0  0  0.015406  0  3.73699  0  0  -0.001721  0  3.761072  0  0  -0.239851  0.026728  0  3.720485  0
N  N74  1  0.81926304  0.78772207  0.62849124  1  0  -0.087482  0  3.522417  0  0  0.015308  0  3.737093  0  0  -0.001824  0  3.761178  0  0  -0.239935  0.026631  0  3.720589  0
N  N75  1  0.31926094  0.71227662  0.87151044  1  0  -0.08743  0  3.522427  0  0  0.01537  0  3.737074  0  0  -0.00176  0  3.761158  0  0  -0.239866  0.026693  0  3.720571  0
N  N76  1  0.54932727  0.27842264  0.55893761  1  0  -0.336086  0  3.221346  0  0  -0.258877  0  3.509027  0  0  -0.277522  0  3.524129  0  0  -0.268033  -0.246465  0  3.498755  0
N  N77  1  0.04932979  0.22157328  0.94106076  1  0  -0.336032  0  3.221263  0  0  -0.258844  0  3.508984  0  0  -0.277486  0  3.524079  0  0  -0.268009  -0.246435  0  3.498715  0
N  N78  1  0.95067108  0.27842068  0.44106072  1  0  -0.336073  0  3.221503  0  0  -0.258853  0  3.509163  0  0  -0.2775  0  3.524269  0  0  -0.268017  -0.246442  0  3.498893  0
N  N79  1  0.45066847  0.22157285  0.05893718  1  0  -0.336164  0  3.221237  0  0  -0.258982  0  3.508967  0  0  -0.277622  0  3.524057  0  0  -0.268075  -0.246571  0  3.498698  0
N  N80  1  0.45066995  0.72157588  0.44106185  1  0  -0.33614  0  3.221341  0  0  -0.258934  0  3.509044  0  0  -0.277577  0  3.524139  0  0  -0.268082  -0.246523  0  3.498772  0
N  N81  1  0.95066620  0.77842425  0.05893870  1  0  -0.336117  0  3.22137  0  0  -0.258923  0  3.509059  0  0  -0.27757  0  3.524167  0  0  -0.268034  -0.246512  0  3.498791  0
N  N82  1  0.04932983  0.72157588  0.55893951  1  0  -0.336098  0  3.221366  0  0  -0.25889  0  3.509049  0  0  -0.277539  0  3.524157  0  0  -0.268061  -0.24648  0  3.498781  0
N  N83  1  0.54932998  0.77842468  0.94105998  1  0  -0.336162  0  3.22144  0  0  -0.258978  0  3.509151  0  0  -0.277621  0  3.524247  0  0  -0.268084  -0.246567  0  3.498879  0
N  N84  1  0.53858081  0.14470452  0.54369499  1  0  -0.229062  0  2.95923  0  0  -0.209538  0  3.244086  0  0  -0.217018  0  3.258616  0  0  -0.236434  -0.204635  0  3.234013  0
N  N85  1  0.03858853  0.35529041  0.95630410  1  0  -0.229048  0  2.958998  0  0  -0.209513  0  3.243877  0  0  -0.216994  0  3.258404  0  0  -0.23643  -0.204612  0  3.233806  0
N  N86  1  0.96142115  0.14470455  0.45630631  1  0  -0.229081  0  2.959358  0  0  -0.20956  0  3.244213  0  0  -0.217038  0  3.258739  0  0  -0.236444  -0.204657  0  3.234141  0
N  N87  1  0.46141104  0.35529095  0.04369624  1  0  -0.228981  0  2.959002  0  0  -0.209448  0  3.243872  0  0  -0.216928  0  3.258402  0  0  -0.236375  -0.204544  0  3.2338  0
N  N88  1  0.46141150  0.85529400  0.45629988  1  0  -0.229042  0  2.959188  0  0  -0.209507  0  3.244043  0  0  -0.216988  0  3.258571  0  0  -0.236386  -0.204603  0  3.23397  0
N  N89  1  0.96141238  0.64470811  0.04369537  1  0  -0.229018  0  2.959139  0  0  -0.209481  0  3.243998  0  0  -0.216962  0  3.258524  0  0  -0.236405  -0.204577  0  3.233927  0
N  N90  1  0.03858960  0.85529397  0.54370387  1  0  -0.22907  0  2.959228  0  0  -0.209535  0  3.244085  0  0  -0.217017  0  3.25861  0  0  -0.236423  -0.204631  0  3.234014  0
N  N91  1  0.53858987  0.64470659  0.95630092  1  0  -0.228978  0  2.95916  0  0  -0.209439  0  3.244023  0  0  -0.216919  0  3.258552  0  0  -0.236362  -0.204535  0  3.233949  0
