# generated using pymatgen
data_AlH12(C2O)12
_symmetry_space_group_name_H-M   'P 1'
_cell_length_a   4.00096242
_cell_length_b   29.01566026
_cell_length_c   29.01563378
_cell_angle_alpha   119.99375963
_cell_angle_beta   89.99999800
_cell_angle_gamma   89.99852156
_symmetry_Int_Tables_number   1
_chemical_formula_structural   AlH12(C2O)12
_chemical_formula_sum   'Al2 H24 C48 O24'
_cell_volume   2917.33920668
_cell_formula_units_Z   2
loop_
 _symmetry_equiv_pos_site_id
 _symmetry_equiv_pos_as_xyz
  1  'x, y, z'
loop_
 _atom_site_type_symbol
 _atom_site_label
 _atom_site_symmetry_multiplicity
 _atom_site_fract_x
 _atom_site_fract_y
 _atom_site_fract_z
 _atom_site_occupancy
 _atom_site_pbe_bader_charge
 _atom_site_pbe_bader_spin_density
 _atom_site_pbe_cm5_charge
 _atom_site_pbe_ddec_charge
 _atom_site_pbe_ddec_spin_density
 _atom_site_pbe_ddec_sum_bond_order
 _atom_site_pbe_magmom
Al  Al0  1  0.00018680  0.50000733  0.49999530  1  2.503871  0  0.429097  1.599122  0  2.544339  0
Al  Al1  1  0.99916819  0.16665778  0.83334800  1  2.503881  0  0.428987  1.599685  0  2.544218  0
H  H2  1  0.19918462  0.22761352  0.64791732  1  0.118669  0  0.116467  0.146525  0  0.972228  0
H  H3  1  0.80064854  0.35203599  0.77238315  1  0.118908  0  0.116344  0.146282  0  0.972401  0
H  H4  1  0.80068161  0.31458725  0.56093848  1  0.11963  0  0.116362  0.146452  0  0.972284  0
H  H5  1  0.19927495  0.43904968  0.68539631  1  0.117982  0  0.116432  0.14654  0  0.9722  0
H  H6  1  0.19915026  0.92027785  0.77238206  1  0.102821  0  0.116457  0.146529  0  0.972477  0
H  H7  1  0.80064529  0.92034708  0.64796521  1  0.103168  0  0.116334  0.146239  0  0.972461  0
H  H8  1  0.80062909  0.74634546  0.68539567  1  0.102661  0  0.116379  0.146489  0  0.972391  0
H  H9  1  0.19923855  0.74635510  0.56093734  1  0.102622  0  0.116429  0.146432  0  0.972444  0
H  H10  1  0.19924687  0.35209155  0.07969789  1  0.102157  0  0.116415  0.146494  0  0.972332  0
H  H11  1  0.80074626  0.22762726  0.07968796  1  0.102953  0  0.116427  0.14648  0  0.972198  0
H  H12  1  0.80071189  0.43906967  0.25364327  1  0.102444  0  0.116389  0.146424  0  0.972352  0
H  H13  1  0.19929570  0.31462363  0.25366293  1  0.102949  0  0.116402  0.146507  0  0.972399  0
H  H14  1  0.14742610  0.15920080  0.71911136  1  0.629496  0  0.315716  0.357225  0  0.946117  0
H  H15  1  0.85150808  0.28084849  0.84081924  1  0.626963  0  0.315433  0.357165  0  0.946891  0
H  H16  1  0.85213496  0.38578286  0.49252217  1  0.628335  0  0.31572  0.357247  0  0.946305  0
H  H17  1  0.14806825  0.50748244  0.61421225  1  0.628213  0  0.315745  0.357472  0  0.945991  0
H  H18  1  0.14737062  0.05987056  0.84080831  1  0.627708  0  0.3158  0.357626  0  0.946274  0
H  H19  1  0.85148095  0.05995404  0.71916059  1  0.627303  0  0.3155  0.35719  0  0.946978  0
H  H20  1  0.85209709  0.60675010  0.61421142  1  0.627624  0  0.315797  0.357409  0  0.946265  0
H  H21  1  0.14804375  0.60675282  0.49251313  1  0.627128  0  0.315579  0.357212  0  0.94629  0
H  H22  1  0.14744768  0.28088891  0.94010472  1  0.628398  0  0.31579  0.357084  0  0.946517  0
H  H23  1  0.85153712  0.15918522  0.94007967  1  0.6268  0  0.315431  0.356988  0  0.946683  0
H  H24  1  0.85216590  0.50747786  0.39324172  1  0.627126  0  0.315695  0.357062  0  0.946566  0
H  H25  1  0.14810165  0.38579642  0.39326435  1  0.627556  0  0.315708  0.3574  0  0.946176  0
C  C26  1  0.50016772  0.45839723  0.41677714  1  1.380203  0  0.25295  0.647268  0  4.056812  0
C  C27  1  0.50016297  0.45840079  0.54160973  1  1.396139  0  0.25296  0.647212  0  4.057  0
C  C28  1  0.50015382  0.58322260  0.54159145  1  1.38009  0  0.253151  0.647566  0  4.056595  0
C  C29  1  0.49921452  0.20827879  0.79174805  1  1.392878  0  0.252417  0.646619  0  4.059368  0
C  C30  1  0.49921616  0.08343826  0.79173129  1  1.378569  0  0.25284  0.647377  0  4.058649  0
C  C31  1  0.49921227  0.20824424  0.91656361  1  1.38047  0  0.252734  0.646957  0  4.05878  0
C  C32  1  0.49969917  0.23692284  0.76304536  1  0.026737  0  -0.051692  -0.350597  0  3.988431  0
C  C33  1  0.32226114  0.21687810  0.71378499  1  0.519706  0  0.099824  0.353549  0  4.060204  0
C  C34  1  0.33217617  0.24392882  0.68554529  1  0.053816  0  -0.10505  -0.284359  0  3.909007  0
C  C35  1  0.49997627  0.29296127  0.70701095  1  0.08011  0  0.015277  0.197367  0  4.141386  0
C  C36  1  0.66767901  0.31440850  0.75605087  1  0.055373  0  -0.104693  -0.283853  0  3.908946  0
C  C37  1  0.67726939  0.28617188  0.78310549  1  0.520044  0  0.099464  0.353558  0  4.059819  0
C  C38  1  0.49996858  0.32118658  0.67880008  1  -0.046749  0  -0.025287  -0.081926  0  4.042056  0
C  C39  1  0.49995127  0.34546305  0.65452217  1  -0.267462  0  -0.024908  -0.08143  0  4.041803  0
C  C40  1  0.49995109  0.37368047  0.62630540  1  0.081049  0  0.015252  0.19755  0  4.140796  0
C  C41  1  0.66771263  0.35221962  0.57726617  1  0.053462  0  -0.104831  -0.284171  0  3.909135  0
C  C42  1  0.67752008  0.38045831  0.55022042  1  0.518836  0  0.099581  0.353321  0  4.06044  0
C  C43  1  0.50006572  0.42972159  0.57027726  1  0.026306  0  -0.051872  -0.350755  0  3.987421  0
C  C44  1  0.32254416  0.44977582  0.61953357  1  0.519671  0  0.099595  0.353603  0  4.060293  0
C  C45  1  0.33223941  0.42272396  0.64776539  1  0.055304  0  -0.104941  -0.284519  0  3.909282  0
C  C46  1  0.49966635  0.02609318  0.76308263  1  0.062636  0  -0.052141  -0.351267  0  3.987955  0
C  C47  1  0.32223852  0.99687325  0.78312665  1  0.61006  0  0.099833  0.353787  0  4.060619  0
C  C48  1  0.33214624  0.94159162  0.75607425  1  -0.003853  0  -0.105003  -0.284157  0  3.909209  0
C  C49  1  0.49992585  0.91403879  0.70703914  1  -0.019555  0  0.015206  0.197176  0  4.141396  0
C  C50  1  0.66768037  0.94163668  0.68559255  1  0.090687  0  -0.104639  -0.283657  0  3.908793  0
C  C51  1  0.67726296  0.99691973  0.71383236  1  0.484392  0  0.099386  0.353482  0  4.05982  0
C  C52  1  0.49988856  0.85761065  0.67880718  1  -0.211164  0  -0.025227  -0.08186  0  4.041056  0
C  C53  1  0.49987055  0.80905096  0.65451928  1  0.007184  0  -0.025024  -0.081609  0  4.040825  0
C  C54  1  0.49990575  0.75262122  0.62629926  1  -0.012426  0  0.015087  0.197314  0  4.141131  0
C  C55  1  0.66768299  0.72504572  0.64776703  1  0.081968  0  -0.104683  -0.284112  0  3.909448  0
C  C56  1  0.67748324  0.66976735  0.61953074  1  0.485131  0  0.09939  0.353053  0  4.060985  0
C  C57  1  0.50006105  0.64057218  0.57027007  1  0.06073  0  -0.052053  -0.351003  0  3.987771  0
C  C58  1  0.32252601  0.66977193  0.55021202  1  0.611636  0  0.099629  0.353568  0  4.060558  0
C  C59  1  0.33220857  0.72504790  0.57725760  1  -0.001564  0  -0.10494  -0.284169  0  3.90939  0
C  C60  1  0.49969709  0.23695910  0.97391008  1  0.061908  0  -0.052054  -0.351015  0  3.98796  0
C  C61  1  0.32228576  0.28622074  0.00311303  1  0.4861  0  0.099705  0.353539  0  4.061122  0
C  C62  1  0.33221085  0.31446299  0.05839024  1  0.080026  0  -0.104849  -0.284208  0  3.908899  0
C  C63  1  0.50006002  0.29299995  0.08596332  1  0.047526  0  0.015132  0.197324  0  4.141025  0
C  C64  1  0.66775169  0.24395661  0.05838429  1  0.159387  0  -0.104834  -0.284291  0  3.908981  0
C  C65  1  0.67729931  0.21689910  0.00310428  1  0.449799  0  0.099401  0.353445  0  4.060285  0
C  C66  1  0.50005000  0.32120543  0.14239248  1  -0.266214  0  -0.02501  -0.08153  0  4.0408  0
C  C67  1  0.50003034  0.34549491  0.19095340  1  0.004384  0  -0.025345  -0.082052  0  4.041512  0
C  C68  1  0.49999533  0.37371238  0.24738023  1  -0.012484  0  0.0154  0.197527  0  4.141645  0
C  C69  1  0.66774294  0.42274808  0.27494844  1  -0.001445  0  -0.104861  -0.283907  0  3.908991  0
C  C70  1  0.67756067  0.44979061  0.33022819  1  0.611  0  0.09967  0.353354  0  4.060275  0
C  C71  1  0.50008530  0.42973249  0.35943224  1  0.061335  0  -0.052098  -0.351024  0  3.987781  0
C  C72  1  0.32254005  0.38047996  0.33024276  1  0.484976  0  0.09961  0.353387  0  4.060407  0
C  C73  1  0.33224524  0.35224754  0.27495909  1  0.08112  0  -0.104853  -0.284296  0  3.909603  0
O  O74  1  0.73128561  0.55776038  0.55148756  1  -1.275494  0  -0.248554  -0.620153  0  2.391791  0
O  O75  1  0.73127886  0.49374953  0.44223578  1  -1.269895  0  -0.248547  -0.619656  0  2.391352  0
O  O76  1  0.73128071  0.44850894  0.50625837  1  -1.273214  0  -0.248591  -0.619905  0  2.391885  0
O  O77  1  0.26907173  0.55775744  0.50623325  1  -1.269086  0  -0.248679  -0.620226  0  2.391169  0
O  O78  1  0.26909528  0.49376297  0.55150313  1  -1.27357  0  -0.248671  -0.620542  0  2.391831  0
O  O79  1  0.26910929  0.44850255  0.44224903  1  -1.274849  0  -0.248559  -0.620372  0  2.391811  0
O  O80  1  0.73012996  0.17285534  0.89107647  1  -1.270903  0  -0.247874  -0.619397  0  2.392279  0
O  O81  1  0.73013061  0.21817935  0.82713451  1  -1.273812  0  -0.248103  -0.619867  0  2.392855  0
O  O82  1  0.73015320  0.10893014  0.78183830  1  -1.272412  0  -0.248267  -0.619964  0  2.392887  0
O  O83  1  0.26795694  0.21813740  0.89112111  1  -1.274476  0  -0.24885  -0.620515  0  2.392409  0
O  O84  1  0.26794201  0.10887343  0.82705776  1  -1.269681  0  -0.248704  -0.620531  0  2.392306  0
O  O85  1  0.26797843  0.17294918  0.78185960  1  -1.271975  0  -0.24868  -0.620444  0  2.392399  0
O  O86  1  0.14951946  0.17075218  0.69225859  1  -1.13848  0  -0.345534  -0.425426  0  2.247607  0
O  O87  1  0.84994593  0.30767969  0.82923834  1  -1.136142  0  -0.345118  -0.425447  0  2.248352  0
O  O88  1  0.85022544  0.35894298  0.50409040  1  -1.137629  0  -0.345344  -0.425412  0  2.248268  0
O  O89  1  0.14984145  0.49590853  0.64104686  1  -1.137572  0  -0.345367  -0.425575  0  2.247965  0
O  O90  1  0.14950366  0.02146864  0.82925226  1  -1.126444  0  -0.345403  -0.425859  0  2.248252  0
O  O91  1  0.84996985  0.02154696  0.69232766  1  -1.127063  0  -0.345042  -0.425385  0  2.248709  0
O  O92  1  0.85020652  0.64515143  0.64104735  1  -1.128218  0  -0.345274  -0.425332  0  2.248559  0
O  O93  1  0.14985726  0.64515806  0.50408445  1  -1.126007  0  -0.345218  -0.425408  0  2.248395  0
O  O94  1  0.14956474  0.30773608  0.97850102  1  -1.129839  0  -0.345493  -0.425221  0  2.248625  0
O  O95  1  0.85001398  0.17077014  0.97848860  1  -1.125236  0  -0.344886  -0.425052  0  2.248423  0
O  O96  1  0.85026236  0.49592112  0.35483908  1  -1.125392  0  -0.345453  -0.42538  0  2.248045  0
O  O97  1  0.14986116  0.35896126  0.35486017  1  -1.127807  0  -0.345229  -0.425347  0  2.248224  0
