# generated using pymatgen
data_SmH13C12S3(N3O4)2
_symmetry_space_group_name_H-M   'P 1'
_cell_length_a   9.80171177
_cell_length_b   10.30778834
_cell_length_c   11.03285079
_cell_angle_alpha   104.27308011
_cell_angle_beta   109.77211415
_cell_angle_gamma   94.80887365
_symmetry_Int_Tables_number   1
_chemical_formula_structural   SmH13C12S3(N3O4)2
_chemical_formula_sum   'Sm2 H26 C24 S6 N12 O16'
_cell_volume   999.35898389
_cell_formula_units_Z   2
loop_
 _symmetry_equiv_pos_site_id
 _symmetry_equiv_pos_as_xyz
  1  'x, y, z'
loop_
 _atom_site_type_symbol
 _atom_site_label
 _atom_site_symmetry_multiplicity
 _atom_site_fract_x
 _atom_site_fract_y
 _atom_site_fract_z
 _atom_site_occupancy
 _atom_site_hle17_bader_spin_density
 _atom_site_hle17_ddec_charge
 _atom_site_hle17_ddec_spin_density
 _atom_site_hle17_ddec_sum_bond_order
 _atom_site_hle17_magmom
 _atom_site_hse06_10hf_bader_spin_density
 _atom_site_hse06_10hf_ddec_charge
 _atom_site_hse06_10hf_ddec_spin_density
 _atom_site_hse06_10hf_ddec_sum_bond_order
 _atom_site_hse06_10hf_magmom
 _atom_site_hse06_bader_spin_density
 _atom_site_hse06_ddec_charge
 _atom_site_hse06_ddec_spin_density
 _atom_site_hse06_ddec_sum_bond_order
 _atom_site_hse06_magmom
 _atom_site_pbe_bader_spin_density
 _atom_site_pbe_cm5_charge
 _atom_site_pbe_ddec_charge
 _atom_site_pbe_ddec_spin_density
 _atom_site_pbe_ddec_sum_bond_order
 _atom_site_pbe_magmom
Sm  Sm0  1  0.76959718  0.00909192  0.50026633  1  0  2.367303  0  1.585149  0  0  2.275219  0  1.942662  0  0  2.318288  0  1.896462  0  0  1.491097  2.243221  0  1.976466  0
Sm  Sm1  1  0.23040298  0.99090472  0.49973481  1  0  2.367314  0  1.585203  0  0  2.275234  0  1.942715  0  0  2.318305  0  1.896519  0  0  1.491099  2.243247  0  1.976533  0
H  H2  1  0.54253910  0.84710427  0.57315134  1  0  0.433943  0  0.851266  0  0  0.406442  0  0.916719  0  0  0.416203  0  0.902099  0  0  0.305014  0.39917  0  0.927656  0
H  H3  1  0.45745910  0.15289342  0.42684767  1  0  0.433937  0  0.851253  0  0  0.406434  0  0.916725  0  0  0.416195  0  0.902105  0  0  0.305006  0.399166  0  0.927655  0
H  H4  1  0.69336318  0.86352305  0.69039656  1  0  0.404898  0  0.904068  0  0  0.36548  0  0.983134  0  0  0.376079  0  0.96765  0  0  0.293122  0.3578  0  0.994391  0
H  H5  1  0.30663374  0.13647362  0.30960271  1  0  0.40492  0  0.904038  0  0  0.365507  0  0.983097  0  0  0.376105  0  0.967612  0  0  0.293125  0.357828  0  0.99435  0
H  H6  1  0.67207685  0.22416612  0.33742198  1  0  0.398739  0  0.915977  0  0  0.355459  0  1.000813  0  0  0.366219  0  0.985445  0  0  0.285671  0.347839  0  1.011748  0
H  H7  1  0.32792199  0.77583464  0.66257705  1  0  0.39875  0  0.915972  0  0  0.355453  0  1.000825  0  0  0.366213  0  0.985456  0  0  0.285667  0.347836  0  1.011757  0
H  H8  1  0.55082836  0.08713062  0.26650437  1  0  0.40293  0  0.899805  0  0  0.365414  0  0.984839  0  0  0.37476  0  0.971012  0  0  0.293877  0.358604  0  0.994986  0
H  H9  1  0.44917155  0.91287006  0.73349949  1  0  0.402959  0  0.899811  0  0  0.36541  0  0.984881  0  0  0.374759  0  0.971048  0  0  0.293881  0.358594  0  0.995018  0
H  H10  1  0.42586676  0.54763372  0.59770086  1  0  0.125049  0  0.93006  0  0  0.147359  0  0.984352  0  0  0.149109  0  0.983511  0  0  0.0987  0.14619  0  0.984588  0
H  H11  1  0.57412954  0.45236001  0.40229116  1  0  0.125025  0  0.930068  0  0  0.147345  0  0.984345  0  0  0.149096  0  0.983501  0  0  0.098702  0.146174  0  0.984576  0
H  H12  1  0.33301023  0.37199264  0.52660380  1  0  0.148911  0  0.95434  0  0  0.1652  0  1.016805  0  0  0.168112  0  1.014663  0  0  0.101745  0.163214  0  1.018127  0
H  H13  1  0.66698690  0.62800512  0.47339127  1  0  0.148967  0  0.954371  0  0  0.165249  0  1.01683  0  0  0.168161  0  1.014691  0  0  0.101771  0.163262  0  1.018152  0
H  H14  1  0.43868084  0.43658500  0.70012399  1  0  0.127439  0  0.936085  0  0  0.149089  0  0.993977  0  0  0.149536  0  0.995556  0  0  0.098977  0.148661  0  0.993097  0
H  H15  1  0.56131825  0.56341181  0.29986690  1  0  0.127413  0  0.93603  0  0  0.149073  0  0.993912  0  0  0.149521  0  0.99549  0  0  0.098972  0.148632  0  0.99305  0
H  H16  1  0.49623260  0.68761845  0.93781713  1  0  0.123016  0  0.934297  0  0  0.141161  0  0.99693  0  0  0.142581  0  0.996925  0  0  0.092725  0.140076  0  0.997039  0
H  H17  1  0.50376640  0.31238840  0.06218526  1  0  0.122989  0  0.934315  0  0  0.141137  0  0.996942  0  0  0.142558  0  0.996938  0  0  0.092706  0.140056  0  0.997047  0
H  H18  1  0.60658086  0.64599894  0.08288403  1  0  0.137051  0  0.941442  0  0  0.15426  0  1.00498  0  0  0.156152  0  1.004381  0  0  0.09956  0.152815  0  1.005494  0
H  H19  1  0.39342227  0.35400693  0.91711572  1  0  0.137029  0  0.941447  0  0  0.154233  0  1.00499  0  0  0.156125  0  1.004391  0  0  0.099555  0.152788  0  1.005506  0
H  H20  1  0.56404826  0.81126094  0.10206630  1  0  0.118079  0  0.987352  0  0  0.13068  0  1.06158  0  0  0.132443  0  1.061404  0  0  0.089107  0.129337  0  1.06175  0
H  H21  1  0.43595161  0.18874487  0.89793699  1  0  0.118153  0  0.987249  0  0  0.130755  0  1.061463  0  0  0.13252  0  1.061286  0  0  0.089148  0.12941  0  1.06164  0
H  H22  1  0.95615053  0.78340366  0.86567401  1  0  0.127535  0  0.947656  0  0  0.143925  0  1.014246  0  0  0.145477  0  1.013673  0  0  0.094633  0.142727  0  1.014788  0
H  H23  1  0.04385284  0.21659803  0.13433114  1  0  0.127575  0  0.94759  0  0  0.143995  0  1.014142  0  0  0.145548  0  1.013567  0  0  0.094649  0.1428  0  1.014686  0
H  H24  1  0.91308387  0.69705419  0.97371371  1  0  0.122675  0  0.979573  0  0  0.133826  0  1.054946  0  0  0.13481  0  1.055475  0  0  0.088722  0.133236  0  1.054415  0
H  H25  1  0.08691621  0.30295259  0.02629261  1  0  0.122675  0  0.97952  0  0  0.133823  0  1.054917  0  0  0.134804  0  1.055449  0  0  0.088723  0.133232  0  1.054388  0
H  H26  1  0.05739652  0.84046958  0.04414907  1  0  0.129514  0  0.963727  0  0  0.143853  0  1.03178  0  0  0.14521  0  1.032713  0  0  0.093116  0.14263  0  1.031549  0
H  H27  1  0.94260464  0.15953723  0.95585576  1  0  0.129467  0  0.963795  0  0  0.14386  0  1.0318  0  0  0.14522  0  1.032727  0  0  0.093102  0.142631  0  1.031574  0
C  C28  1  0.06006774  0.27085254  0.57941544  1  0  0.753482  0  3.889254  0  0  0.70738  0  4.184668  0  0  0.742767  0  4.172968  0  0  0.233048  0.683061  0  4.192319  0
C  C29  1  0.93993458  0.72914400  0.42059086  1  0  0.753689  0  3.889225  0  0  0.707542  0  4.184687  0  0  0.742929  0  4.17299  0  0  0.233088  0.683228  0  4.19233  0
C  C30  1  0.10699509  0.42215028  0.62940408  1  0  -0.231656  0  3.624723  0  0  -0.225262  0  3.894822  0  0  -0.233193  0  3.91161  0  0  -0.007632  -0.220072  0  3.883709  0
C  C31  1  0.89301307  0.57784836  0.37059904  1  0  -0.231773  0  3.624816  0  0  -0.225313  0  3.894936  0  0  -0.233244  0  3.911721  0  0  -0.007631  -0.22013  0  3.883827  0
C  C32  1  0.23368761  0.50509696  0.64093023  1  0  0.250556  0  3.730974  0  0  0.243269  0  4.002269  0  0  0.248553  0  4.022794  0  0  0.110597  0.239708  0  3.9881  0
C  C33  1  0.76631515  0.49490178  0.35906767  1  0  0.250555  0  3.730894  0  0  0.243166  0  4.002295  0  0  0.248441  0  4.022842  0  0  0.110612  0.239615  0  3.988112  0
C  C34  1  0.36462704  0.46318297  0.61332273  1  0  -0.357956  0  3.683744  0  0  -0.435328  0  3.916504  0  0  -0.438404  0  3.924451  0  0  -0.234425  -0.432828  0  3.910596  0
C  C35  1  0.63537402  0.53681280  0.38666940  1  0  -0.357929  0  3.683741  0  0  -0.435269  0  3.916506  0  0  -0.438351  0  3.924458  0  0  -0.234426  -0.432764  0  3.910605  0
C  C36  1  0.42307886  0.82031718  0.30241900  1  0  0.757844  0  3.889384  0  0  0.708302  0  4.185994  0  0  0.743906  0  4.174002  0  0  0.236429  0.683953  0  4.193606  0
C  C37  1  0.57692734  0.17968251  0.69758288  1  0  0.757787  0  3.889477  0  0  0.708203  0  4.186168  0  0  0.743807  0  4.174189  0  0  0.236381  0.683857  0  4.193773  0
C  C38  1  0.34431850  0.70761629  0.17652210  1  0  -0.249077  0  3.669986  0  0  -0.240272  0  3.936603  0  0  -0.248828  0  3.954291  0  0  -0.012778  -0.234572  0  3.924652  0
C  C39  1  0.65568142  0.29238444  0.82347907  1  0  -0.249059  0  3.670062  0  0  -0.24024  0  3.936682  0  0  -0.248794  0  3.954368  0  0  -0.012784  -0.234536  0  3.924725  0
C  C40  1  0.38393832  0.65673375  0.06621204  1  0  0.245062  0  3.719789  0  0  0.246215  0  3.984107  0  0  0.250515  0  4.005791  0  0  0.104233  0.243192  0  3.9691  0
C  C41  1  0.61606202  0.34326903  0.93378884  1  0  0.244984  0  3.719733  0  0  0.246137  0  3.984038  0  0  0.250439  0  4.005721  0  0  0.104166  0.243112  0  3.969037  0
C  C42  1  0.52009183  0.70390625  0.04567390  1  0  -0.358634  0  3.693301  0  0  -0.437693  0  3.933303  0  0  -0.440909  0  3.941725  0  0  -0.242281  -0.434974  0  3.927323  0
C  C43  1  0.47990676  0.29609856  0.95432786  1  0  -0.358624  0  3.693252  0  0  -0.437685  0  3.933244  0  0  -0.440897  0  3.941658  0  0  -0.242261  -0.434962  0  3.927254  0
C  C44  1  0.93129735  0.98217650  0.24429510  1  0  0.750091  0  3.893738  0  0  0.704121  0  4.188668  0  0  0.739716  0  4.175675  0  0  0.235117  0.679797  0  4.197053  0
C  C45  1  0.06869840  0.01783033  0.75570813  1  0  0.750152  0  3.893293  0  0  0.704144  0  4.188297  0  0  0.739737  0  4.175306  0  0  0.235155  0.679825  0  4.196683  0
C  C46  1  0.83647873  0.96744508  0.10106213  1  0  -0.212373  0  3.588307  0  0  -0.198754  0  3.844099  0  0  -0.205053  0  3.859668  0  0  0.004663  -0.194804  0  3.834344  0
C  C47  1  0.16352073  0.03255873  0.89893874  1  0  -0.212356  0  3.588229  0  0  -0.198725  0  3.844041  0  0  -0.205023  0  3.859609  0  0  0.004645  -0.194776  0  3.834291  0
C  C48  1  0.84162318  0.88753580  0.98117447  1  0  0.2663  0  3.691352  0  0  0.267259  0  3.944754  0  0  0.271228  0  3.965623  0  0  0.115642  0.264065  0  3.931372  0
C  C49  1  0.15837241  0.11246497  0.01882450  1  0  0.266298  0  3.691398  0  0  0.267242  0  3.944847  0  0  0.271209  0  3.965717  0  0  0.11567  0.264047  0  3.931465  0
C  C50  1  0.94864814  0.79719030  0.96479055  1  0  -0.372195  0  3.701794  0  0  -0.451684  0  3.944193  0  0  -0.45533  0  3.954435  0  0  -0.246612  -0.449212  0  3.937797  0
C  C51  1  0.05135174  0.20281549  0.03521365  1  0  -0.372192  0  3.701765  0  0  -0.451727  0  3.944094  0  0  -0.455372  0  3.954339  0  0  -0.246621  -0.449249  0  3.937703  0
S  S52  1  0.99710814  0.52494032  0.67789487  1  0  0.324543  0  2.78224  0  0  0.311452  0  3.146441  0  0  0.316933  0  3.152019  0  0  0.26705  0.307251  0  3.143113  0
S  S53  1  0.00289898  0.47505322  0.32210760  1  0  0.32456  0  2.782311  0  0  0.311457  0  3.1465  0  0  0.316941  0  3.152074  0  0  0.26706  0.307255  0  3.143187  0
S  S54  1  0.17850147  0.61735846  0.14883495  1  0  0.302919  0  2.748488  0  0  0.288084  0  3.107321  0  0  0.294957  0  3.110089  0  0  0.254942  0.28301  0  3.105726  0
S  S55  1  0.82149891  0.38263924  0.85116380  1  0  0.302909  0  2.748483  0  0  0.288071  0  3.107324  0  0  0.29494  0  3.110094  0  0  0.254924  0.282993  0  3.105726  0
S  S56  1  0.69104766  0.04793196  0.06210315  1  0  0.324599  0  2.775976  0  0  0.306225  0  3.145058  0  0  0.311494  0  3.150884  0  0  0.274429  0.30187  0  3.142678  0
S  S57  1  0.30895313  0.95206775  0.93789803  1  0  0.324609  0  2.775894  0  0  0.306235  0  3.144984  0  0  0.311507  0  3.150807  0  0  0.274437  0.30188  0  3.142601  0
N  N58  1  0.23004318  0.64044779  0.68471513  1  0  -0.208411  0  3.097296  0  0  -0.166112  0  3.372381  0  0  -0.173544  0  3.385456  0  0  -0.177436  -0.160882  0  3.363758  0
N  N59  1  0.76995720  0.35955000  0.31527820  1  0  -0.20848  0  3.097258  0  0  -0.166143  0  3.372367  0  0  -0.173572  0  3.385442  0  0  -0.177495  -0.160906  0  3.36373  0
N  N60  1  0.11188495  0.66733183  0.70922241  1  0  -0.198558  0  2.873668  0  0  -0.191398  0  3.187284  0  0  -0.192916  0  3.198365  0  0  -0.179908  -0.190395  0  3.180617  0
N  N61  1  0.88811326  0.33266593  0.29077299  1  0  -0.198497  0  2.873652  0  0  -0.191341  0  3.187266  0  0  -0.192858  0  3.19834  0  0  -0.179889  -0.190347  0  3.180613  0
N  N62  1  0.28014999  0.55048138  0.96954787  1  0  -0.181229  0  3.01889  0  0  -0.163277  0  3.306725  0  0  -0.168449  0  3.321412  0  0  -0.182413  -0.159271  0  3.29639  0
N  N63  1  0.71985143  0.44952143  0.03045153  1  0  -0.181169  0  3.018714  0  0  -0.163226  0  3.306557  0  0  -0.168399  0  3.321244  0  0  -0.182386  -0.159221  0  3.296227  0
N  N64  1  0.16614873  0.51736107  0.99850328  1  0  -0.210909  0  2.904794  0  0  -0.191785  0  3.216921  0  0  -0.193847  0  3.226885  0  0  -0.175022  -0.190037  0  3.209855  0
N  N65  1  0.83385074  0.48264281  0.00149308  1  0  -0.210941  0  2.904669  0  0  -0.19181  0  3.216785  0  0  -0.193871  0  3.226752  0  0  -0.175011  -0.19006  0  3.20972  0
N  N66  1  0.72941958  0.89570249  0.87037365  1  0  -0.174055  0  3.048434  0  0  -0.137094  0  3.309286  0  0  -0.141231  0  3.320085  0  0  -0.167931  -0.133328  0  3.301532  0
N  N67  1  0.27057839  0.10429932  0.12962447  1  0  -0.174155  0  3.048523  0  0  -0.137199  0  3.309399  0  0  -0.141335  0  3.320196  0  0  -0.167994  -0.13343  0  3.301636  0
N  N68  1  0.64068210  0.97641244  0.89651385  1  0  -0.235984  0  2.941447  0  0  -0.209672  0  3.24126  0  0  -0.213319  0  3.252101  0  0  -0.175969  -0.206668  0  3.233927  0
N  N69  1  0.35931307  0.02358626  0.10348630  1  0  -0.235909  0  2.941379  0  0  -0.209615  0  3.241207  0  0  -0.213264  0  3.252047  0  0  -0.17591  -0.206604  0  3.233875  0
O  O70  1  0.93514347  0.22526240  0.57915456  1  0  -0.733848  0  1.994567  0  0  -0.698312  0  2.251378  0  0  -0.72189  0  2.237877  0  0  -0.39172  -0.681769  0  2.260854  0
O  O71  1  0.06486797  0.77473102  0.42085461  1  0  -0.73398  0  1.994496  0  0  -0.69842  0  2.251304  0  0  -0.721998  0  2.237804  0  0  -0.391789  -0.681878  0  2.260779  0
O  O72  1  0.64897819  0.85464745  0.59257840  1  0  -0.896971  0  1.914983  0  0  -0.854588  0  2.109526  0  0  -0.871833  0  2.077936  0  0  -0.630964  -0.842283  0  2.13251  0
O  O73  1  0.35101939  0.14534718  0.40742058  1  0  -0.896998  0  1.914984  0  0  -0.854611  0  2.109531  0  0  -0.871854  0  2.077944  0  0  -0.63096  -0.842305  0  2.132506  0
O  O74  1  0.14691342  0.20278478  0.54106077  1  0  -0.710717  0  2.041555  0  0  -0.667684  0  2.293521  0  0  -0.692506  0  2.282579  0  0  -0.379512  -0.649867  0  2.30109  0
O  O75  1  0.85309453  0.79721287  0.45894024  1  0  -0.710754  0  2.041691  0  0  -0.667736  0  2.293747  0  0  -0.692534  0  2.282756  0  0  -0.379468  -0.649917  0  2.301309  0
O  O76  1  0.62228585  0.14468283  0.35442305  1  0  -0.900377  0  1.964835  0  0  -0.851267  0  2.169489  0  0  -0.868854  0  2.137033  0  0  -0.619769  -0.838256  0  2.192865  0
O  O77  1  0.37771469  0.85532094  0.64557995  1  0  -0.900494  0  1.964877  0  0  -0.851347  0  2.169571  0  0  -0.868935  0  2.13711  0  0  -0.619775  -0.8383  0  2.193  0
O  O78  1  0.55297525  0.87338926  0.32273305  1  0  -0.705962  0  2.031201  0  0  -0.656652  0  2.284877  0  0  -0.681288  0  2.272896  0  0  -0.386849  -0.639435  0  2.293226  0
O  O79  1  0.44701599  0.12661145  0.67726914  1  0  -0.705992  0  2.030883  0  0  -0.656669  0  2.28459  0  0  -0.68131  0  2.272612  0  0  -0.386853  -0.639461  0  2.292945  0
O  O80  1  0.35483787  0.85290292  0.38168700  1  0  -0.750187  0  2.035392  0  0  -0.706158  0  2.295551  0  0  -0.729195  0  2.279054  0  0  -0.397798  -0.689765  0  2.307038  0
O  O81  1  0.64515667  0.14709266  0.61831583  1  0  -0.750076  0  2.035651  0  0  -0.706049  0  2.295864  0  0  -0.729063  0  2.279329  0  0  -0.397729  -0.689666  0  2.30736  0
O  O82  1  0.86756349  0.99898855  0.32790331  1  0  -0.765205  0  2.085238  0  0  -0.730739  0  2.353165  0  0  -0.753436  0  2.337377  0  0  -0.388173  -0.714827  0  2.364686  0
O  O83  1  0.13243730  0.00101120  0.67209516  1  0  -0.765283  0  2.084855  0  0  -0.730793  0  2.352786  0  0  -0.753488  0  2.336993  0  0  -0.388219  -0.714888  0  2.364318  0
O  O84  1  0.06623912  0.97586793  0.27023808  1  0  -0.68812  0  1.969103  0  0  -0.64588  0  2.20884  0  0  -0.670986  0  2.199271  0  0  -0.365034  -0.628137  0  2.215443  0
O  O85  1  0.93376000  0.02412363  0.72976061  1  0  -0.688109  0  1.969136  0  0  -0.645853  0  2.208909  0  0  -0.670958  0  2.199339  0  0  -0.365033  -0.628107  0  2.21551  0
