# generated using pymatgen
data_Zn4H48C54N10O31
_symmetry_space_group_name_H-M   'P 1'
_cell_length_a   16.02317590
_cell_length_b   19.14542519
_cell_length_c   19.17858632
_cell_angle_alpha   94.78751756
_cell_angle_beta   94.87298621
_cell_angle_gamma   90.57058054
_symmetry_Int_Tables_number   1
_chemical_formula_structural   Zn4H48C54N10O31
_chemical_formula_sum   'Zn4 H48 C54 N10 O31'
_cell_volume   5840.84509633
_cell_formula_units_Z   1
loop_
 _symmetry_equiv_pos_site_id
 _symmetry_equiv_pos_as_xyz
  1  'x, y, z'
loop_
 _atom_site_type_symbol
 _atom_site_label
 _atom_site_symmetry_multiplicity
 _atom_site_fract_x
 _atom_site_fract_y
 _atom_site_fract_z
 _atom_site_occupancy
 _atom_site_pbe_bader_charge
 _atom_site_pbe_bader_spin_density
 _atom_site_pbe_cm5_charge
 _atom_site_pbe_ddec_charge
 _atom_site_pbe_ddec_spin_density
 _atom_site_pbe_ddec_sum_bond_order
 _atom_site_pbe_magmom
Zn  Zn0  1  0.43655584  0.56140814  0.56055926  1  1.314019  0  0.67874  0.973731  0  2.371135  0
Zn  Zn1  1  0.58607020  0.44855944  0.55766366  1  1.326591  0  0.687761  0.991739  0  2.321117  0
Zn  Zn2  1  0.56975269  0.56459033  0.44657768  1  1.314543  0  0.681853  0.963259  0  2.364388  0
Zn  Zn3  1  0.43274580  0.44209661  0.43592870  1  1.320614  0  0.682366  0.967681  0  2.362848  0
H  H4  1  0.01521367  0.57282270  0.49905338  1  0.09331  0  0.122607  0.145426  0  0.969258  0
H  H5  1  0.36229871  0.89870357  0.57077486  1  0.1113  0  0.115436  0.122884  0  0.98438  0
H  H6  1  0.38080498  0.76813376  0.56703834  1  0.121131  0  0.115425  0.124139  0  0.978321  0
H  H7  1  0.53665776  0.21767601  0.37612181  1  0.115644  0  0.119786  0.129642  0  0.96506  0
H  H8  1  0.53099380  0.08701598  0.38398547  1  0.123002  0  0.122546  0.130301  0  0.9686  0
H  H9  1  0.59400506  0.60329205  0.91750560  1  0.162007  0  0.134675  0.158783  0  0.971104  0
H  H10  1  0.00545103  0.30335116  0.53830594  1  0.04859  0  0.114738  0.086561  0  0.946915  0
H  H11  1  0.09834578  0.35615569  0.55509617  1  0.082589  0  0.101708  0.064409  0  1.026618  0
H  H12  1  0.02508046  0.29083167  0.41050236  1  0.029291  0  0.097018  0.093396  0  0.964952  0
H  H13  1  0.11493129  0.34659196  0.42444616  1  0.033497  0  0.090559  0.084203  0  1.006954  0
H  H14  1  0.18877980  0.26094579  0.50012652  1  0.025934  0  0.087605  0.115072  0  1.009395  0
H  H15  1  0.15672934  0.22016144  0.41552651  1  0.037418  0  0.0919  0.120746  0  0.993208  0
H  H16  1  0.09903468  0.20444457  0.48784220  1  0.041384  0  0.08682  0.108755  0  1.008582  0
H  H17  1  0.70417843  0.69976216  0.48947551  1  0.076054  0  0.106623  0.085799  0  0.979385  0
H  H18  1  0.64941375  0.72720017  0.56384496  1  0.02903  0  0.101332  0.064782  0  0.992985  0
H  H19  1  0.79793906  0.80649079  0.51467891  1  0.048053  0  0.096713  0.093356  0  0.963304  0
H  H20  1  0.74214800  0.83432546  0.58730609  1  0.05261  0  0.093268  0.090852  0  0.971961  0
H  H21  1  0.78584992  0.72533494  0.64667893  1  0.03179  0  0.088135  0.115812  0  1.00136  0
H  H22  1  0.87433698  0.77406913  0.62708691  1  0.018599  0  0.090146  0.117239  0  0.997392  0
H  H23  1  0.84162224  0.69667317  0.57364958  1  0.019149  0  0.083938  0.108653  0  1.013085  0
H  H24  1  0.37126548  0.41510145  0.65844366  1  0.048685  0  0.09425  0.064772  0  1.009321  0
H  H25  1  0.33324830  0.46871040  0.72976360  1  0.053373  0  0.102235  0.070301  0  0.97083  0
H  H26  1  0.31955075  0.30841112  0.71011876  1  0.070908  0  0.093542  0.09047  0  0.993341  0
H  H27  1  0.27392932  0.36280036  0.77546802  1  0.045819  0  0.093674  0.096997  0  0.980392  0
H  H28  1  0.18356931  0.41795146  0.67896184  1  0.04206  0  0.085737  0.112178  0  0.999822  0
H  H29  1  0.16569901  0.32616642  0.67630994  1  0.004415  0  0.088707  0.116116  0  1.000227  0
H  H30  1  0.22913162  0.36093620  0.61528136  1  0.002342  0  0.081255  0.104574  0  1.030281  0
H  H31  1  0.27695594  0.34339018  0.18864153  1  0.091184  0  0.106551  0.077884  0  0.956457  0
H  H32  1  0.27235172  0.43446781  0.17634526  1  0.057885  0  0.103104  0.068879  0  0.985162  0
H  H33  1  0.27543607  0.37237416  0.31921857  1  0.012186  0  0.093737  0.093708  0  0.967124  0
H  H34  1  0.26775555  0.46214694  0.30565671  1  0.036849  0  0.090028  0.092725  0  0.987714  0
H  H35  1  0.12928245  0.43811791  0.23239111  1  0.031168  0  0.089113  0.115639  0  0.997542  0
H  H36  1  0.12577971  0.41097302  0.31825232  1  0.038822  0  0.086858  0.114199  0  1.017922  0
H  H37  1  0.13648563  0.34781892  0.24649312  1  0.020832  0  0.086997  0.111201  0  1.002106  0
H  H38  1  0.46285163  0.64334659  0.30857442  1  0.038599  0  0.092685  0.053968  0  1.002243  0
H  H39  1  0.44913349  0.67935507  0.22508224  1  0.06265  0  0.098286  0.060334  0  0.977597  0
H  H40  1  0.59068936  0.71602808  0.34116421  1  0.074377  0  0.094801  0.097858  0  0.978702  0
H  H41  1  0.58511280  0.74715009  0.25636164  1  0.058391  0  0.099147  0.098448  0  0.956186  0
H  H42  1  0.44728506  0.80444362  0.27820872  1  0.012025  0  0.083937  0.107588  0  1.004256  0
H  H43  1  0.52717661  0.83520530  0.34384593  1  0.062927  0  0.085073  0.122955  0  1.031148  0
H  H44  1  0.45178205  0.77249044  0.36284873  1  0.023977  0  0.077197  0.10063  0  1.02352  0
H  H45  1  0.36052579  0.05463263  0.64724164  1  0.053116  0  0.112167  0.08683  0  0.950199  0
H  H46  1  0.34100642  0.05937803  0.55511839  1  0.053452  0  0.096323  0.051913  0  1.026968  0
H  H47  1  0.31887464  0.17985630  0.66855612  1  0.034841  0  0.096847  0.096945  0  0.968598  0
H  H48  1  0.30133668  0.18671494  0.57695817  1  0.022008  0  0.087824  0.07923  0  1.002052  0
H  H49  1  0.18732393  0.09375266  0.56820678  1  0.043466  0  0.086015  0.109999  0  1.003552  0
H  H50  1  0.16561585  0.16515775  0.62869501  1  0.032907  0  0.089702  0.116847  0  1.003243  0
H  H51  1  0.20431854  0.08602355  0.66000632  1  0.030867  0  0.090044  0.115848  0  0.997105  0
C  C52  1  0.51337240  0.31807367  0.48138223  1  1.620328  0  0.232485  0.613533  0  4.181366  0
C  C53  1  0.49944768  0.69230361  0.51443693  1  1.504253  0  0.228771  0.607375  0  4.183988  0
C  C54  1  0.51623917  0.50479898  0.68712898  1  1.646124  0  0.233788  0.631983  0  4.214492  0
C  C55  1  0.47870231  0.50845249  0.31613648  1  1.578449  0  0.230041  0.630168  0  4.157487  0
C  C56  1  0.73125711  0.51691858  0.50590200  1  1.605661  0  0.231663  0.678928  0  4.235862  0
C  C57  1  0.28335682  0.48537513  0.50247252  1  1.661212  0  0.233747  0.667663  0  4.243326  0
C  C58  1  0.82019050  0.51997875  0.50491145  1  0.262016  0  -0.042647  -0.213257  0  3.944917  0
C  C59  1  0.98290311  0.52295452  0.50210630  1  0.159307  0  -0.091904  -0.219306  0  4.05947  0
C  C60  1  0.03077130  0.46381399  0.50410983  1  0.626241  0  0.111154  0.281689  0  4.142243  0
C  C61  1  0.11870946  0.46998284  0.50386807  1  -0.340016  0  -0.01435  -0.082887  0  4.095848  0
C  C62  1  0.89615983  0.52133308  0.50270312  1  -0.477207  0  -0.016384  0.068951  0  4.165428  0
C  C63  1  0.19439113  0.47705968  0.50409671  1  0.128367  0  -0.020785  -0.138692  0  3.922892  0
C  C64  1  0.49871771  0.77047446  0.52234827  1  0.058744  0  -0.01831  -0.140565  0  3.949267  0
C  C65  1  0.56243639  0.81312947  0.49994595  1  0.618884  0  0.112338  0.218711  0  4.028063  0
C  C66  1  0.54903154  0.88555703  0.49967697  1  0.204484  0  0.0807  -0.087453  0  3.855531  0
C  C67  1  0.47670919  0.91653838  0.52435891  1  0.441018  0  0.102479  0.146692  0  4.057428  0
C  C68  1  0.41729027  0.87378814  0.55084532  1  -0.004987  0  -0.082185  -0.151267  0  3.979858  0
C  C69  1  0.42799694  0.80206415  0.54905943  1  -0.041551  0  -0.076174  -0.062239  0  3.992656  0
C  C70  1  0.46915815  0.13910337  0.54641132  1  0.630556  0  0.112853  0.171314  0  3.990765  0
C  C71  1  0.48104948  0.21146213  0.54269773  1  0.218294  0  0.079647  -0.046393  0  3.900175  0
C  C72  1  0.48916478  0.09420139  0.48700040  1  0.392254  0  0.092577  0.077007  0  4.015998  0
C  C73  1  0.50366197  0.24023874  0.48209768  1  0.021995  0  0.004918  -0.033979  0  3.951507  0
C  C74  1  0.51888632  0.19549609  0.42330269  1  -0.039239  0  -0.078267  -0.095937  0  3.977577  0
C  C75  1  0.51432428  0.12356103  0.42706339  1  0.028842  0  -0.061467  -0.102828  0  3.946271  0
C  C76  1  0.47011820  0.50581058  0.23755883  1  -0.00444  0  -0.014508  -0.208214  0  3.870434  0
C  C77  1  0.51293288  0.55634896  0.20307843  1  0.681144  0  0.106874  0.223131  0  4.044929  0
C  C78  1  0.51652073  0.54797259  0.13042130  1  0.22495  0  0.078192  -0.083317  0  3.883222  0
C  C79  1  0.47679175  0.49092668  0.08924324  1  0.459962  0  0.109115  0.119409  0  4.043574  0
C  C80  1  0.43155575  0.44352170  0.12413714  1  0.20523  0  0.079735  -0.087258  0  3.888743  0
C  C81  1  0.42556635  0.44996889  0.19693054  1  0.682154  0  0.106119  0.221708  0  4.049322  0
C  C82  1  0.47255868  0.45765814  0.86909488  1  0.217718  0  0.096824  -0.051977  0  3.846892  0
C  C83  1  0.47265130  0.45565875  0.79588449  1  0.635429  0  0.107669  0.20146  0  4.047543  0
C  C84  1  0.51581676  0.51072696  0.91386123  1  0.409663  0  0.105152  0.145959  0  4.041849  0
C  C85  1  0.51850909  0.50719719  0.76609303  1  0.101516  0  0.011915  -0.116705  0  3.870797  0
C  C86  1  0.56187552  0.55926556  0.81115052  1  0.20299  0  0.084786  0.065123  0  3.920071  0
C  C87  1  0.56089216  0.56174975  0.88356594  1  0.06618  0  -0.055886  -0.16481  0  3.896575  0
C  C88  1  0.04634842  0.34019886  0.51562909  1  0.380431  0  -0.059901  0.027233  0  3.86411  0
C  C89  1  0.07860135  0.30726826  0.44833605  1  -0.008759  0  -0.168923  -0.14327  0  3.986459  0
C  C90  1  0.13379675  0.24472090  0.46388211  1  -0.079756  0  -0.239136  -0.346114  0  3.965443  0
C  C91  1  0.68692865  0.74556513  0.52325810  1  0.397481  0  -0.0611  0.039129  0  3.839274  0
C  C92  1  0.76311300  0.78750798  0.55662009  1  -0.026106  0  -0.168344  -0.135826  0  3.981371  0
C  C93  1  0.81927798  0.74334198  0.60353498  1  -0.051459  0  -0.2409  -0.349026  0  3.971317  0
C  C94  1  0.35520380  0.41617845  0.71307507  1  0.383742  0  -0.066072  0.038741  0  3.842627  0
C  C95  1  0.29063260  0.35961858  0.72085404  1  -0.016076  0  -0.1696  -0.134395  0  3.971117  0
C  C96  1  0.21296052  0.36663237  0.67006200  1  -0.04954  0  -0.242819  -0.350967  0  3.979253  0
C  C97  1  0.29234933  0.39620584  0.21384261  1  0.368913  0  -0.060203  0.042448  0  3.826373  0
C  C98  1  0.25065005  0.40924336  0.28182465  1  0.013357  0  -0.172238  -0.135891  0  3.978452  0
C  C99  1  0.15539393  0.40094511  0.26886392  1  -0.0686  0  -0.241187  -0.35253  0  3.977214  0
C  C100  1  0.49583035  0.66606620  0.26737351  1  0.356512  0  -0.063497  0.042721  0  3.870597  0
C  C101  1  0.54719647  0.72998847  0.29720865  1  -0.035097  0  -0.165778  -0.126117  0  3.96334  0
C  C102  1  0.49009601  0.78883033  0.32189890  1  -0.076969  0  -0.247236  -0.349619  0  3.965579  0
C  C103  1  0.35862228  0.09032848  0.60519135  1  0.391831  0  -0.06377  0.027064  0  3.886345  0
C  C104  1  0.29868826  0.15017852  0.61821094  1  0.019062  0  -0.173477  -0.142563  0  3.977848  0
C  C105  1  0.20908209  0.12217524  0.61881767  1  -0.105578  0  -0.241267  -0.349139  0  3.974866  0
N  N106  1  0.45851258  0.98826523  0.52685550  1  -0.466974  0  -0.132279  -0.103291  0  3.279186  0
N  N107  1  0.49620097  0.02138999  0.48399180  1  -0.505752  0  -0.137535  -0.096004  0  3.326839  0
N  N108  1  0.47594315  0.47659332  0.01635165  1  -0.451952  0  -0.135683  -0.095262  0  3.257277  0
N  N109  1  0.51671148  0.52120597  0.98688987  1  -0.436168  0  -0.130699  -0.08426  0  3.271611  0
N  N110  1  0.42203982  0.40193730  0.89483244  1  0.439421  0  0.059305  0.512011  0  4.307936  0
N  N111  1  0.39209756  0.38150491  0.08233575  1  0.44421  0  0.062372  0.528202  0  4.25344  0
N  N112  1  0.61036483  0.61426937  0.78180475  1  0.405899  0  0.064216  0.520234  0  4.193569  0
N  N113  1  0.56332750  0.60373477  0.10059502  1  0.444118  0  0.059136  0.522933  0  4.318833  0
N  N114  1  0.46110281  0.25954233  0.60277776  1  0.397121  0  0.059415  0.526971  0  4.225157  0
N  N115  1  0.61839949  0.92763393  0.47757065  1  0.433953  0  0.058515  0.525359  0  4.294538  0
O  O116  1  0.50683770  0.50343809  0.50154456  1  -1.237451  0  -0.574588  -1.038149  0  2.540364  0
O  O117  1  0.47418063  0.34581411  0.43031741  1  -1.15887  0  -0.309271  -0.533734  0  2.299411  0
O  O118  1  0.45876649  0.66136366  0.55772988  1  -1.160331  0  -0.311522  -0.536279  0  2.338361  0
O  O119  1  0.56846251  0.46533362  0.65819496  1  -1.146823  0  -0.297036  -0.515979  0  2.310612  0
O  O120  1  0.54863419  0.53150956  0.34644404  1  -1.151554  0  -0.304314  -0.526514  0  2.32638  0
O  O121  1  0.70134217  0.46850532  0.53920034  1  -1.152034  0  -0.310049  -0.54016  0  2.273176  0
O  O122  1  0.32009391  0.43563166  0.46939595  1  -1.144722  0  -0.302418  -0.532119  0  2.279833  0
O  O123  1  0.68993558  0.56299238  0.47315670  1  -1.156402  0  -0.310705  -0.546777  0  2.302567  0
O  O124  1  0.31636685  0.54164667  0.53392059  1  -1.153237  0  -0.308827  -0.538589  0  2.265963  0
O  O125  1  0.45728341  0.53945118  0.65873567  1  -1.161901  0  -0.306756  -0.54483  0  2.354223  0
O  O126  1  0.41739506  0.48620585  0.34688373  1  -1.165231  0  -0.307195  -0.547992  0  2.376555  0
O  O127  1  0.56067934  0.34831289  0.53161405  1  -1.156221  0  -0.303634  -0.532087  0  2.332365  0
O  O128  1  0.53666159  0.66288782  0.46382598  1  -1.166024  0  -0.303198  -0.540484  0  2.375299  0
O  O129  1  0.99341152  0.40026631  0.50472349  1  -1.041316  0  -0.162055  -0.177605  0  2.485269  0
O  O130  1  0.63590766  0.78953802  0.47846382  1  -1.061678  0  -0.178602  -0.202886  0  2.546976  0
O  O131  1  0.43146701  0.40166880  0.75710618  1  -1.071897  0  -0.186865  -0.212907  0  2.529047  0
O  O132  1  0.45836899  0.34776984  0.90833337  1  -0.404015  0  -0.101683  -0.280769  0  1.883124  0
O  O133  1  0.34646567  0.41343278  0.89641004  1  -0.413887  0  -0.111462  -0.30311  0  1.907771  0
O  O134  1  0.32039702  0.38820751  0.05483731  1  -0.43463  0  -0.115367  -0.314041  0  1.902164  0
O  O135  1  0.43394726  0.32781820  0.07990844  1  -0.402276  0  -0.111477  -0.293091  0  1.855346  0
O  O136  1  0.38406176  0.40033849  0.22760918  1  -1.085118  0  -0.193944  -0.217047  0  2.498191  0
O  O137  1  0.64466648  0.66086912  0.82324443  1  -0.429161  0  -0.125609  -0.3188  0  1.863957  0
O  O138  1  0.61349407  0.61007647  0.71707277  1  -0.460832  0  -0.125563  -0.325465  0  1.921499  0
O  O139  1  0.52333131  0.65610239  0.08577449  1  -0.423011  0  -0.127094  -0.320051  0  1.878451  0
O  O140  1  0.63892235  0.59509670  0.09691267  1  -0.423836  0  -0.118849  -0.30554  0  1.877697  0
O  O141  1  0.55171559  0.61434919  0.23711731  1  -1.066142  0  -0.188846  -0.210911  0  2.523027  0
O  O142  1  0.40605946  0.30335721  0.58985122  1  -0.467838  0  -0.126747  -0.343054  0  1.931656  0
O  O143  1  0.49817659  0.25271577  0.66050156  1  -0.395762  0  -0.098863  -0.278603  0  1.881096  0
O  O144  1  0.44494974  0.11550463  0.60614246  1  -1.047661  0  -0.184127  -0.20524  0  2.552553  0
O  O145  1  0.66333317  0.96078965  0.52495284  1  -0.436224  0  -0.132508  -0.326686  0  1.868997  0
O  O146  1  0.62903452  0.92340742  0.41440406  1  -0.443984  0  -0.120349  -0.319246  0  1.911436  0
