# generated using pymatgen
data_Hf3H11C69(Br15O8)2
_symmetry_space_group_name_H-M   'P 1'
_cell_length_a   19.92390468
_cell_length_b   19.95845235
_cell_length_c   19.98878571
_cell_angle_alpha   94.42991168
_cell_angle_beta   93.37519561
_cell_angle_gamma   94.17817380
_symmetry_Int_Tables_number   1
_chemical_formula_structural   Hf3H11C69(Br15O8)2
_chemical_formula_sum   'Hf6 H22 C138 Br60 O32'
_cell_volume   7887.09305983
_cell_formula_units_Z   2
loop_
 _symmetry_equiv_pos_site_id
 _symmetry_equiv_pos_as_xyz
  1  'x, y, z'
loop_
 _atom_site_type_symbol
 _atom_site_label
 _atom_site_symmetry_multiplicity
 _atom_site_fract_x
 _atom_site_fract_y
 _atom_site_fract_z
 _atom_site_occupancy
 _atom_site_pbe_bader_charge
 _atom_site_pbe_bader_spin_density
 _atom_site_pbe_cm5_charge
 _atom_site_pbe_ddec_charge
 _atom_site_pbe_ddec_spin_density
 _atom_site_pbe_ddec_sum_bond_order
 _atom_site_pbe_magmom
Hf  Hf0  1  0.81297347  0.96433860  0.86932332  1  2.624057  0  1.499128  2.161631  0  3.283673  0
Hf  Hf1  1  0.77670092  0.86248771  0.00070468  1  2.624775  0  1.502127  2.156398  0  3.296747  0
Hf  Hf2  1  0.97924298  0.99810849  0.93838107  1  2.623625  0  1.489518  2.157982  0  3.23914  0
Hf  Hf3  1  0.91274296  0.83200759  0.90260876  1  2.623914  0  1.50585  2.16028  0  3.317619  0
Hf  Hf4  1  0.84155591  0.03052771  0.03480607  1  2.618603  0  1.499226  2.154622  0  3.303687  0
Hf  Hf5  1  0.94078414  0.89816512  0.07038664  1  2.623144  0  1.494019  2.161983  0  3.260651  0
H  H6  1  0.92731337  0.30306021  0.60124425  1  0.076086  0  0.103805  0.120173  0  0.983682  0
H  H7  1  0.93541368  0.28263210  0.38608624  1  0.084792  0  0.102627  0.117325  0  0.985803  0
H  H8  1  0.96358768  0.11178838  0.50037625  1  0.060222  0  0.100945  0.115866  0  0.991314  0
H  H9  1  0.79832233  0.75220828  0.44029173  1  0.096313  0  0.104823  0.120709  0  0.979368  0
H  H10  1  0.84497218  0.59001492  0.56050238  1  0.061194  0  0.105553  0.121328  0  0.976937  0
H  H11  1  0.84447507  0.56158933  0.34466051  1  0.104147  0  0.104639  0.121531  0  0.979447  0
H  H12  1  0.24924809  0.55268178  0.99858992  1  0.092937  0  0.106581  0.124692  0  0.975196  0
H  H13  1  0.21244533  0.33644621  0.98783681  1  0.070873  0  0.106773  0.123802  0  0.974243  0
H  H14  1  0.05170391  0.46299567  0.03052942  1  0.106329  0  0.106039  0.122937  0  0.974144  0
H  H15  1  0.50437207  0.31047373  0.91838587  1  0.086324  0  0.102492  0.118627  0  0.987621  0
H  H16  1  0.54771371  0.52580506  0.94179041  1  0.040434  0  0.105806  0.122359  0  0.976763  0
H  H17  1  0.70847182  0.39606689  0.91192617  1  0.061902  0  0.101807  0.117895  0  0.989851  0
H  H18  1  0.48934227  0.88929983  0.32106902  1  0.09092  0  0.09677  0.11276  0  1.014907  0
H  H19  1  0.27561941  0.90842474  0.30664437  1  0.056896  0  0.10685  0.123638  0  0.971981  0
H  H20  1  0.39845972  0.98604418  0.15670134  1  0.095924  0  0.098439  0.113389  0  1.006265  0
H  H21  1  0.25402722  0.84517419  0.59447633  1  0.048109  0  0.102858  0.118928  0  0.987538  0
H  H22  1  0.47017432  0.85647148  0.62735631  1  0.070473  0  0.106234  0.123336  0  0.975842  0
H  H23  1  0.34558638  0.85308379  0.79584241  1  0.037408  0  0.103136  0.118664  0  0.984776  0
H  H24  1  0.77455466  0.82404601  0.86183220  1  0.605288  0  0.326632  0.411148  0  0.869993  0
H  H25  1  0.87879309  0.08923432  0.91739073  1  0.595478  0  0.316118  0.39641  0  0.903433  0
H  H26  1  0.03617450  0.87916862  0.97335401  1  0.620022  0  0.309095  0.387022  0  0.9249  0
H  H27  1  0.82014181  0.93204840  0.12649278  1  0.622462  0  0.32772  0.411737  0  0.870308  0
C  C28  1  0.94890311  0.20494545  0.55796206  1  -0.027076  0  -0.021376  0.080974  0  4.024317  0
C  C29  1  0.93643249  0.27280348  0.55539439  1  0.048595  0  -0.089231  -0.169152  0  3.938075  0
C  C30  1  0.93230222  0.30093040  0.49334441  1  0.020491  0  -0.020436  0.08476  0  4.034241  0
C  C31  1  0.94089339  0.26101639  0.43437200  1  -0.019598  0  -0.090904  -0.167227  0  3.946076  0
C  C32  1  0.95147801  0.19257528  0.43623392  1  -0.038752  0  -0.020895  0.083746  0  4.028258  0
C  C33  1  0.95698860  0.16532517  0.49834680  1  0.010907  0  -0.090445  -0.165643  0  3.942428  0
C  C34  1  0.81879546  0.65944457  0.38507006  1  0.047778  0  -0.017964  0.089823  0  4.01966  0
C  C35  1  0.80945543  0.69987408  0.44381118  1  -0.08517  0  -0.09161  -0.17464  0  3.935762  0
C  C36  1  0.81925498  0.67543746  0.50695703  1  -0.004038  0  -0.02026  0.086682  0  4.05015  0
C  C37  1  0.83586154  0.60906173  0.51135913  1  -0.000549  0  -0.091071  -0.175032  0  3.942046  0
C  C38  1  0.84391528  0.56776152  0.45305486  1  -0.04071  0  -0.018764  0.088515  0  4.039129  0
C  C39  1  0.83555115  0.59299480  0.38983840  1  0.036768  0  -0.089064  -0.172085  0  3.925383  0
C  C40  1  0.14785121  0.51510642  0.01610443  1  -0.073427  0  -0.018209  0.089859  0  4.038609  0
C  C41  1  0.21517271  0.50821349  0.00298715  1  0.064765  0  -0.090584  -0.177431  0  3.933726  0
C  C42  1  0.23842358  0.44384504  0.99301315  1  -0.049215  0  -0.017614  0.090749  0  4.040191  0
C  C43  1  0.19438801  0.38644271  0.99663767  1  0.015218  0  -0.089039  -0.174176  0  3.923185  0
C  C44  1  0.12717303  0.39324054  0.01099184  1  -0.052449  0  -0.018872  0.088227  0  4.051957  0
C  C45  1  0.10441510  0.45752988  0.02094082  1  0.016486  0  -0.091923  -0.175825  0  3.932118  0
C  C46  1  0.60914501  0.34559591  0.91396679  1  0.02106  0  -0.019399  0.087296  0  4.027242  0
C  C47  1  0.54061838  0.35424578  0.92004385  1  -0.005618  0  -0.090814  -0.170751  0  3.941869  0
C  C48  1  0.51852170  0.41889120  0.93133874  1  -0.003023  0  -0.020705  0.084935  0  4.039858  0
C  C49  1  0.56474735  0.47534163  0.93313171  1  0.021314  0  -0.089223  -0.172417  0  3.932259  0
C  C50  1  0.63293530  0.46702724  0.92468132  1  -0.047702  0  -0.020905  0.084664  0  4.054544  0
C  C51  1  0.65497207  0.40232606  0.91617919  1  0.06517  0  -0.091733  -0.172817  0  3.948669  0
C  C52  1  0.45235293  0.93744989  0.23412267  1  0.013419  0  -0.01718  0.088238  0  4.003329  0
C  C53  1  0.44565033  0.90674717  0.29432577  1  -0.009693  0  -0.091608  -0.16803  0  3.931275  0
C  C54  1  0.38292691  0.90038017  0.32224342  1  0.011301  0  -0.022493  0.082152  0  4.051724  0
C  C55  1  0.32486910  0.91666545  0.28629061  1  -0.034522  0  -0.088822  -0.171194  0  3.936978  0
C  C56  1  0.33064049  0.94495903  0.22493829  1  0.046855  0  -0.023053  0.081088  0  4.062507  0
C  C57  1  0.39441659  0.95949988  0.20198059  1  -0.07833  0  -0.092811  -0.168855  0  3.946127  0
C  C58  1  0.29221202  0.84759323  0.69819223  1  0.058061  0  -0.018943  0.089186  0  4.027748  0
C  C59  1  0.29868435  0.84609345  0.62878138  1  -0.04688  0  -0.091036  -0.172147  0  3.936804  0
C  C60  1  0.36262217  0.84968145  0.60322614  1  0.02222  0  -0.020684  0.086679  0  4.044822  0
C  C61  1  0.42028070  0.85201609  0.64701999  1  0.000565  0  -0.089158  -0.172547  0  3.929457  0
C  C62  1  0.41393034  0.85203647  0.71630948  1  0.043712  0  -0.021364  0.083539  0  4.060382  0
C  C63  1  0.35013935  0.85021722  0.74165342  1  0.008841  0  -0.091282  -0.172615  0  3.947682  0
C  C64  1  0.92388738  0.05308182  0.79704855  1  1.608164  0  0.234073  0.641986  0  4.067735  0
C  C65  1  0.66649142  0.89185917  0.88101752  1  1.601679  0  0.233074  0.639309  0  4.099035  0
C  C66  1  0.84212621  0.84597329  0.75709331  1  1.601699  0  0.233136  0.639129  0  4.116585  0
C  C67  1  0.74748523  0.09915020  0.93066181  1  1.606353  0  0.236501  0.643248  0  4.086064  0
C  C68  1  0.83282331  0.80467900  0.14079756  1  1.591398  0  0.23217  0.63548  0  4.085133  0
C  C69  1  0.08638922  0.97333455  0.06123787  1  1.612245  0  0.236161  0.645281  0  4.110643  0
C  C70  1  0.79785253  0.71724403  0.93196960  1  1.622998  0  0.236692  0.645581  0  4.124056  0
C  C71  1  0.69936717  0.96409748  0.09106408  1  1.617412  0  0.232925  0.639344  0  4.122535  0
C  C72  1  0.96137488  0.14352498  0.01328525  1  1.637353  0  0.235894  0.640885  0  4.124167  0
C  C73  1  0.05037481  0.89073063  0.84290352  1  1.602488  0  0.234805  0.641375  0  4.093625  0
C  C74  1  0.99696472  0.75602987  0.01025017  1  1.602766  0  0.22992  0.633637  0  4.089909  0
C  C75  1  0.91705199  0.02762535  0.17863790  1  1.600704  0  0.236072  0.646763  0  4.077364  0
C  C76  1  0.14471213  0.81771908  0.80815971  1  -0.031796  0  -0.019803  0.042174  0  3.9294  0
C  C77  1  0.10943970  0.87577176  0.80094478  1  0.088578  0  -0.022429  -0.1091  0  3.92422  0
C  C78  1  0.13132064  0.92055450  0.75409304  1  -0.065973  0  -0.022402  0.04338  0  3.935464  0
C  C79  1  0.19000773  0.91094773  0.72015887  1  -0.030067  0  -0.021597  0.022376  0  3.912945  0
C  C80  1  0.22639849  0.85392562  0.72854732  1  0.067323  0  -0.007912  0.013039  0  3.952565  0
C  C81  1  0.20115069  0.80631370  0.77108356  1  -0.065083  0  -0.020917  0.02077  0  3.919241  0
C  C82  1  0.50548669  0.80616092  0.78858670  1  -0.068642  0  -0.024491  0.017414  0  3.932352  0
C  C83  1  0.47494541  0.86107795  0.76354439  1  0.097197  0  -0.009774  0.013088  0  3.971723  0
C  C84  1  0.50255672  0.92651180  0.78522065  1  -0.028934  0  -0.022561  0.019306  0  3.93463  0
C  C85  1  0.56293782  0.93670747  0.82546040  1  -0.108719  0  -0.022524  0.042815  0  3.936603  0
C  C86  1  0.59584878  0.88126997  0.84754726  1  0.142785  0  -0.027237  -0.115348  0  3.9332  0
C  C87  1  0.56415618  0.81589782  0.83209070  1  -0.077138  0  -0.023349  0.042239  0  3.937568  0
C  C88  1  0.24076897  0.01768409  0.18281102  1  -0.009068  0  -0.02272  0.021749  0  3.939107  0
C  C89  1  0.27034385  0.95589022  0.18078591  1  0.055155  0  -0.010753  0.005817  0  3.967098  0
C  C90  1  0.24374747  0.90370892  0.13274096  1  -0.093879  0  -0.022534  0.019562  0  3.932804  0
C  C91  1  0.18911573  0.91366980  0.08843555  1  -0.031277  0  -0.023224  0.042543  0  3.942968  0
C  C92  1  0.15656418  0.97350678  0.09469846  1  0.052927  0  -0.021584  -0.0972  0  3.94776  0
C  C93  1  0.18380946  0.02641982  0.14046901  1  -0.000145  0  -0.027839  0.040996  0  3.967612  0
C  C94  1  0.63967555  0.96904485  0.20064098  1  -0.017304  0  -0.021694  0.04675  0  3.938638  0
C  C95  1  0.63665134  0.96551144  0.13042235  1  0.101587  0  -0.024741  -0.104532  0  3.94422  0
C  C96  1  0.57345894  0.94976847  0.09550571  1  -0.072733  0  -0.022518  0.046917  0  3.96054  0
C  C97  1  0.51678229  0.93206977  0.13011655  1  -0.038274  0  -0.019791  0.023331  0  3.902046  0
C  C98  1  0.51699873  0.94519243  0.20094109  1  0.038238  0  -0.008009  0.00909  0  3.931367  0
C  C99  1  0.58000599  0.96620073  0.23522355  1  -0.043304  0  -0.020474  0.020426  0  3.902495  0
C  C100  1  0.38136094  0.92592332  0.51150256  1  -0.054357  0  -0.023456  0.021249  0  3.939901  0
C  C101  1  0.36921156  0.85990791  0.53078856  1  0.093589  0  -0.013148  0.000753  0  3.970153  0
C  C102  1  0.36249919  0.80623398  0.48045595  1  -0.089909  0  -0.02277  0.023055  0  3.943538  0
C  C103  1  0.36704307  0.81816964  0.41241166  1  -0.082959  0  -0.023503  0.021522  0  3.947721  0
C  C104  1  0.37881605  0.88399295  0.39330693  1  0.120771  0  -0.013743  0.001897  0  3.977807  0
C  C105  1  0.38617879  0.93778697  0.44374143  1  -0.035692  0  -0.022323  0.022893  0  3.936462  0
C  C106  1  0.66123588  0.17831965  0.97060050  1  0.005659  0  -0.01924  0.049717  0  3.935066  0
C  C107  1  0.70437325  0.15755310  0.92050656  1  0.041377  0  -0.027502  -0.118285  0  3.91817  0
C  C108  1  0.70981924  0.19588633  0.86431529  1  -0.049964  0  -0.019577  0.043008  0  3.929297  0
C  C109  1  0.67474185  0.25424016  0.85975747  1  -0.052601  0  -0.022567  0.016018  0  3.922166  0
C  C110  1  0.63648734  0.27817627  0.91243294  1  0.036712  0  -0.006472  0.018113  0  3.94639  0
C  C111  1  0.62969411  0.23868742  0.96745765  1  -0.009171  0  -0.019891  0.023036  0  3.9098  0
C  C112  1  0.72692988  0.54793591  0.98040797  1  -0.02436  0  -0.020912  0.021029  0  3.932721  0
C  C113  1  0.68222642  0.52658962  0.92426626  1  0.047866  0  -0.010637  0.008912  0  3.960955  0
C  C114  1  0.68630950  0.56164910  0.86599287  1  -0.025025  0  -0.023334  0.019521  0  3.93145  0
C  C115  1  0.72978061  0.62016402  0.86569183  1  -0.018316  0  -0.026468  0.040822  0  3.955312  0
C  C116  1  0.76801106  0.64517082  0.92453937  1  0.03109  0  -0.023622  -0.105884  0  3.969224  0
C  C117  1  0.77033954  0.60638478  0.98002471  1  -0.045572  0  -0.020932  0.040076  0  3.962198  0
C  C118  1  0.02987195  0.24355146  0.07746736  1  -0.043377  0  -0.022989  0.035037  0  3.948291  0
C  C119  1  0.99255972  0.21525558  0.01936052  1  0.086233  0  -0.017449  -0.089948  0  3.94995  0
C  C120  1  0.99031180  0.25155341  0.96214101  1  -0.070935  0  -0.022579  0.0417  0  3.938249  0
C  C121  1  0.03403267  0.30921461  0.95888839  1  -0.049953  0  -0.021498  0.02217  0  3.933335  0
C  C122  1  0.07874174  0.33319664  0.01439685  1  0.099504  0  -0.010429  0.005199  0  3.95208  0
C  C123  1  0.07378447  0.30142764  0.07455352  1  -0.060242  0  -0.020503  0.021715  0  3.939868  0
C  C124  1  0.07604440  0.68193810  0.07398345  1  -0.021048  0  -0.017573  0.052372  0  3.913333  0
C  C125  1  0.03365362  0.69245422  0.01665093  1  0.045853  0  -0.028583  -0.132228  0  3.888973  0
C  C126  1  0.03119746  0.64319564  0.96058516  1  -0.030427  0  -0.019834  0.049321  0  3.912963  0
C  C127  1  0.07662509  0.59277058  0.95903390  1  -0.097844  0  -0.024518  0.015834  0  3.93015  0
C  C128  1  0.11572845  0.58029217  0.01692484  1  0.123968  0  -0.007792  0.017852  0  3.961458  0
C  C129  1  0.11458545  0.62527973  0.07418826  1  -0.051585  0  -0.024926  0.016228  0  3.922712  0
C  C130  1  0.42913159  0.43627857  0.01326709  1  -0.060795  0  -0.021891  0.022259  0  3.931343  0
C  C131  1  0.44682536  0.42655114  0.94617032  1  0.102919  0  -0.012524  0.003309  0  3.964313  0
C  C132  1  0.39510772  0.42263832  0.89470257  1  -0.074663  0  -0.023093  0.021797  0  3.93845  0
C  C133  1  0.32757551  0.42774093  0.90977572  1  -0.060462  0  -0.022541  0.023303  0  3.93671  0
C  C134  1  0.30990924  0.43711899  0.97680938  1  0.121874  0  -0.013247  -0.001374  0  3.971355  0
C  C135  1  0.36161861  0.44121434  0.02832001  1  -0.06725  0  -0.023693  0.022262  0  3.938846  0
C  C136  1  0.77009217  0.71966065  0.21148384  1  -0.007846  0  -0.016793  0.051108  0  3.919492  0
C  C137  1  0.82337592  0.76952068  0.20479237  1  0.042838  0  -0.02457  -0.12437  0  3.887628  0
C  C138  1  0.87210966  0.78340604  0.26003202  1  -0.055836  0  -0.019462  0.053333  0  3.909985  0
C  C139  1  0.87243866  0.74291231  0.31422551  1  -0.047382  0  -0.023609  0.018578  0  3.922228  0
C  C140  1  0.81982037  0.69334728  0.32104124  1  0.093531  0  -0.007427  0.016523  0  3.951179  0
C  C141  1  0.76857992  0.68302289  0.26918893  1  -0.078547  0  -0.024253  0.016272  0  3.918766  0
C  C142  1  0.76361567  0.74023285  0.60033044  1  -0.007845  0  -0.024867  0.017984  0  3.938512  0
C  C143  1  0.82170763  0.72276230  0.56857100  1  0.050937  0  -0.008785  0.009294  0  3.960826  0
C  C144  1  0.88473044  0.75334565  0.59497388  1  -0.020483  0  -0.019952  0.022732  0  3.925874  0
C  C145  1  0.88915974  0.79994059  0.65123840  1  -0.028038  0  -0.020244  0.048509  0  3.958054  0
C  C146  1  0.83173462  0.81203320  0.68656071  1  0.06587  0  -0.024059  -0.109343  0  3.956426  0
C  C147  1  0.76839218  0.78424423  0.65925581  1  -0.070244  0  -0.026087  0.036523  0  3.940435  0
C  C148  1  0.99577649  0.10898649  0.34936554  1  -0.035377  0  -0.024476  0.016113  0  3.928884  0
C  C149  1  0.94483473  0.14847904  0.37230636  1  0.046665  0  -0.007948  0.018263  0  3.954341  0
C  C150  1  0.88386943  0.14518838  0.33230183  1  -0.006307  0  -0.023086  0.016327  0  3.90815  0
C  C151  1  0.87724139  0.11189959  0.26738297  1  -0.050242  0  -0.018491  0.047665  0  3.902854  0
C  C152  1  0.92690298  0.06824544  0.24626268  1  0.060619  0  -0.026292  -0.125771  0  3.899383  0
C  C153  1  0.98524729  0.06571552  0.28997400  1  -0.051434  0  -0.020166  0.043858  0  3.922069  0
C  C154  1  0.89091743  0.12006424  0.62431340  1  -0.073386  0  -0.022937  0.016342  0  3.917193  0
C  C155  1  0.94445815  0.16946836  0.62066008  1  0.084973  0  -0.006604  0.021294  0  3.953426  0
C  C156  1  0.99323689  0.17901169  0.67485687  1  -0.02705  0  -0.023797  0.017954  0  3.916968  0
C  C157  1  0.98868645  0.14152096  0.73176038  1  -0.090096  0  -0.022  0.046517  0  3.911869  0
C  C158  1  0.93553306  0.09046203  0.73463351  1  0.089255  0  -0.028712  -0.130317  0  3.885866  0
C  C159  1  0.88887395  0.07805128  0.67738581  1  -0.055976  0  -0.019173  0.050927  0  3.916154  0
C  C160  1  0.93456580  0.48614627  0.45753749  1  -0.065078  0  -0.021614  0.02427  0  3.932895  0
C  C161  1  0.86626735  0.49903364  0.46134250  1  0.110053  0  -0.012867  0.001038  0  3.969148  0
C  C162  1  0.82064647  0.44670177  0.47799899  1  -0.097258  0  -0.023085  0.021015  0  3.94313  0
C  C163  1  0.84256193  0.38334942  0.49077157  1  -0.027142  0  -0.022209  0.022796  0  3.928646  0
C  C164  1  0.91081687  0.37021299  0.48636699  1  0.094304  0  -0.01242  0.002503  0  3.964256  0
C  C165  1  0.95642073  0.42265576  0.46991967  1  -0.064623  0  -0.023919  0.02041  0  3.940324  0
Br  Br166  1  0.24466344  0.72517396  0.77676118  1  -0.020057  0  0.036231  -0.043333  0  1.503341  0
Br  Br167  1  0.11813848  0.75424347  0.86922592  1  0.009056  0  0.060815  0.00411  0  1.793819  0
Br  Br168  1  0.22316820  0.97801689  0.66546076  1  -0.015563  0  0.039513  -0.042364  0  1.5689  0
Br  Br169  1  0.08002415  0.99324076  0.73392336  1  0.010366  0  0.056784  -0.001353  0  1.777435  0
Br  Br170  1  0.59973974  0.74016232  0.86825222  1  0.005437  0  0.04768  -0.014089  0  1.669896  0
Br  Br171  1  0.46532885  0.71842187  0.76188993  1  -0.02229  0  0.035314  -0.037233  0  1.486361  0
Br  Br172  1  0.59695370  0.02617528  0.85259635  1  0.014534  0  0.060432  0.004128  0  1.744674  0
Br  Br173  1  0.45595252  0.00084718  0.75939665  1  -0.017461  0  0.039293  -0.034409  0  1.55676  0
Br  Br174  1  0.14029102  0.10740356  0.14556359  1  -0.004945  0  0.028862  -0.056008  0  1.739327  0
Br  Br175  1  0.27787118  0.08874783  0.24544421  1  -0.021085  0  0.032803  -0.037319  0  1.469803  0
Br  Br176  1  0.15953186  0.84842357  0.01618284  1  -0.022556  0  0.055668  -0.03491  0  1.739272  0
Br  Br177  1  0.28021476  0.81852231  0.13073395  1  -0.015087  0  0.044431  -0.025789  0  1.584915  0
Br  Br178  1  0.58640747  0.99457790  0.32848677  1  -0.018594  0  0.042553  -0.038151  0  1.507302  0
Br  Br179  1  0.72528601  0.96967096  0.24802687  1  -0.024306  0  0.045816  -0.025519  0  1.563873  0
Br  Br180  1  0.44275622  0.88295504  0.07954296  1  -0.018825  0  0.043399  -0.039604  0  1.617104  0
Br  Br181  1  0.56582094  0.95202167  0.00135310  1  0.027502  0  0.053003  -0.026064  0  1.817791  0
Br  Br182  1  0.40204307  0.02690555  0.41828038  1  -0.018603  0  0.037416  -0.035565  0  1.527893  0
Br  Br183  1  0.39057171  0.99918811  0.57836707  1  -0.012005  0  0.035967  -0.035773  0  1.608619  0
Br  Br184  1  0.35723722  0.74625652  0.34402204  1  -0.028303  0  0.029217  -0.041173  0  1.446984  0
Br  Br185  1  0.34742767  0.71740431  0.50666762  1  -0.020502  0  0.029531  -0.041126  0  1.441815  0
Br  Br186  1  0.58137588  0.27041602  0.04115843  1  -0.015423  0  0.040883  -0.041026  0  1.566342  0
Br  Br187  1  0.64341049  0.12483686  0.04224091  1  0.017499  0  0.054484  -0.005324  0  1.730606  0
Br  Br188  1  0.67780153  0.30256387  0.78163406  1  -0.019322  0  0.036137  -0.043211  0  1.494599  0
Br  Br189  1  0.76740747  0.17191372  0.79535472  1  0.002902  0  0.05404  0.003736  0  1.651446  0
Br  Br190  1  0.83582370  0.63374734  0.05138519  1  -0.007949  0  0.062218  0.005705  0  1.567659  0
Br  Br191  1  0.72602777  0.49812961  0.05731266  1  -0.015196  0  0.039896  -0.036695  0  1.483621  0
Br  Br192  1  0.73771230  0.66631304  0.78694644  1  -0.010736  0  0.039488  -0.037946  0  1.701153  0
Br  Br193  1  0.63204596  0.52879992  0.78761886  1  -0.014577  0  0.038964  -0.032217  0  1.492204  0
Br  Br194  1  0.12774110  0.33791548  0.15180816  1  -0.016627  0  0.038321  -0.038105  0  1.470056  0
Br  Br195  1  0.01678656  0.20470255  0.15972110  1  -0.000602  0  0.066146  0.023053  0  1.64879  0
Br  Br196  1  0.03431879  0.35499123  0.87947415  1  -0.007974  0  0.039529  -0.034478  0  1.576745  0
Br  Br197  1  0.92130391  0.22370960  0.89344386  1  -0.020212  0  0.050759  -0.036279  0  1.689086  0
Br  Br198  1  0.16667482  0.60608136  0.15196761  1  -0.020612  0  0.029001  -0.044384  0  1.48236  0
Br  Br199  1  0.08158390  0.74037574  0.15369271  1  0.020954  0  0.05094  -0.004741  0  1.611223  0
Br  Br200  1  0.08704831  0.53897812  0.87829572  1  -0.01706  0  0.036868  -0.04168  0  1.619829  0
Br  Br201  1  0.96309825  0.63383685  0.88942030  1  0.039284  0  0.060965  0.007293  0  1.683869  0
Br  Br202  1  0.33776830  0.45268125  0.11871444  1  -0.024075  0  0.032908  -0.039217  0  1.474698  0
Br  Br203  1  0.49822184  0.44203817  0.08340153  1  -0.01884  0  0.037362  -0.032634  0  1.52083  0
Br  Br204  1  0.25822059  0.42276210  0.84001913  1  -0.024895  0  0.031807  -0.039845  0  1.489694  0
Br  Br205  1  0.41891764  0.41121475  0.80429510  1  -0.025095  0  0.030823  -0.039822  0  1.457973  0
Br  Br206  1  0.69619201  0.61845988  0.28051272  1  -0.021644  0  0.028205  -0.047557  0  1.475762  0
Br  Br207  1  0.69727285  0.70135669  0.14586390  1  0.020167  0  0.050441  -0.005755  0  1.608712  0
Br  Br208  1  0.94556974  0.75369581  0.38046985  1  -0.010759  0  0.030893  -0.050995  0  1.651129  0
Br  Br209  1  0.93381649  0.86112806  0.26954228  1  0.019041  0  0.040538  -0.030225  0  1.761096  0
Br  Br210  1  0.68948951  0.80606642  0.70243495  1  -0.014007  0  0.04835  -0.008311  0  1.628277  0
Br  Br211  1  0.67874113  0.70119578  0.56313010  1  -0.01988  0  0.034016  -0.038909  0  1.453965  0
Br  Br212  1  0.97062700  0.85202236  0.67781987  1  0.011512  0  0.050503  -0.024261  0  1.714856  0
Br  Br213  1  0.96483741  0.72891044  0.55608944  1  -0.012365  0  0.043821  -0.02405  0  1.596177  0
Br  Br214  1  0.05272346  0.00622996  0.27022878  1  0.020787  0  0.059197  0.014452  0  1.682038  0
Br  Br215  1  0.07966927  0.11616111  0.40050647  1  -0.02398  0  0.036705  -0.041218  0  1.48365  0
Br  Br216  1  0.80067644  0.13143851  0.21332865  1  0.035557  0  0.058902  -0.001719  0  1.719067  0
Br  Br217  1  0.80860315  0.18510645  0.36868081  1  -0.016798  0  0.038297  -0.043159  0  1.636465  0
Br  Br218  1  0.82670284  0.00122413  0.66435079  1  0.037472  0  0.058716  0.00536  0  1.688398  0
Br  Br219  1  0.81959361  0.11206533  0.55585763  1  -0.008785  0  0.038104  -0.042328  0  1.575409  0
Br  Br220  1  0.05691657  0.16179763  0.80197672  1  0.031623  0  0.055934  -0.001588  0  1.707624  0
Br  Br221  1  0.06670027  0.24376405  0.66809590  1  -0.019186  0  0.032986  -0.041016  0  1.484922  0
Br  Br222  1  0.04865081  0.40588620  0.46590389  1  -0.023763  0  0.031975  -0.03893  0  1.45581  0
Br  Br223  1  0.99702033  0.55660128  0.43662631  1  -0.019286  0  0.034609  -0.03868  0  1.516833  0
Br  Br224  1  0.77982966  0.31375792  0.51325386  1  -0.0212  0  0.037295  -0.032558  0  1.55161  0
Br  Br225  1  0.72840237  0.46353667  0.48184757  1  -0.020739  0  0.032619  -0.039736  0  1.467037  0
O  O226  1  0.97218247  0.04758366  0.84016887  1  -1.176126  0  -0.326632  -0.575712  0  2.386845  0
O  O227  1  0.68071411  0.86370470  0.93411696  1  -1.167125  0  -0.322749  -0.567476  0  2.374812  0
O  O228  1  0.81513368  0.90000717  0.77249050  1  -1.16902  0  -0.325526  -0.568867  0  2.391896  0
O  O229  1  0.75400800  0.05633063  0.88178314  1  -1.17212  0  -0.324382  -0.571135  0  2.395342  0
O  O230  1  0.77602327  0.09905262  0.98950773  1  -1.167767  0  -0.34507  -0.569525  0  2.357425  0
O  O231  1  0.87772797  0.81321358  0.79636646  1  -1.169795  0  -0.337639  -0.56548  0  2.328305  0
O  O232  1  0.70735864  0.92797606  0.84930086  1  -1.15599  0  -0.344442  -0.576607  0  2.365426  0
O  O233  1  0.86297968  0.03058621  0.80267640  1  -1.183827  0  -0.350204  -0.585856  0  2.426627  0
O  O234  1  0.79277196  0.95755780  0.96811230  1  -1.19965  0  -0.763393  -1.054345  0  2.220486  0
O  O235  1  0.90759426  0.93179359  0.88654282  1  -1.196797  0  -0.762729  -1.052395  0  2.223923  0
O  O236  1  0.80369699  0.85466090  0.89293631  1  -1.232644  0  -0.659985  -0.984419  0  2.406679  0
O  O237  1  0.87859743  0.04408227  0.93272845  1  -1.222183  0  -0.662469  -0.982286  0  2.43131  0
O  O238  1  0.78393900  0.80828585  0.09803177  1  -1.155651  0  -0.318801  -0.562249  0  2.365539  0
O  O239  1  0.07479785  0.00291692  0.00865432  1  -1.157013  0  -0.31271  -0.545658  0  2.26352  0
O  O240  1  0.84996704  0.73414788  0.90257027  1  -1.172603  0  -0.323389  -0.564426  0  2.400159  0
O  O241  1  0.73973959  0.01553361  0.08884982  1  -1.170449  0  -0.309778  -0.567333  0  2.33082  0
O  O242  1  0.90645538  0.12937153  0.03907010  1  -1.161062  0  -0.31523  -0.547505  0  2.325168  0
O  O243  1  0.00430096  0.84372606  0.84506064  1  -1.159243  0  -0.331535  -0.571676  0  2.380903  0
O  O244  1  0.99145561  0.79774127  0.06032603  1  -1.163608  0  -0.318561  -0.557867  0  2.363423  0
O  O245  1  0.94229309  0.97167920  0.16798901  1  -1.166404  0  -0.314616  -0.566227  0  2.368021  0
O  O246  1  0.97570897  0.76478533  0.95023963  1  -1.190569  0  -0.363718  -0.597794  0  2.49705  0
O  O247  1  0.88073328  0.05455368  0.13507424  1  -1.175631  0  -0.365779  -0.590156  0  2.496983  0
O  O248  1  0.76313241  0.75578319  0.96781281  1  -1.154299  0  -0.341923  -0.572154  0  2.316282  0
O  O249  1  0.05220388  0.94921457  0.87381217  1  -1.163157  0  -0.332538  -0.566229  0  2.309476  0
O  O250  1  0.99637161  0.10340018  0.97942295  1  -1.16215  0  -0.341203  -0.574275  0  2.291827  0
O  O251  1  0.70488524  0.90526776  0.06287463  1  -1.167063  0  -0.352526  -0.568636  0  2.367215  0
O  O252  1  0.89298490  0.82898345  0.13385009  1  -1.178923  0  -0.357157  -0.58534  0  2.434703  0
O  O253  1  0.04379472  0.93829699  0.09235015  1  -1.162413  0  -0.34795  -0.579786  0  2.337641  0
O  O254  1  0.93099045  0.98675257  0.02509179  1  -1.190691  0  -0.759001  -1.04974  0  2.222438  0
O  O255  1  0.87686075  0.84807767  0.99651749  1  -1.195086  0  -0.767714  -1.052829  0  2.244189  0
O  O256  1  0.99091346  0.89484790  0.97195771  1  -1.250107  0  -0.661267  -0.98001  0  2.427599  0
O  O257  1  0.83701242  0.93136830  0.08183145  1  -1.24866  0  -0.658776  -0.983385  0  2.411683  0
