# generated using pymatgen
data_CdH12C10N4O5
_symmetry_space_group_name_H-M   'P 1'
_cell_length_a   8.08050950
_cell_length_b   12.32179873
_cell_length_c   12.87950000
_cell_angle_alpha   90.00000000
_cell_angle_beta   95.10138667
_cell_angle_gamma   90.00000000
_symmetry_Int_Tables_number   1
_chemical_formula_structural   CdH12C10N4O5
_chemical_formula_sum   'Cd4 H48 C40 N16 O20'
_cell_volume   1277.28603921
_cell_formula_units_Z   4
loop_
 _symmetry_equiv_pos_site_id
 _symmetry_equiv_pos_as_xyz
  1  'x, y, z'
loop_
 _atom_site_type_symbol
 _atom_site_label
 _atom_site_symmetry_multiplicity
 _atom_site_fract_x
 _atom_site_fract_y
 _atom_site_fract_z
 _atom_site_occupancy
 _atom_site_hle17_bader_spin_density
 _atom_site_hle17_ddec_charge
 _atom_site_hle17_ddec_spin_density
 _atom_site_hle17_ddec_sum_bond_order
 _atom_site_hle17_magmom
 _atom_site_hse06_10hf_bader_spin_density
 _atom_site_hse06_10hf_ddec_charge
 _atom_site_hse06_10hf_ddec_spin_density
 _atom_site_hse06_10hf_ddec_sum_bond_order
 _atom_site_hse06_10hf_magmom
 _atom_site_hse06_bader_spin_density
 _atom_site_hse06_ddec_charge
 _atom_site_hse06_ddec_spin_density
 _atom_site_hse06_ddec_sum_bond_order
 _atom_site_hse06_magmom
 _atom_site_pbe_bader_charge
 _atom_site_pbe_bader_spin_density
 _atom_site_pbe_cm5_charge
 _atom_site_pbe_ddec_charge
 _atom_site_pbe_ddec_spin_density
 _atom_site_pbe_ddec_sum_bond_order
 _atom_site_pbe_magmom
Cd  Cd0  1  0.87220455  0.41547424  0.82286302  1  0  1.134719  0  1.686463  0  0  0.94712  0  2.129499  0  0  1.00149  0  2.079475  0  1.273007  0  0.782882  0.908505  0  2.163769  0
Cd  Cd1  1  0.62779261  0.91547429  0.67713753  1  0  1.134727  0  1.686438  0  0  0.947127  0  2.129473  0  0  1.001497  0  2.079449  0  1.273023  0  0.782874  0.908512  0  2.163741  0
Cd  Cd2  1  0.12779645  0.58452505  0.17713673  1  0  1.134694  0  1.686465  0  0  0.947091  0  2.129494  0  0  1.001462  0  2.079469  0  1.272976  0  0.782868  0.908475  0  2.163764  0
Cd  Cd3  1  0.37220591  0.08452581  0.32286286  1  0  1.134718  0  1.686454  0  0  0.9471  0  2.129484  0  0  1.001472  0  2.079459  0  1.273027  0  0.782863  0.908484  0  2.163753  0
H  H4  1  0.86006192  0.64760269  0.66258004  1  0  0.112269  0  0.974956  0  0  0.118588  0  1.043366  0  0  0.122297  0  1.038821  0  0.167988  0  0.134469  0.115853  0  1.046608  0
H  H5  1  0.63993648  0.14760264  0.83741979  1  0  0.112258  0  0.974973  0  0  0.118607  0  1.043349  0  0  0.122317  0  1.038804  0  0.168012  0  0.134465  0.115872  0  1.046591  0
H  H6  1  0.13993784  0.35239741  0.33741886  1  0  0.112237  0  0.974991  0  0  0.118595  0  1.04335  0  0  0.122304  0  1.038805  0  0.168003  0  0.134466  0.115861  0  1.046591  0
H  H7  1  0.36006577  0.85239746  0.16258158  1  0  0.112238  0  0.97498  0  0  0.118587  0  1.043358  0  0  0.122299  0  1.038807  0  0.168026  0  0.134448  0.115853  0  1.046598  0
H  H8  1  0.24594763  0.53711639  0.88039170  1  0  0.118872  0  0.950892  0  0  0.129576  0  1.011716  0  0  0.13264  0  1.009041  0  0.127914  0  0.122021  0.127308  0  1.013767  0
H  H9  1  0.25404976  0.03711715  0.61960839  1  0  0.118857  0  0.950911  0  0  0.129559  0  1.011742  0  0  0.132623  0  1.009067  0  0.127925  0  0.121999  0.12729  0  1.013793  0
H  H10  1  0.75404964  0.46288453  0.11960939  1  0  0.118843  0  0.950898  0  0  0.129547  0  1.011729  0  0  0.132611  0  1.009054  0  0.127906  0  0.121999  0.127278  0  1.01378  0
H  H11  1  0.74595249  0.96288296  0.38039142  1  0  0.118821  0  0.950945  0  0  0.129527  0  1.011774  0  0  0.13259  0  1.009099  0  0.127904  0  0.121971  0.127258  0  1.013823  0
H  H12  1  0.98052782  0.79713037  0.57938081  1  0  0.120491  0  0.938865  0  0  0.140243  0  1.000105  0  0  0.141595  0  0.999509  0  0.12119  0  0.111634  0.139163  0  1.000649  0
H  H13  1  0.51947059  0.29712951  0.92061980  1  0  0.120505  0  0.93887  0  0  0.14024  0  1.000119  0  0  0.141609  0  0.999501  0  0.121177  0  0.111638  0.13916  0  1.00066  0
H  H14  1  0.01947070  0.20286973  0.42061958  1  0  0.120491  0  0.938867  0  0  0.140224  0  1.000118  0  0  0.141593  0  0.9995  0  0.121196  0  0.11164  0.139145  0  1.00066  0
H  H15  1  0.48052918  0.70287059  0.07937987  1  0  0.120519  0  0.93885  0  0  0.140247  0  1.000108  0  0  0.141616  0  0.99949  0  0.121181  0  0.111637  0.139166  0  1.000653  0
H  H16  1  0.19753490  0.77840421  0.56388680  1  0  0.105849  0  0.957441  0  0  0.123716  0  1.023521  0  0  0.124548  0  1.023703  0  0.068139  0  0.103631  0.123008  0  1.023485  0
H  H17  1  0.30246498  0.27840497  0.93611343  1  0  0.105827  0  0.95748  0  0  0.123717  0  1.023531  0  0  0.124549  0  1.023714  0  0.068149  0  0.103633  0.123009  0  1.023496  0
H  H18  1  0.80246487  0.22159589  0.43611288  1  0  0.105832  0  0.957452  0  0  0.123694  0  1.023536  0  0  0.124525  0  1.023721  0  0.068136  0  0.103627  0.122987  0  1.023501  0
H  H19  1  0.69753602  0.72159513  0.06388632  1  0  0.10582  0  0.957475  0  0  0.123715  0  1.023518  0  0  0.124547  0  1.023701  0  0.068135  0  0.103628  0.123008  0  1.023482  0
H  H20  1  0.13650615  0.87030800  0.65893944  1  0  0.108908  0  0.952908  0  0  0.125692  0  1.021951  0  0  0.126784  0  1.020994  0  0.068646  0  0.105983  0.124808  0  1.022713  0
H  H21  1  0.36349498  0.37030795  0.84106163  1  0  0.108925  0  0.952962  0  0  0.125714  0  1.021987  0  0  0.126806  0  1.021033  0  0.068639  0  0.105972  0.12483  0  1.02275  0
H  H22  1  0.86349486  0.12969210  0.34106108  1  0  0.108903  0  0.952915  0  0  0.125686  0  1.021953  0  0  0.126778  0  1.020999  0  0.068651  0  0.105984  0.124802  0  1.022716  0
H  H23  1  0.63650479  0.62969216  0.15893882  1  0  0.108907  0  0.952925  0  0  0.125687  0  1.021964  0  0  0.126778  0  1.02101  0  0.068641  0  0.105976  0.124803  0  1.022726  0
H  H24  1  0.49157471  0.52610906  0.71330404  1  0  0.098975  0  0.989575  0  0  0.10246  0  1.062811  0  0  0.105511  0  1.059595  0  0.195279  0  0.131667  0.100187  0  1.065126  0
H  H25  1  0.00842517  0.02610739  0.78669696  1  0  0.098991  0  0.989584  0  0  0.102478  0  1.062814  0  0  0.105528  0  1.059597  0  0.195311  0  0.131682  0.100205  0  1.065127  0
H  H26  1  0.50842629  0.47389185  0.28669648  1  0  0.098977  0  0.989587  0  0  0.102461  0  1.062819  0  0  0.105511  0  1.059602  0  0.195311  0  0.131673  0.100187  0  1.065134  0
H  H27  1  0.99157459  0.97389271  0.21330349  1  0  0.098997  0  0.989575  0  0  0.102479  0  1.062809  0  0  0.10553  0  1.059591  0  0.195311  0  0.131681  0.100206  0  1.065121  0
H  H28  1  0.75442114  0.24747523  0.63300719  1  0  0.116419  0  0.996711  0  0  0.119748  0  1.067374  0  0  0.124171  0  1.062844  0  0.190285  0  0.117736  0.116483  0  1.070714  0
H  H29  1  0.74557975  0.74747366  0.86699278  1  0  0.11639  0  0.996736  0  0  0.119731  0  1.067379  0  0  0.124148  0  1.062864  0  0.190071  0  0.11774  0.116468  0  1.070713  0
H  H30  1  0.24557986  0.75252487  0.36699255  1  0  0.116429  0  0.996691  0  0  0.119757  0  1.067353  0  0  0.124173  0  1.062844  0  0.190302  0  0.117736  0.116491  0  1.070693  0
H  H31  1  0.25442002  0.25252563  0.13300690  1  0  0.116397  0  0.996736  0  0  0.119734  0  1.067385  0  0  0.124153  0  1.062864  0  0.190079  0  0.117743  0.11647  0  1.070719  0
H  H32  1  0.23350929  0.51477711  0.60330431  1  0  0.105692  0  0.952781  0  0  0.124823  0  1.016628  0  0  0.124948  0  1.018054  0  0.074229  0  0.109514  0.124622  0  1.015728  0
H  H33  1  0.26649183  0.01477706  0.89669676  1  0  0.105659  0  0.95278  0  0  0.124786  0  1.016646  0  0  0.124911  0  1.018071  0  0.074249  0  0.109495  0.124585  0  1.015746  0
H  H34  1  0.76649171  0.48522299  0.39669621  1  0  0.105664  0  0.952769  0  0  0.124793  0  1.016626  0  0  0.12492  0  1.018051  0  0.074236  0  0.109495  0.124593  0  1.015726  0
H  H35  1  0.73350918  0.98522304  0.10330376  1  0  0.105661  0  0.952779  0  0  0.124788  0  1.016644  0  0  0.124915  0  1.018069  0  0.07425  0  0.109499  0.124587  0  1.015744  0
H  H36  1  0.17006892  0.38331254  0.55767115  1  0  0.121892  0  0.925152  0  0  0.142494  0  0.98261  0  0  0.143615  0  0.981765  0  0.087325  0  0.112628  0.141568  0  0.983329  0
H  H37  1  0.32993221  0.88331259  0.94232915  1  0  0.121887  0  0.925165  0  0  0.142487  0  0.982631  0  0  0.143608  0  0.981787  0  0.087315  0  0.112624  0.14156  0  0.98335  0
H  H38  1  0.82993209  0.61668837  0.44232860  1  0  0.121875  0  0.92516  0  0  0.14248  0  0.982617  0  0  0.143602  0  0.981772  0  0.087303  0  0.112627  0.141554  0  0.983336  0
H  H39  1  0.67006880  0.11668751  0.05767060  1  0  0.121882  0  0.92515  0  0  0.142487  0  0.98261  0  0  0.143608  0  0.981766  0  0.087311  0  0.112632  0.14156  0  0.983329  0
H  H40  1  0.26908734  0.47341384  0.47343537  1  0  0.101299  0  0.95483  0  0  0.118376  0  1.023798  0  0  0.118698  0  1.024024  0  0.068761  0  0.103233  0.118046  0  1.023694  0
H  H41  1  0.23091254  0.97341308  0.02656485  1  0  0.101255  0  0.954859  0  0  0.118369  0  1.023791  0  0  0.118691  0  1.024019  0  0.068762  0  0.103241  0.118039  0  1.023687  0
H  H42  1  0.73091366  0.52658627  0.52656515  1  0  0.101297  0  0.954831  0  0  0.118371  0  1.023801  0  0  0.118693  0  1.024028  0  0.068762  0  0.103231  0.118041  0  1.023696  0
H  H43  1  0.76908723  0.02658622  0.97343560  1  0  0.101255  0  0.954891  0  0  0.118361  0  1.023831  0  0  0.118683  0  1.024057  0  0.068761  0  0.103239  0.118031  0  1.023726  0
H  H44  1  0.63455287  0.56757298  0.89607827  1  0  0.431102  0  0.867369  0  0  0.401331  0  0.928882  0  0  0.411919  0  0.913466  0  0.641244  0  0.290571  0.393813  0  0.939821  0
H  H45  1  0.86544677  0.06757374  0.60392241  1  0  0.431114  0  0.867372  0  0  0.401339  0  0.928891  0  0  0.411928  0  0.913474  0  0.641255  0  0.29058  0.393821  0  0.939829  0
H  H46  1  0.36544813  0.43242712  0.10392148  1  0  0.431048  0  0.867442  0  0  0.401268  0  0.928972  0  0  0.411855  0  0.913558  0  0.641257  0  0.290538  0.393751  0  0.939911  0
H  H47  1  0.13455423  0.93242718  0.39607889  1  0  0.431055  0  0.867433  0  0  0.401275  0  0.928962  0  0  0.411862  0  0.913546  0  0.641267  0  0.290539  0.393757  0  0.939901  0
H  H48  1  0.80687811  0.57389511  0.96398903  1  0  0.420894  0  0.884843  0  0  0.388163  0  0.952596  0  0  0.399383  0  0.936352  0  0.65466  0  0.28659  0.38023  0  0.964051  0
H  H49  1  0.69312278  0.07389506  0.53601094  1  0  0.42091  0  0.884821  0  0  0.388177  0  0.952578  0  0  0.399397  0  0.936334  0  0.654663  0  0.286593  0.380243  0  0.964032  0
H  H50  1  0.19312290  0.42610500  0.03601149  1  0  0.420905  0  0.884828  0  0  0.388177  0  0.952575  0  0  0.399398  0  0.93633  0  0.654665  0  0.286597  0.380244  0  0.964029  0
H  H51  1  0.30687823  0.92610424  0.46399036  1  0  0.420925  0  0.884823  0  0  0.388198  0  0.952563  0  0  0.39942  0  0.936316  0  0.654655  0  0.286592  0.380264  0  0.964018  0
C  C52  1  0.97942948  0.63827532  0.70768477  1  0  0.151846  0  3.653681  0  0  0.090402  0  3.918286  0  0  0.104135  0  3.93085  0  0.983416  0  0.141014  0.081637  0  3.909416  0
C  C53  1  0.52056768  0.13827527  0.79231500  1  0  0.151801  0  3.653661  0  0  0.090336  0  3.918245  0  0  0.104068  0  3.930813  0  0.983437  0  0.140976  0.081572  0  3.909375  0
C  C54  1  0.02056780  0.36172479  0.29231477  1  0  0.151884  0  3.653661  0  0  0.09042  0  3.918254  0  0  0.104152  0  3.930819  0  0.983446  0  0.141018  0.081655  0  3.909386  0
C  C55  1  0.47943332  0.86172402  0.20768552  1  0  0.151802  0  3.653655  0  0  0.090331  0  3.918247  0  0  0.104063  0  3.930812  0  0.984048  0  0.140971  0.081566  0  3.909377  0
C  C56  1  0.24136169  0.67158295  0.76528823  1  0  -0.07116  0  3.704358  0  0  -0.077974  0  3.96557  0  0  -0.082659  0  3.984242  0  0.309691  0  0.0646  -0.075162  0  3.953318  0
C  C57  1  0.25863571  0.17158290  0.73471185  1  0  -0.071139  0  3.704426  0  0  -0.077941  0  3.965618  0  0  -0.082607  0  3.98427  0  0.309646  0  0.064599  -0.075129  0  3.953365  0
C  C58  1  0.75863683  0.32841715  0.23471292  1  0  -0.071201  0  3.704436  0  0  -0.07798  0  3.965612  0  0  -0.082671  0  3.984292  0  0.309668  0  0.064594  -0.075168  0  3.953358  0
C  C59  1  0.74136530  0.82841639  0.26528789  1  0  -0.07119  0  3.704348  0  0  -0.077991  0  3.965555  0  0  -0.082675  0  3.984227  0  0.309868  0  0.064553  -0.075179  0  3.953302  0
C  C60  1  0.18226498  0.58329552  0.81713253  1  0  0.017323  0  3.709165  0  0  -0.033527  0  3.989472  0  0  -0.026979  0  4.0054  0  0.437025  0  0.009794  -0.037728  0  3.978729  0
C  C61  1  0.31773242  0.08329628  0.68286833  1  0  0.017373  0  3.709183  0  0  -0.033469  0  3.989472  0  0  -0.026925  0  4.005394  0  0.437244  0  0.009806  -0.037669  0  3.978732  0
C  C62  1  0.81773355  0.41670458  0.18286863  1  0  0.017407  0  3.709205  0  0  -0.03345  0  3.989497  0  0  -0.0269  0  4.005425  0  0.437277  0  0.009792  -0.037652  0  3.978759  0
C  C63  1  0.68226858  0.91670301  0.31713142  1  0  0.01747  0  3.709228  0  0  -0.033389  0  3.989518  0  0  -0.02684  0  4.005445  0  0.437284  0  0.009865  -0.037587  0  3.978773  0
C  C64  1  0.40842259  0.72283521  0.78026896  1  0  0.645715  0  3.997046  0  0  0.594462  0  4.297725  0  0  0.629773  0  4.28761  0  1.635448  0  0.20069  0.570517  0  4.303935  0
C  C65  1  0.09157481  0.22283922  0.71973113  1  0  0.645641  0  3.997163  0  0  0.594379  0  4.29786  0  0  0.629685  0  4.28775  0  1.635527  0  0.200634  0.570434  0  4.304069  0
C  C66  1  0.59157345  0.27716246  0.21973128  1  0  0.645622  0  3.997126  0  0  0.594356  0  4.297818  0  0  0.62967  0  4.287704  0  1.635544  0  0.200632  0.570412  0  4.304025  0
C  C67  1  0.90842744  0.77715845  0.28026636  1  0  0.645596  0  3.997144  0  0  0.594338  0  4.297834  0  0  0.629651  0  4.287719  0  1.635137  0  0.200617  0.570392  0  4.304043  0
C  C68  1  0.10550411  0.79340283  0.61967820  1  0  -0.166834  0  3.608758  0  0  -0.271683  0  3.857131  0  0  -0.268006  0  3.864698  0  0.27583  0  -0.132512  -0.27388  0  3.852125  0
C  C69  1  0.39449578  0.29340359  0.88032203  1  0  -0.166879  0  3.60888  0  0  -0.271735  0  3.857256  0  0  -0.268073  0  3.864815  0  0.275817  0  -0.132519  -0.273932  0  3.852252  0
C  C70  1  0.89449566  0.20659727  0.38032226  1  0  -0.166781  0  3.608793  0  0  -0.271604  0  3.857166  0  0  -0.267941  0  3.864722  0  0.275836  0  -0.132502  -0.273801  0  3.852162  0
C  C71  1  0.60550523  0.70659651  0.11967772  1  0  -0.166904  0  3.608804  0  0  -0.271742  0  3.857162  0  0  -0.268078  0  3.864719  0  0.27582  0  -0.132539  -0.273938  0  3.852156  0
C  C72  1  0.52339057  0.45196810  0.67349969  1  0  0.17021  0  3.639111  0  0  0.106918  0  3.906946  0  0  0.12169  0  3.918887  0  0.947157  0  0.146473  0.097431  0  3.898547  0
C  C73  1  0.97661032  0.95196734  0.82650028  1  0  0.170157  0  3.639098  0  0  0.10687  0  3.906934  0  0  0.121642  0  3.918873  0  0.947162  0  0.146442  0.097382  0  3.898536  0
C  C74  1  0.47661044  0.54803200  0.32650083  1  0  0.170175  0  3.639167  0  0  0.106899  0  3.906989  0  0  0.121671  0  3.91893  0  0.947151  0  0.146465  0.097412  0  3.89859  0
C  C75  1  0.02338945  0.04803276  0.17349939  1  0  0.170134  0  3.639242  0  0  0.106855  0  3.907071  0  0  0.121628  0  3.919011  0  0.947163  0  0.146447  0.097367  0  3.898671  0
C  C76  1  0.50741244  0.31106497  0.56586505  1  0  -0.05721  0  3.701962  0  0  -0.061147  0  3.956714  0  0  -0.067126  0  3.976848  0  0.365532  0  0.069928  -0.057524  0  3.943474  0
C  C77  1  0.99258845  0.81106178  0.93413337  1  0  -0.057229  0  3.702046  0  0  -0.061125  0  3.956751  0  0  -0.067118  0  3.976898  0  0.365543  0  0.070021  -0.057495  0  3.943502  0
C  C78  1  0.49258856  0.68893838  0.43413392  1  0  -0.057195  0  3.702042  0  0  -0.061106  0  3.956768  0  0  -0.06709  0  3.976906  0  0.365067  0  0.070003  -0.057479  0  3.943523  0
C  C79  1  0.00741132  0.18893832  0.06586631  1  0  -0.057242  0  3.701977  0  0  -0.061153  0  3.956701  0  0  -0.067138  0  3.976839  0  0.365556  0  0.069982  -0.057524  0  3.943453  0
C  C80  1  0.65454044  0.30699252  0.62934906  1  0  0.016812  0  3.710116  0  0  -0.03442  0  3.988837  0  0  -0.027045  0  4.003758  0  0.355443  0  0.008998  -0.039079  0  3.978734  0
C  C81  1  0.84546169  0.80698932  0.87065098  1  0  0.016801  0  3.710172  0  0  -0.034457  0  3.988898  0  0  -0.027078  0  4.003819  0  0.355601  0  0.008918  -0.039119  0  3.978794  0
C  C82  1  0.34546181  0.69300921  0.37065153  1  0  0.016779  0  3.710199  0  0  -0.034461  0  3.988915  0  0  -0.027086  0  4.003832  0  0.355417  0  0.008956  -0.039121  0  3.978812  0
C  C83  1  0.15453808  0.19300997  0.12934947  1  0  0.016857  0  3.710103  0  0  -0.034392  0  3.988831  0  0  -0.027016  0  4.00375  0  0.355614  0  0.008982  -0.039054  0  3.978727  0
C  C84  1  0.44626193  0.23419065  0.48377747  1  0  0.626941  0  3.989674  0  0  0.575412  0  4.281928  0  0  0.609924  0  4.276444  0  1.588451  0  0.196941  0.552088  0  4.284852  0
C  C85  1  0.05373671  0.73418826  0.01622191  1  0  0.626914  0  3.989695  0  0  0.575382  0  4.281948  0  0  0.609897  0  4.276465  0  1.588447  0  0.196912  0.552054  0  4.284871  0
C  C86  1  0.55374032  0.76581027  0.51622313  1  0  0.626912  0  3.98982  0  0  0.575378  0  4.282078  0  0  0.609892  0  4.276593  0  1.588918  0  0.196894  0.552051  0  4.285001  0
C  C87  1  0.94626057  0.26581103  0.98377685  1  0  0.626942  0  3.989718  0  0  0.575414  0  4.281963  0  0  0.609928  0  4.276478  0  1.588447  0  0.196934  0.552087  0  4.284885  0
C  C88  1  0.26446909  0.44650461  0.55420184  1  0  -0.158675  0  3.612792  0  0  -0.263058  0  3.860968  0  0  -0.258718  0  3.868681  0  0.275331  0  -0.127328  -0.265736  0  3.855809  0
C  C89  1  0.23553079  0.94650385  0.94579838  1  0  -0.158601  0  3.612796  0  0  -0.26301  0  3.860968  0  0  -0.25867  0  3.868682  0  0.275333  0  -0.127304  -0.265689  0  3.855808  0
C  C90  1  0.73553191  0.55349630  0.44579790  1  0  -0.158649  0  3.612732  0  0  -0.263024  0  3.860897  0  0  -0.258686  0  3.868611  0  0.275338  0  -0.127302  -0.265702  0  3.855736  0
C  C91  1  0.76446773  0.05349625  0.05420122  1  0  -0.158613  0  3.612771  0  0  -0.263019  0  3.860942  0  0  -0.25868  0  3.868656  0  0.275319  0  -0.127319  -0.265697  0  3.855782  0
N  N92  1  0.02019879  0.56387790  0.78103210  1  0  -0.39347  0  3.285605  0  0  -0.318166  0  3.579352  0  0  -0.339899  0  3.595317  0  -1.235268  0  -0.364439  -0.303351  0  3.567979  0
N  N93  1  0.47979861  0.06387704  0.71896876  1  0  -0.393494  0  3.285582  0  0  -0.318202  0  3.579347  0  0  -0.339937  0  3.595313  0  -1.235483  0  -0.364397  -0.303387  0  3.567973  0
N  N94  1  0.97979973  0.43612220  0.21896828  1  0  -0.393509  0  3.285624  0  0  -0.318204  0  3.579386  0  0  -0.339937  0  3.595351  0  -1.235503  0  -0.364417  -0.303388  0  3.568013  0
N  N95  1  0.52020364  0.93612225  0.28103183  1  0  -0.393562  0  3.285702  0  0  -0.318242  0  3.579443  0  0  -0.339977  0  3.595408  0  -1.236074  0  -0.364425  -0.303427  0  3.56807  0
N  N96  1  0.10890722  0.70562912  0.69605190  1  0  -0.033393  0  3.55448  0  0  0.064266  0  3.77061  0  0  0.050558  0  3.797819  0  -1.251077  0  -0.23759  0.073253  0  3.752222  0
N  N97  1  0.39109142  0.20562988  0.80394825  1  0  -0.033317  0  3.554382  0  0  0.064338  0  3.770493  0  0  0.050623  0  3.797707  0  -1.251079  0  -0.237555  0.073324  0  3.752106  0
N  N98  1  0.89109254  0.29437017  0.30394933  1  0  -0.033404  0  3.554504  0  0  0.064232  0  3.770646  0  0  0.050526  0  3.797855  0  -1.251132  0  -0.237589  0.073218  0  3.75226  0
N  N99  1  0.60891083  0.79436941  0.19605156  1  0  -0.033179  0  3.55429  0  0  0.064467  0  3.770393  0  0  0.050757  0  3.797609  0  -1.251098  0  -0.237457  0.073453  0  3.752006  0
N  N100  1  0.66285876  0.39451789  0.69534749  1  0  -0.404628  0  3.26965  0  0  -0.325214  0  3.563706  0  0  -0.348224  0  3.578735  0  -1.239113  0  -0.363045  -0.30953  0  3.552871  0
N  N101  1  0.83714088  0.89451550  0.80465241  1  0  -0.404602  0  3.269491  0  0  -0.325185  0  3.563542  0  0  -0.348194  0  3.578568  0  -1.239051  0  -0.363018  -0.309501  0  3.552713  0
N  N102  1  0.33713976  0.60548303  0.30465289  1  0  -0.404611  0  3.269581  0  0  -0.325198  0  3.563624  0  0  -0.348208  0  3.578652  0  -1.239066  0  -0.363023  -0.309513  0  3.552789  0
N  N103  1  0.16285888  0.10548379  0.19534726  1  0  -0.404643  0  3.269532  0  0  -0.325227  0  3.563578  0  0  -0.348237  0  3.578604  0  -1.239065  0  -0.363056  -0.309545  0  3.55275  0
N  N104  1  0.42612154  0.40476558  0.59539042  1  0  -0.025934  0  3.534682  0  0  0.068685  0  3.754806  0  0  0.055305  0  3.781085  0  -1.191692  0  -0.229924  0.077436  0  3.73711  0
N  N105  1  0.07387959  0.90476320  0.90460910  1  0  -0.025832  0  3.534692  0  0  0.068763  0  3.754811  0  0  0.055387  0  3.781091  0  -1.191687  0  -0.229913  0.077512  0  3.737114  0
N  N106  1  0.57387947  0.59523615  0.40461010  1  0  -0.025869  0  3.534664  0  0  0.068729  0  3.754784  0  0  0.05535  0  3.781064  0  -1.19169  0  -0.229947  0.07748  0  3.737087  0
N  N107  1  0.92612018  0.09523610  0.09539057  1  0  -0.025822  0  3.534692  0  0  0.068779  0  3.754812  0  0  0.055401  0  3.781092  0  -1.191688  0  -0.229909  0.077529  0  3.737114  0
O  O108  1  0.52693160  0.66288780  0.81754055  1  0  -0.653989  0  1.987056  0  0  -0.595093  0  2.206833  0  0  -0.620635  0  2.196264  0  -1.200212  0  -0.328335  -0.577216  0  2.213612  0
O  O109  1  0.97306432  0.16288856  0.68245992  1  0  -0.653975  0  1.987003  0  0  -0.595067  0  2.206787  0  0  -0.620612  0  2.19622  0  -1.200212  0  -0.328291  -0.577189  0  2.213565  0
O  O110  1  0.47306443  0.33711231  0.18245969  1  0  -0.653943  0  1.986978  0  0  -0.59504  0  2.206767  0  0  -0.620582  0  2.196195  0  -1.200238  0  -0.328311  -0.577163  0  2.213544  0
O  O111  1  0.02694042  0.83711074  0.31753926  1  0  -0.654  0  1.98694  0  0  -0.595088  0  2.206718  0  0  -0.620633  0  2.196148  0  -1.200014  0  -0.328313  -0.57721  0  2.213496  0
O  O112  1  0.41823311  0.82241483  0.75515610  1  0  -0.649928  0  2.013889  0  0  -0.588686  0  2.270773  0  0  -0.616193  0  2.259381  0  -1.176748  0  -0.3372  -0.569394  0  2.277942  0
O  O113  1  0.08176428  0.32241559  0.74484321  1  0  -0.649883  0  2.013974  0  0  -0.588651  0  2.270884  0  0  -0.616156  0  2.259498  0  -1.176825  0  -0.337194  -0.56936  0  2.278053  0
O  O114  1  0.58176541  0.17758365  0.24484351  1  0  -0.649854  0  2.013973  0  0  -0.588621  0  2.270884  0  0  -0.616128  0  2.259494  0  -1.176804  0  -0.337161  -0.56933  0  2.27805  0
O  O115  1  0.91823548  0.67758289  0.25515491  1  0  -0.64982  0  2.014063  0  0  -0.588599  0  2.270975  0  0  -0.616104  0  2.259587  0  -1.176893  0  -0.337146  -0.569307  0  2.278143  0
O  O116  1  0.31730750  0.25557795  0.42388892  1  0  -0.6302  0  1.958621  0  0  -0.573919  0  2.197825  0  0  -0.600766  0  2.188586  0  -1.178853  0  -0.321147  -0.555117  0  2.203427  0
O  O117  1  0.18269487  0.75557718  0.07611300  1  0  -0.630253  0  1.958541  0  0  -0.573958  0  2.197752  0  0  -0.600806  0  2.188511  0  -1.178844  0  -0.321156  -0.555157  0  2.20336  0
O  O118  1  0.68269475  0.74442297  0.57611167  1  0  -0.630211  0  1.958677  0  0  -0.573915  0  2.197887  0  0  -0.600759  0  2.188643  0  -1.178889  0  -0.321127  -0.555115  0  2.203497  0
O  O119  1  0.81730738  0.24442292  0.92388682  1  0  -0.630199  0  1.9586  0  0  -0.573914  0  2.197807  0  0  -0.60076  0  2.188567  0  -1.178874  0  -0.321133  -0.555115  0  2.203417  0
O  O120  1  0.53125663  0.14695338  0.47500377  1  0  -0.649355  0  2.028323  0  0  -0.570428  0  2.259723  0  0  -0.601563  0  2.251872  0  -1.171913  0  -0.319498  -0.548674  0  2.264409  0
O  O121  1  0.96874426  0.64695343  0.02499620  1  0  -0.649268  0  2.02836  0  0  -0.570374  0  2.259798  0  0  -0.601507  0  2.251945  0  -1.171931  0  -0.319484  -0.548623  0  2.264487  0
O  O122  1  0.46874313  0.85304672  0.52499668  1  0  -0.649312  0  2.028304  0  0  -0.570432  0  2.259758  0  0  -0.601565  0  2.251905  0  -1.171925  0  -0.319487  -0.548681  0  2.264454  0
O  O123  1  0.03125675  0.35304748  0.97500355  1  0  -0.649338  0  2.028302  0  0  -0.57045  0  2.259749  0  0  -0.601585  0  2.251896  0  -1.171946  0  -0.319519  -0.548696  0  2.264435  0
O  O124  1  0.71974264  0.52201307  0.93544543  1  0  -0.831481  0  1.815912  0  0  -0.769184  0  1.996441  0  0  -0.791193  0  1.963056  0  -1.267125  0  -0.589993  -0.753585  0  2.01967  0
O  O125  1  0.78025825  0.02201302  0.56455454  1  0  -0.831503  0  1.81589  0  0  -0.769204  0  1.996421  0  0  -0.791214  0  1.963035  0  -1.267146  0  -0.590009  -0.753605  0  2.019649  0
O  O126  1  0.28025837  0.47798703  0.06455432  1  0  -0.831431  0  1.815946  0  0  -0.769127  0  1.996466  0  0  -0.791136  0  1.963082  0  -1.267155  0  -0.58997  -0.75353  0  2.019693  0
O  O127  1  0.21974276  0.97798627  0.43544676  1  0  -0.831466  0  1.815939  0  0  -0.769156  0  1.99646  0  0  -0.791167  0  1.963074  0  -1.267152  0  -0.589975  -0.753556  0  2.019689  0
