# generated using pymatgen
data_CdH18C26N4O5
_symmetry_space_group_name_H-M   'P 1'
_cell_length_a   12.58931710
_cell_length_b   15.51483696
_cell_length_c   16.05882757
_cell_angle_alpha   109.55937377
_cell_angle_beta   113.10758472
_cell_angle_gamma   89.95662841
_symmetry_Int_Tables_number   1
_chemical_formula_structural   CdH18C26N4O5
_chemical_formula_sum   'Cd4 H72 C104 N16 O20'
_cell_volume   2687.44244436
_cell_formula_units_Z   4
loop_
 _symmetry_equiv_pos_site_id
 _symmetry_equiv_pos_as_xyz
  1  'x, y, z'
loop_
 _atom_site_type_symbol
 _atom_site_label
 _atom_site_symmetry_multiplicity
 _atom_site_fract_x
 _atom_site_fract_y
 _atom_site_fract_z
 _atom_site_occupancy
 _atom_site_pbe_bader_charge
 _atom_site_pbe_bader_spin_density
 _atom_site_pbe_cm5_charge
 _atom_site_pbe_ddec_charge
 _atom_site_pbe_ddec_spin_density
 _atom_site_pbe_ddec_sum_bond_order
 _atom_site_pbe_magmom
Cd  Cd0  1  0.43782627  0.99199056  0.85978818  1  1.262417  0  0.775156  0.888115  0  2.159357  0
Cd  Cd1  1  0.57783925  0.50819755  0.14016344  1  1.26142  0  0.774594  0.887939  0  2.158026  0
Cd  Cd2  1  0.56216936  0.00801160  0.14021298  1  1.262433  0  0.775162  0.888094  0  2.159358  0
Cd  Cd3  1  0.42216019  0.49180531  0.85983996  1  1.26145  0  0.774583  0.887967  0  2.157974  0
H  H4  1  0.43316581  0.65720224  0.42314938  1  0.483824  0  0.339185  0.291155  0  0.907717  0
H  H5  1  0.00996164  0.84343123  0.57693565  1  0.4564  0  0.339067  0.29074  0  0.906412  0
H  H6  1  0.56684916  0.34280547  0.57685842  1  0.483884  0  0.339144  0.291113  0  0.907728  0
H  H7  1  0.99003881  0.15657438  0.42306320  1  0.456501  0  0.339029  0.290642  0  0.906543  0
H  H8  1  0.57512031  0.66632707  0.86502281  1  0.571065  0  0.314884  0.300012  0  0.997987  0
H  H9  1  0.71046216  0.83356659  0.13497383  1  0.564032  0  0.314575  0.299904  0  0.999704  0
H  H10  1  0.42487709  0.33367442  0.13498174  1  0.570605  0  0.314855  0.3  0  0.99801  0
H  H11  1  0.28953569  0.16643486  0.86502335  1  0.564071  0  0.314587  0.299979  0  0.999616  0
H  H12  1  0.40848734  0.63028425  0.25106083  1  0.165991  0  0.128003  0.090167  0  1.041626  0
H  H13  1  0.15744707  0.87034721  0.74907370  1  0.157319  0  0.128469  0.09124  0  1.040683  0
H  H14  1  0.59153619  0.36973662  0.74895286  1  0.166064  0  0.127999  0.090206  0  1.041665  0
H  H15  1  0.84256060  0.12964869  0.25091845  1  0.157204  0  0.128491  0.091274  0  1.040644  0
H  H16  1  0.70427829  0.51550349  0.37889902  1  0.133268  0  0.117787  0.125367  0  1.01591  0
H  H17  1  0.32522533  0.98519751  0.62142677  1  0.128955  0  0.11771  0.12619  0  1.016703  0
H  H18  1  0.29572655  0.48449525  0.62110818  1  0.133156  0  0.117779  0.125264  0  1.016021  0
H  H19  1  0.67477631  0.01480875  0.37856560  1  0.128699  0  0.117724  0.126243  0  1.016732  0
H  H20  1  0.72753607  0.48530436  0.52878725  1  0.047771  0  0.102408  0.104516  0  0.998596  0
H  H21  1  0.19893500  0.01465314  0.47098622  1  0.035665  0  0.102487  0.104762  0  0.998738  0
H  H22  1  0.27246327  0.51469716  0.47122273  1  0.04775  0  0.102397  0.104449  0  0.998591  0
H  H23  1  0.80105824  0.98535725  0.52900366  1  0.039393  0  0.102473  0.104741  0  0.998657  0
H  H24  1  0.78526794  0.49241720  0.69793757  1  0.04683  0  0.097763  0.094407  0  1.023332  0
H  H25  1  0.08758769  0.00698385  0.30157710  1  0.074659  0  0.09789  0.0948  0  1.022752  0
H  H26  1  0.21473640  0.50758846  0.30207302  1  0.047153  0  0.097767  0.094407  0  1.023259  0
H  H27  1  0.91240360  0.99302240  0.69841351  1  0.074803  0  0.097891  0.094915  0  1.022642  0
H  H28  1  0.71061513  0.60194852  0.80657328  1  0.087996  0  0.101093  0.107921  0  1.032302  0
H  H29  1  0.90427702  0.89747006  0.19306805  1  0.122836  0  0.100931  0.108024  0  1.032022  0
H  H30  1  0.28939044  0.39806059  0.19343747  1  0.088178  0  0.101071  0.107936  0  1.032227  0
H  H31  1  0.09571936  0.10253067  0.80692318  1  0.122774  0  0.100921  0.107972  0  1.032194  0
H  H32  1  0.52457804  0.70546413  0.58020420  1  0.065655  0  0.099623  0.095163  0  1.022635  0
H  H33  1  0.94466443  0.79491799  0.41999817  1  0.04031  0  0.099496  0.094822  0  1.022538  0
H  H34  1  0.47541989  0.29453389  0.41979763  1  0.065406  0  0.099617  0.095145  0  1.022629  0
H  H35  1  0.05533423  0.20509797  0.57999995  1  0.040419  0  0.099427  0.094685  0  1.022627  0
H  H36  1  0.52738602  0.84666630  0.70794229  1  0.12146  0  0.118124  0.124559  0  1.008805  0
H  H37  1  0.81994899  0.65316974  0.29203444  1  0.135701  0  0.118028  0.124687  0  1.008303  0
H  H38  1  0.47261758  0.15333588  0.29206256  1  0.121403  0  0.118167  0.124589  0  1.008777  0
H  H39  1  0.18005245  0.34683728  0.70797089  1  0.135348  0  0.118023  0.124674  0  1.008278  0
H  H40  1  0.48389120  0.80173709  0.93787018  1  0.157861  0  0.141308  0.114256  0  0.983426  0
H  H41  1  0.54629539  0.69832973  0.06218400  1  0.17011  0  0.141248  0.11483  0  0.983148  0
H  H42  1  0.51610796  0.19826717  0.06213666  1  0.158008  0  0.141317  0.114309  0  0.983321  0
H  H43  1  0.45370161  0.30167313  0.93781867  1  0.170121  0  0.141253  0.114811  0  0.983177  0
H  H44  1  0.28338256  0.95599658  0.08546408  1  0.107156  0  0.106185  0.107976  0  1.029829  0
H  H45  1  0.19714380  0.54436109  0.91420413  1  0.100846  0  0.10594  0.107502  0  1.029606  0
H  H46  1  0.71662947  0.04400772  0.91454880  1  0.107238  0  0.106241  0.108058  0  1.029726  0
H  H47  1  0.80286310  0.45562245  0.08580056  1  0.100317  0  0.10598  0.107511  0  1.029491  0
H  H48  1  0.18245320  0.00335353  0.19652919  1  0.087994  0  0.105989  0.120552  0  1.004451  0
H  H49  1  0.98506022  0.49706858  0.80333845  1  0.088032  0  0.106536  0.121729  0  1.004568  0
H  H50  1  0.81755370  0.99664938  0.80348260  1  0.088119  0  0.105976  0.120498  0  1.004522  0
H  H51  1  0.01494544  0.50292464  0.19666854  1  0.087763  0  0.106566  0.121807  0  1.004523  0
H  H52  1  0.07134298  0.22727131  0.09583856  1  0.086568  0  0.104714  0.121259  0  1.00962  0
H  H53  1  0.97521172  0.27371865  0.90487694  1  0.079061  0  0.104612  0.120995  0  1.009329  0
H  H54  1  0.92866356  0.77273298  0.90417313  1  0.086795  0  0.104682  0.121197  0  1.009664  0
H  H55  1  0.02478391  0.72627383  0.09512067  1  0.078573  0  0.104639  0.121014  0  1.009247  0
H  H56  1  0.17116271  0.17746802  0.98439514  1  0.080936  0  0.100891  0.098081  0  1.031473  0
H  H57  1  0.18655568  0.32355858  0.01610762  1  0.05765  0  0.100689  0.097805  0  1.031491  0
H  H58  1  0.82884493  0.82253558  0.01561665  1  0.081033  0  0.100922  0.098142  0  1.031576  0
H  H59  1  0.81343629  0.67642076  0.98388645  1  0.057254  0  0.100666  0.097817  0  1.031169  0
H  H60  1  0.11193144  0.31311804  0.34732777  1  0.103867  0  0.102785  0.120397  0  1.011664  0
H  H61  1  0.76435740  0.18752591  0.65259599  1  0.092729  0  0.102837  0.120493  0  1.010656  0
H  H62  1  0.88806396  0.68688539  0.65265171  1  0.103966  0  0.102736  0.120349  0  1.011569  0
H  H63  1  0.23563167  0.81247415  0.34739991  1  0.092554  0  0.102848  0.120499  0  1.010749  0
H  H64  1  0.96396280  0.42357610  0.33673823  1  0.108617  0  0.103153  0.107422  0  1.002043  0
H  H65  1  0.62719076  0.07672118  0.66274896  1  0.106856  0  0.103486  0.107847  0  1.002336  0
H  H66  1  0.03602863  0.57642313  0.66323212  1  0.108496  0  0.103177  0.107431  0  1.001829  0
H  H67  1  0.37279713  0.92327890  0.33724835  1  0.106866  0  0.103512  0.107954  0  1.002316  0
H  H68  1  0.72005196  0.22130969  0.06768084  1  0.108669  0  0.107766  0.117047  0  1.01723  0
H  H69  1  0.65227734  0.27824857  0.93221346  1  0.15305  0  0.1076  0.116642  0  1.017969  0
H  H70  1  0.27993880  0.77867786  0.93230054  1  0.108964  0  0.107671  0.116844  0  1.017366  0
H  H71  1  0.34772020  0.72175428  0.06778628  1  0.153162  0  0.107641  0.1167  0  1.017872  0
H  H72  1  0.86651541  0.11225346  0.07734894  1  0.10696  0  0.103119  0.117625  0  1.04317  0
H  H73  1  0.78890643  0.38763117  0.92297247  1  0.106965  0  0.103326  0.117993  0  1.044037  0
H  H74  1  0.13348095  0.88773692  0.92264381  1  0.10714  0  0.103139  0.117739  0  1.043219  0
H  H75  1  0.21109519  0.61236753  0.07702628  1  0.106925  0  0.103343  0.118034  0  1.044059  0
C  C76  1  0.47739862  0.60937228  0.30351217  1  0.977139  0  0.144046  0.162873  0  3.94711  0
C  C77  1  0.17381924  0.89128203  0.69665318  1  0.995412  0  0.143235  0.160744  0  3.948244  0
C  C78  1  0.52262281  0.39064376  0.69650111  1  0.976909  0  0.144113  0.162883  0  3.947162  0
C  C79  1  0.82618494  0.10871802  0.30333971  1  0.995378  0  0.143219  0.160619  0  3.948114  0
C  C80  1  0.62837356  0.55023836  0.37329820  1  0.414529  0  0.001795  -0.077295  0  3.938315  0
C  C81  1  0.25494550  0.95046798  0.62697866  1  0.435529  0  0.001939  -0.078612  0  3.941063  0
C  C82  1  0.37163481  0.44976314  0.62670873  1  0.414526  0  0.001819  -0.077106  0  3.938385  0
C  C83  1  0.74505584  0.04953967  0.37301627  1  0.436021  0  0.002022  -0.07859  0  3.941246  0
C  C84  1  0.58519625  0.58989966  0.44234154  1  0.329634  0  0.080358  0.101783  0  4.029243  0
C  C85  1  0.14280055  0.91069544  0.55785054  1  0.361095  0  0.080711  0.101917  0  4.02986  0
C  C86  1  0.41481238  0.41010322  0.55766591  1  0.330084  0  0.080382  0.10186  0  4.029135  0
C  C87  1  0.85719917  0.08931637  0.44214700  1  0.36107  0  0.080553  0.101798  0  4.029991  0
C  C88  1  0.62215034  0.59529131  0.54216826  1  0.013781  0  -0.012356  0.049958  0  4.099475  0
C  C89  1  0.08011636  0.90501146  0.45789061  1  0.006054  0  -0.012613  0.050054  0  4.097926  0
C  C90  1  0.37784941  0.40471296  0.45783832  1  0.013548  0  -0.012381  0.049918  0  4.099291  0
C  C91  1  0.91987881  0.09499896  0.54210470  1  0.006382  0  -0.012703  0.049886  0  4.098206  0
C  C92  1  0.69672089  0.53557490  0.57696022  1  -0.021885  0  -0.097381  -0.144769  0  3.993119  0
C  C93  1  0.11995631  0.96441939  0.42289933  1  0.038544  0  -0.097587  -0.145646  0  3.993323  0
C  C94  1  0.30327961  0.46442661  0.42304746  1  -0.022153  0  -0.097315  -0.144582  0  3.992932  0
C  C95  1  0.88004273  0.03558895  0.57709602  1  0.033995  0  -0.097503  -0.145494  0  3.993313  0
C  C96  1  0.72838261  0.53940290  0.67169955  1  -0.023931  0  -0.095825  -0.079661  0  4.058495  0
C  C97  1  0.05695213  0.96023200  0.32799763  1  -0.164351  0  -0.095792  -0.079839  0  4.0593  0
C  C98  1  0.27161965  0.46059859  0.32830556  1  -0.024137  0  -0.095864  -0.079733  0  4.058422  0
C  C99  1  0.94304629  0.03977289  0.67199731  1  -0.164364  0  -0.095789  -0.080005  0  4.059227  0
C  C100  1  0.68670608  0.60131155  0.73335100  1  -0.073157  0  -0.093426  -0.126651  0  3.939843  0
C  C101  1  0.95367156  0.89828039  0.26637350  1  -0.055734  0  -0.093322  -0.126424  0  3.939327  0
C  C102  1  0.31329820  0.39869410  0.26665693  1  -0.073241  0  -0.093378  -0.126688  0  3.939838  0
C  C103  1  0.04632644  0.10172586  0.73361867  1  -0.055494  0  -0.093342  -0.126374  0  3.939553  0
C  C104  1  0.61280773  0.66190223  0.70024020  1  0.027397  0  -0.004468  0.069014  0  4.057179  0
C  C105  1  0.91293495  0.83791666  0.29966434  1  0.014447  0  -0.004272  0.068576  0  4.058295  0
C  C106  1  0.38719605  0.33810066  0.29976758  1  0.027513  0  -0.004503  0.069004  0  4.057232  0
C  C107  1  0.08706161  0.16208822  0.70032872  1  0.012919  0  -0.004146  0.068624  0  4.058432  0
C  C108  1  0.58212516  0.65811431  0.60492416  1  -0.05722  0  -0.094382  -0.183122  0  3.946795  0
C  C109  1  0.97745656  0.84209025  0.39514211  1  -0.057835  0  -0.093857  -0.182096  0  3.946999  0
C  C110  1  0.41787642  0.34188996  0.39508252  1  -0.056992  0  -0.094355  -0.183081  0  3.946656  0
C  C111  1  0.02253793  0.15792294  0.60485477  1  -0.057414  0  -0.093811  -0.181901  0  3.947015  0
C  C112  1  0.56685333  0.72861692  0.76082406  1  0.310908  0  0.08059  0.101113  0  4.017669  0
C  C113  1  0.80645282  0.77118470  0.23914644  1  0.342695  0  0.080556  0.101593  0  4.01769  0
C  C114  1  0.43314664  0.27138526  0.23918148  1  0.310946  0  0.080518  0.101036  0  4.017779  0
C  C115  1  0.19354640  0.22881744  0.76085225  1  0.344334  0  0.080522  0.101552  0  4.017579  0
C  C116  1  0.52728514  0.81074825  0.75538471  1  0.430287  0  -0.00261  -0.089109  0  3.96814  0
C  C117  1  0.77234653  0.68911549  0.24460591  1  0.415373  0  -0.002625  -0.089366  0  3.968209  0
C  C118  1  0.47271155  0.18925256  0.24462073  1  0.430762  0  -0.002675  -0.08915  0  3.968313  0
C  C119  1  0.22765587  0.31089015  0.75539925  1  0.415659  0  -0.002704  -0.089469  0  3.968232  0
C  C120  1  0.50597737  0.79237001  0.87689050  1  1.02583  0  0.148476  0.171291  0  3.912283  0
C  C121  1  0.62942986  0.70762229  0.12313257  1  1.004265  0  0.14847  0.170538  0  3.913211  0
C  C122  1  0.49402459  0.20763288  0.12311717  1  1.025928  0  0.14844  0.171116  0  3.91232  0
C  C123  1  0.37057156  0.29237848  0.87686722  1  1.004057  0  0.148485  0.170572  0  3.913263  0
C  C124  1  0.30111554  0.04017106  0.96735383  1  1.518445  0  0.193262  0.559675  0  4.239661  0
C  C125  1  0.33344203  0.46026310  0.03244900  1  1.534596  0  0.193537  0.559093  0  4.238546  0
C  C126  1  0.69888627  0.95983113  0.03265270  1  1.518246  0  0.193244  0.559737  0  4.239573  0
C  C127  1  0.66656148  0.53972871  0.96755382  1  1.534595  0  0.193508  0.55929  0  4.237968  0
C  C128  1  0.23413618  0.06404152  0.02831887  1  0.049082  0  -0.034486  -0.075174  0  4.017947  0
C  C129  1  0.20536692  0.43657297  0.97168529  1  -0.004536  0  -0.034238  -0.07406  0  4.017198  0
C  C130  1  0.76586311  0.93595999  0.97168933  1  0.049091  0  -0.034415  -0.075068  0  4.017721  0
C  C131  1  0.79463828  0.56340846  0.02831381  1  -0.004442  0  -0.034298  -0.074505  0  4.017214  0
C  C132  1  0.23615535  0.01488002  0.08790866  1  -0.000307  0  -0.080754  -0.064193  0  3.988327  0
C  C133  1  0.14759178  0.48560395  0.91196403  1  -0.050813  0  -0.080695  -0.063423  0  3.988224  0
C  C134  1  0.76385035  0.98512355  0.91209770  1  -0.000256  0  -0.08076  -0.064129  0  3.987996  0
C  C135  1  0.85241635  0.51437680  0.08803616  1  -0.050452  0  -0.080656  -0.063326  0  3.987577  0
C  C136  1  0.18013211  0.04110126  0.14969167  1  -0.034255  0  -0.100005  -0.196495  0  3.97445  0
C  C137  1  0.02968563  0.45941406  0.85028228  1  0.025954  0  -0.100931  -0.199091  0  3.974191  0
C  C138  1  0.81987876  0.95890026  0.85031865  1  -0.034261  0  -0.100159  -0.196688  0  3.974463  0
C  C139  1  0.97032301  0.54057569  0.14972272  1  0.025815  0  -0.100912  -0.198974  0  3.974017  0
C  C140  1  0.12210117  0.11834103  0.15318857  1  0.399319  0  0.092277  0.280317  0  4.026282  0
C  C141  1  0.96833200  0.38228876  0.84701876  1  0.375038  0  0.091934  0.279524  0  4.027333  0
C  C142  1  0.87790446  0.88165842  0.84682129  1  0.39987  0  0.092398  0.280476  0  4.026176  0
C  C143  1  0.03166748  0.61770164  0.15297801  1  0.375221  0  0.091892  0.279382  0  4.027586  0
C  C144  1  0.11674513  0.16729321  0.09279396  1  -0.061148  0  -0.108959  -0.220813  0  4.006242  0
C  C145  1  0.02355858  0.33354601  0.90766434  1  -0.034658  0  -0.108515  -0.219376  0  4.00618  0
C  C146  1  0.88326573  0.83271110  0.90722122  1  -0.061438  0  -0.108921  -0.220658  0  4.006303  0
C  C147  1  0.97643852  0.66644161  0.09232951  1  -0.034203  0  -0.108465  -0.219288  0  4.00635  0
C  C148  1  0.17248094  0.13941735  0.03071682  1  -0.064774  0  -0.084718  -0.0645  0  3.992333  0
C  C149  1  0.14140169  0.36142700  0.96960115  1  -0.014608  0  -0.084721  -0.064975  0  3.994054  0
C  C150  1  0.82752673  0.86058626  0.96929675  1  -0.065323  0  -0.084729  -0.06471  0  3.992343  0
C  C151  1  0.85860027  0.63855373  0.03039456  1  -0.014137  0  -0.08475  -0.06489  0  3.99423  0
C  C152  1  0.99583938  0.20707958  0.21311602  1  0.389473  0  0.076844  0.243243  0  4.068271  0
C  C153  1  0.78240051  0.29321465  0.78701686  1  0.386181  0  0.076445  0.242996  0  4.068604  0
C  C154  1  0.00415197  0.79291700  0.78687371  1  0.38971  0  0.076735  0.24308  0  4.068581  0
C  C155  1  0.21759701  0.70678129  0.21298330  1  0.386069  0  0.076417  0.242998  0  4.068739  0
C  C156  1  0.02525758  0.29363001  0.28745843  1  0.007221  0  -0.106424  -0.208747  0  4.011264  0
C  C157  1  0.73760364  0.20677568  0.71248770  1  -0.035454  0  -0.106066  -0.208772  0  4.0132  0
C  C158  1  0.97473973  0.70636999  0.71252580  1  0.006787  0  -0.106379  -0.20871  0  4.011062  0
C  C159  1  0.26238009  0.79322508  0.28750815  1  -0.034585  0  -0.106023  -0.208684  0  4.013219  0
C  C160  1  0.94348473  0.35460154  0.28120783  1  -0.103799  0  -0.084823  -0.076223  0  3.991641  0
C  C161  1  0.66212197  0.14562799  0.71844588  1  -0.023596  0  -0.0852  -0.077343  0  3.992698  0
C  C162  1  0.05651007  0.64539910  0.71876617  1  -0.104464  0  -0.084925  -0.076355  0  3.991456  0
C  C163  1  0.33786458  0.85437485  0.28155060  1  -0.024132  0  -0.085282  -0.077576  0  3.992814  0
C  C164  1  0.83365022  0.32956103  0.20212475  1  -0.007238  0  -0.024241  -0.046774  0  3.974398  0
C  C165  1  0.63139316  0.17037975  0.79750775  1  -0.074028  0  -0.024177  -0.045355  0  3.973461  0
C  C166  1  0.16633988  0.67043341  0.79785291  1  -0.006629  0  -0.024206  -0.046711  0  3.974362  0
C  C167  1  0.36859970  0.82961756  0.20248971  1  -0.073942  0  -0.024172  -0.045283  0  3.973381  0
C  C168  1  0.80561092  0.24167360  0.12881083  1  -0.026793  0  -0.078282  -0.0666  0  3.948525  0
C  C169  1  0.67664654  0.25812324  0.87107853  1  -0.073442  0  -0.078544  -0.066818  0  3.949605  0
C  C170  1  0.19437685  0.75831742  0.87117164  1  -0.026321  0  -0.07814  -0.066182  0  3.948548  0
C  C171  1  0.32335098  0.74187615  0.12892143  1  -0.074017  0  -0.078633  -0.066972  0  3.949543  0
C  C172  1  0.88680216  0.18045018  0.13394064  1  -0.079631  0  -0.102597  -0.202047  0  3.992301  0
C  C173  1  0.75266047  0.31950887  0.86622452  1  -0.037306  0  -0.101953  -0.201702  0  3.992145  0
C  C174  1  0.11319048  0.81954363  0.86604726  1  -0.079882  0  -0.102616  -0.202262  0  3.992735  0
C  C175  1  0.24733864  0.68048914  0.13377590  1  -0.036944  0  -0.101954  -0.201735  0  3.992253  0
C  C176  1  0.75018040  0.39874655  0.19496717  1  1.56466  0  0.185881  0.54909  0  4.254682  0
C  C177  1  0.55526396  0.10104415  0.80447395  1  1.543696  0  0.185776  0.548063  0  4.2549  0
C  C178  1  0.24980593  0.60124309  0.80501619  1  1.563892  0  0.185792  0.548987  0  4.255055  0
C  C179  1  0.44472993  0.89895525  0.19552580  1  1.543701  0  0.185758  0.548022  0  4.254726  0
N  N180  1  0.56064348  0.56284589  0.28828104  1  -1.19222  0  -0.350954  -0.286293  0  3.514776  0
N  N181  1  0.27226085  0.93782779  0.71195588  1  -1.221306  0  -0.351357  -0.285456  0  3.517051  0
N  N182  1  0.43936968  0.43716184  0.71172755  1  -1.192533  0  -0.350977  -0.286454  0  3.514992  0
N  N183  1  0.72774521  0.06217227  0.28803977  1  -1.221592  0  -0.351424  -0.285433  0  3.517109  0
N  N184  1  0.49003299  0.62772859  0.39582952  1  -1.27219  0  -0.380027  -0.260515  0  3.681934  0
N  N185  1  0.09414660  0.87290507  0.60431340  1  -1.241573  0  -0.379344  -0.258871  0  3.681148  0
N  N186  1  0.50998226  0.37228052  0.60417969  1  -1.271973  0  -0.380025  -0.260493  0  3.682057  0
N  N187  1  0.90585508  0.12710120  0.39568075  1  -1.241727  0  -0.379176  -0.258607  0  3.681067  0
N  N188  1  0.55273699  0.71938692  0.83886044  1  -1.300335  0  -0.372768  -0.245305  0  3.624153  0
N  N189  1  0.71422275  0.78050822  0.16115164  1  -1.292346  0  -0.373583  -0.246604  0  3.624329  0
N  N190  1  0.44726225  0.28061457  0.16114510  1  -1.300134  0  -0.372705  -0.245249  0  3.624132  0
N  N191  1  0.28577710  0.21949393  0.83884857  1  -1.292214  0  -0.37356  -0.246585  0  3.624225  0
N  N192  1  0.49033903  0.84934637  0.82790466  1  -1.237597  0  -0.365588  -0.307224  0  3.569003  0
N  N193  1  0.66279479  0.65061288  0.17209581  1  -1.237521  0  -0.365311  -0.306652  0  3.568449  0
N  N194  1  0.50966291  0.15065651  0.17210212  1  -1.237985  0  -0.365587  -0.307137  0  3.56905  0
N  N195  1  0.33720373  0.34938859  0.82790466  1  -1.237733  0  -0.36529  -0.306603  0  3.568524  0
O  O196  1  0.36846005  0.97842115  0.97450829  1  -1.166298  0  -0.329818  -0.562219  0  2.255261  0
O  O197  1  0.39348766  0.52193162  0.02516368  1  -1.161149  0  -0.330087  -0.562595  0  2.253441  0
O  O198  1  0.63155178  0.02158868  0.02550542  1  -1.166214  0  -0.329952  -0.562345  0  2.254973  0
O  O199  1  0.60651111  0.47806088  0.97483883  1  -1.161333  0  -0.330072  -0.562606  0  2.253146  0
O  O200  1  0.29113249  0.08238818  0.90941595  1  -1.202607  0  -0.328728  -0.586184  0  2.303759  0
O  O201  1  0.38159236  0.41799993  0.09034902  1  -1.19952  0  -0.328626  -0.585387  0  2.300617  0
O  O202  1  0.70886358  0.91760983  0.09058401  1  -1.202548  0  -0.328602  -0.586044  0  2.303718  0
O  O203  1  0.61841178  0.58199189  0.90965531  1  -1.199246  0  -0.328701  -0.58557  0  2.300587  0
O  O204  1  0.78118489  0.47899894  0.25948764  1  -1.183411  0  -0.337539  -0.570556  0  2.144016  0
O  O205  1  0.52123336  0.02103758  0.73955746  1  -1.184246  0  -0.336945  -0.569793  0  2.142467  0
O  O206  1  0.21880369  0.52099278  0.74049838  1  -1.183395  0  -0.33737  -0.570406  0  2.144269  0
O  O207  1  0.47876723  0.97896182  0.26044385  1  -1.184245  0  -0.336903  -0.569736  0  2.14242  0
O  O208  1  0.65108917  0.37304749  0.11982326  1  -1.158826  0  -0.339761  -0.561177  0  2.224556  0
O  O209  1  0.53201318  0.12647669  0.87998046  1  -1.143985  0  -0.340453  -0.561448  0  2.225173  0
O  O210  1  0.34889251  0.62694631  0.88016314  1  -1.15838  0  -0.339788  -0.561182  0  2.224511  0
O  O211  1  0.46798499  0.87352272  0.12002101  1  -1.143867  0  -0.340463  -0.56145  0  2.225062  0
O  O212  1  0.07593163  0.14485274  0.22143012  1  -1.123515  0  -0.162044  -0.232946  0  2.545248  0
O  O213  1  0.85389487  0.35565535  0.77879864  1  -1.104982  0  -0.161798  -0.23216  0  2.546921  0
O  O214  1  0.92406005  0.85514114  0.77856985  1  -1.123734  0  -0.162051  -0.232928  0  2.545187  0
O  O215  1  0.14610414  0.64434199  0.22120330  1  -1.1049  0  -0.161739  -0.23209  0  2.547096  0
