# generated using pymatgen
data_CoH12C14(NO)4
_symmetry_space_group_name_H-M   'P 1'
_cell_length_a   8.06383846
_cell_length_b   11.56804331
_cell_length_c   16.62600000
_cell_angle_alpha   90.00000000
_cell_angle_beta   90.00000000
_cell_angle_gamma   100.98969953
_symmetry_Int_Tables_number   1
_chemical_formula_structural   CoH12C14(NO)4
_chemical_formula_sum   'Co4 H48 C56 N16 O16'
_cell_volume   1522.47877542
_cell_formula_units_Z   4
loop_
 _symmetry_equiv_pos_site_id
 _symmetry_equiv_pos_as_xyz
  1  'x, y, z'
loop_
 _atom_site_type_symbol
 _atom_site_label
 _atom_site_symmetry_multiplicity
 _atom_site_fract_x
 _atom_site_fract_y
 _atom_site_fract_z
 _atom_site_occupancy
 _atom_site_hle17_ddec_charge
 _atom_site_hle17_ddec_spin_density
 _atom_site_hle17_ddec_sum_bond_order
 _atom_site_hle17_magmom
 _atom_site_hse06_10hf_ddec_charge
 _atom_site_hse06_10hf_ddec_spin_density
 _atom_site_hse06_10hf_ddec_sum_bond_order
 _atom_site_hse06_10hf_magmom
 _atom_site_hse06_ddec_charge
 _atom_site_hse06_ddec_spin_density
 _atom_site_hse06_ddec_sum_bond_order
 _atom_site_hse06_magmom
 _atom_site_pbe_bader_charge
 _atom_site_pbe_bader_spin_density
 _atom_site_pbe_cm5_charge
 _atom_site_pbe_ddec_charge
 _atom_site_pbe_ddec_spin_density
 _atom_site_pbe_ddec_sum_bond_order
 _atom_site_pbe_magmom
Co  Co0  1  0.84896229  0.42052228  0.30043005  1  0.902505  -2.844491  2.051765  -2.526  0.839597  -2.829378  2.510595  -2.583  0.934214  -2.881308  2.422457  -2.675  1.198756  -2.551147  0.679781  0.764605  -2.778172  2.577562  -2.496
Co  Co1  1  0.15103596  0.07947849  0.80043005  1  0.902525  2.844491  2.051849  2.526  0.839601  2.829369  2.510698  2.583  0.934207  2.881303  2.42256  2.675  1.198819  2.55131  0.679898  0.764762  2.778439  2.5776  2.495
Co  Co2  1  0.15103649  0.57947927  0.69957055  1  0.902538  -2.844487  2.051789  -2.526  0.839669  -2.829371  2.510608  -2.583  0.93425  -2.881304  2.42247  -2.675  1.198722  -2.551058  0.67989  0.764788  -2.778165  2.577523  -2.496
Co  Co3  1  0.84896234  0.92052130  0.19956935  1  0.902563  2.844489  2.051795  2.526  0.839669  2.829365  2.510633  2.583  0.934277  2.881302  2.422493  2.675  1.198862  2.551176  0.679887  0.764789  2.778261  2.577547  2.496
H  H4  1  0.97975261  0.18280361  0.53955912  1  0.108915  -0.000204  0.970165  0.0  0.11755  -0.00028  1.033184  0.0  0.120633  -0.000219  1.030106  0.0  0.145775  -0.000689  0.121285  0.11516  -0.000335  1.035589  0.0
H  H5  1  0.02024963  0.31719364  0.03956213  1  0.108886  0.000205  0.970139  0.0  0.11752  0.00028  1.033169  0.0  0.120604  0.000219  1.03009  0.0  0.146066  0.000688  0.121297  0.115151  0.000335  1.035554  0.0
H  H6  1  0.02024721  0.81719265  0.46043847  1  0.108883  -0.000206  0.970139  0.0  0.117518  -0.00028  1.033165  0.0  0.120603  -0.000219  1.030085  0.0  0.146094  -0.000691  0.121304  0.115146  -0.000337  1.035552  0.0
H  H7  1  0.97975167  0.68280351  0.96043907  1  0.108898  0.000205  0.970143  0.0  0.117529  0.00028  1.033171  0.0  0.120613  0.000219  1.030095  0.0  0.145902  0.000691  0.121273  0.115142  0.000336  1.035578  0.0
H  H8  1  0.88717610  0.01209151  0.42193011  1  0.123222  -0.000367  0.975726  0.0  0.134468  -0.000324  1.03061  0.0  0.136668  -0.000248  1.031625  0.0  0.065633  -0.000912  0.106919  0.132846  -0.000405  1.030121  0.0
H  H9  1  0.11282143  0.48790662  0.92193252  1  0.123276  0.000367  0.975595  0.0  0.134528  0.000324  1.030469  0.0  0.136728  0.000248  1.031485  0.0  0.065691  0.000912  0.106942  0.132916  0.000405  1.029967  0.0
H  H10  1  0.11281948  0.98790740  0.57806688  1  0.123268  -0.000366  0.975659  0.0  0.134518  -0.000324  1.030537  0.0  0.136718  -0.000248  1.031553  0.0  0.065664  -0.000909  0.10694  0.1329  -0.000404  1.030041  0.0
H  H11  1  0.88717491  0.51209052  0.07806869  1  0.123263  0.000366  0.975664  0.0  0.134512  0.000324  1.03055  0.0  0.136712  0.000248  1.031567  0.0  0.065652  0.000909  0.106945  0.132896  0.000404  1.03005  0.0
H  H12  1  0.80567642  0.13922011  0.29190786  1  0.104779  0.000258  0.9622  0.0  0.10986  0.000407  1.032729  0.0  0.112337  0.000318  1.030051  0.0  0.136075  0.000436  0.120584  0.107832  0.000505  1.035082  0.0
H  H13  1  0.19432035  0.36077978  0.79190966  1  0.104715  -0.000258  0.96229  0.0  0.109849  -0.000407  1.032749  0.0  0.112325  -0.000318  1.030072  0.0  0.136142  -0.000437  0.120573  0.107826  -0.000505  1.035098  0.0
H  H14  1  0.19432064  0.86077968  0.70808974  1  0.104758  0.000259  0.962258  0.0  0.109873  0.000407  1.032734  0.0  0.112349  0.000318  1.030055  0.0  0.136129  0.000441  0.120585  0.107838  0.000506  1.035097  0.0
H  H15  1  0.80567547  0.63922001  0.20809034  1  0.104718  -0.000259  0.962293  0.0  0.109857  -0.000407  1.032752  0.0  0.112335  -0.000318  1.030072  0.0  0.13614  -0.000442  0.120589  0.107843  -0.000507  1.035089  0.0
H  H16  1  0.37271060  0.74172617  0.30638698  1  0.107873  -0.000222  0.950862  0.0  0.119795  -0.000281  1.010237  0.0  0.1223  -0.000241  1.007762  0.0  0.104118  -0.000697  0.125794  0.117796  -0.000313  1.012197  0.0
H  H17  1  0.62729195  0.75827439  0.80638879  1  0.107856  0.00022  0.950844  0.0  0.11978  0.000281  1.010225  0.0  0.122285  0.000241  1.00775  0.0  0.104157  0.000697  0.1258  0.117797  0.000313  1.012166  0.0
H  H18  1  0.62729290  0.25827450  0.69361181  1  0.107851  -0.00022  0.950891  0.0  0.119776  -0.000281  1.010264  0.0  0.12228  -0.000241  1.007789  0.0  0.104139  -0.000692  0.125788  0.117781  -0.000311  1.012213  0.0
H  H19  1  0.37270859  0.24172451  0.19361241  1  0.107876  0.000221  0.950823  0.0  0.119798  0.000281  1.010207  0.0  0.122303  0.000241  1.007729  0.0  0.104146  0.00069  0.125812  0.117807  0.00031  1.012153  0.0
H  H20  1  0.48970943  0.54896738  0.24851979  1  0.141372  -0.000133  0.963692  0.0  0.15003  -4.2e-05  1.020586  0.0  0.154026  3.1e-05  1.018796  0.0  0.141091  -0.000777  0.111607  0.147035  -0.000131  1.022163  0.0
H  H21  1  0.51029017  0.95103142  0.74851919  1  0.141383  0.000134  0.96364  0.0  0.15004  4.3e-05  1.020536  0.0  0.154036  -3.1e-05  1.018747  0.0  0.141089  0.000777  0.111604  0.147059  0.000131  1.0221  0.0
H  H22  1  0.51029112  0.45103153  0.75148021  1  0.141381  -0.000135  0.963673  0.0  0.150039  -4.2e-05  1.020569  0.0  0.154034  3.1e-05  1.018781  0.0  0.141087  -0.000772  0.111618  0.147048  -0.000129  1.022139  0.0
H  H23  1  0.48970641  0.04896661  0.25148021  1  0.141401  0.000134  0.963783  0.0  0.150061  4.2e-05  1.020655  0.0  0.154057  -3.1e-05  1.018866  0.0  0.141095  0.000771  0.111646  0.147076  0.000128  1.022223  0.0
H  H24  1  0.19863148  0.38033965  0.23052929  1  0.098966  3e-06  0.962077  0.0  0.10783  -0.000113  1.025104  0.0  0.109865  -7.7e-05  1.022758  0.0  0.086542  -0.000463  0.119431  0.106317  -0.000149  1.026873  0.0
H  H25  1  0.80136528  0.11966024  0.73052929  1  0.098952  -4e-06  0.962059  0.0  0.107816  0.000112  1.025085  0.0  0.109851  7.7e-05  1.022738  0.0  0.086556  0.000461  0.119443  0.106317  0.000148  1.026843  0.0
H  H26  1  0.80136558  0.61966013  0.76947011  1  0.098975  5e-06  0.962043  0.0  0.107812  -0.000112  1.025107  0.0  0.109846  -7.7e-05  1.022763  0.0  0.086546  -0.000456  0.119431  0.106302  -0.000146  1.026873  0.0
H  H27  1  0.19863154  0.88033867  0.26946951  1  0.098987  -4e-06  0.96203  0.0  0.107814  0.000112  1.025106  0.0  0.109857  7.7e-05  1.022751  0.0  0.086536  0.000455  0.119437  0.106313  0.000146  1.026868  0.0
H  H28  1  0.56667891  0.42045536  0.07474137  1  0.093025  -5e-06  0.958551  0.0  0.103939  -3.1e-05  1.019437  0.0  0.107102  -0.0  1.017685  0.0  0.104476  -0.000205  0.101302  0.101718  -6.4e-05  1.020664  0.0
H  H29  1  0.43332182  0.07954542  0.57474257  1  0.09298  6e-06  0.958565  0.0  0.103924  3.1e-05  1.019427  0.0  0.107086  0.0  1.017677  0.0  0.104149  0.000204  0.101295  0.101696  6.4e-05  1.020658  0.0
H  H30  1  0.43332384  0.57954707  0.92525743  1  0.093016  -5e-06  0.958565  0.0  0.103978  -3.1e-05  1.019405  0.0  0.10714  -0.0  1.017655  0.0  0.104248  -0.0002  0.101313  0.101758  -6.2e-05  1.020635  0.0
H  H31  1  0.56668020  0.92045437  0.42525743  1  0.092992  5e-06  0.958588  0.0  0.103941  3.1e-05  1.019439  0.0  0.107104  0.0  1.017688  0.0  0.10417  0.0002  0.101312  0.101717  6.2e-05  1.020667  0.0
H  H32  1  0.44298138  0.37008596  0.93858715  1  0.080216  -7.8e-05  0.980117  0.0  0.091243  -8e-06  1.04267  0.0  0.093288  -1.4e-05  1.042831  0.0  0.062269  4.1e-05  0.094766  0.089788  -1e-06  1.04262  0.0
H  H33  1  0.55702183  0.12991482  0.43858896  1  0.080182  7.7e-05  0.980136  0.0  0.091205  8e-06  1.042698  0.0  0.09325  1.4e-05  1.042861  0.0  0.062268  -4.1e-05  0.094756  0.089762  1e-06  1.042638  0.0
H  H34  1  0.55702681  0.62991823  0.06141044  1  0.080233  -7.9e-05  0.980069  0.0  0.091269  -8e-06  1.042605  0.0  0.093312  -1.4e-05  1.042768  0.0  0.061787  3.8e-05  0.094756  0.089833  -3e-06  1.042536  0.0
H  H35  1  0.44298340  0.87008761  0.56141345  1  0.08019  7.8e-05  0.980128  0.0  0.091213  8e-06  1.042696  0.0  0.093258  1.4e-05  1.042858  0.0  0.062278  -3.9e-05  0.094737  0.089755  2e-06  1.04265  0.0
H  H36  1  0.48816284  0.18699791  0.87006436  1  0.090824  0.000272  0.955869  0.0  0.097795  0.000505  1.023137  0.0  0.100347  0.000364  1.021788  0.0  0.081079  0.000986  0.102098  0.09591  0.000659  1.024289  0.0
H  H37  1  0.51184457  0.31300463  0.37006556  1  0.090844  -0.000271  0.955892  0.0  0.097829  -0.000505  1.023146  0.0  0.100379  -0.000364  1.021802  0.0  0.080886  -0.000988  0.102111  0.09596  -0.00066  1.024276  0.0
H  H38  1  0.51184783  0.81300628  0.12993444  1  0.090774  0.000273  0.95591  0.0  0.09779  0.000505  1.023128  0.0  0.100341  0.000364  1.021777  0.0  0.080876  0.000981  0.102107  0.095923  0.000657  1.024262  0.0
H  H39  1  0.48816409  0.68700132  0.62993745  1  0.090852  -0.000272  0.955816  0.0  0.097782  -0.000505  1.023132  0.0  0.100327  -0.000364  1.021795  0.0  0.081059  -0.000982  0.10207  0.095896  -0.000657  1.02428  0.0
H  H40  1  0.64231874  0.05010082  0.94007639  1  0.10365  -0.000116  0.938574  0.0  0.113829  -6.8e-05  0.998094  0.0  0.116665  -6.4e-05  0.99778  0.0  0.085023  -1.7e-05  0.10529  0.111811  -7.2e-05  0.998394  0.0
H  H41  1  0.35768446  0.44989996  0.44007639  1  0.103618  0.000115  0.938529  0.0  0.113807  6.8e-05  0.998044  0.0  0.116641  6.4e-05  0.997731  0.0  0.085031  1.6e-05  0.105294  0.111802  7.1e-05  0.998319  0.0
H  H42  1  0.35768524  0.94990161  0.05992422  1  0.103643  -0.000116  0.93853  0.0  0.113822  -6.8e-05  0.998053  0.0  0.116658  -6.4e-05  0.997738  0.0  0.085001  -2e-05  0.105299  0.111822  -7.3e-05  0.998335  0.0
H  H43  1  0.64231680  0.55010159  0.55992602  1  0.10362  0.000115  0.93854  0.0  0.113796  6.8e-05  0.998074  0.0  0.116633  6.4e-05  0.99776  0.0  0.085032  1.9e-05  0.105252  0.111777  7.3e-05  0.998367  0.0
H  H44  1  0.96172799  0.37671511  0.47341513  1  0.315109  4e-05  0.905953  0.0  0.289166  -4.7e-05  0.976423  0.0  0.298316  6e-06  0.968418  0.0  0.568745  -0.000346  0.322652  0.282551  -0.000114  0.98227  0.0
H  H45  1  0.03827425  0.12328214  0.97341634  1  0.315075  -4e-05  0.906009  0.0  0.289154  4.7e-05  0.976412  0.0  0.298301  -6e-06  0.968415  0.0  0.568727  0.000346  0.322642  0.282542  0.000114  0.982261  0.0
H  H46  1  0.03827206  0.62328204  0.52658427  1  0.3151  4e-05  0.905912  0.0  0.289149  -4.7e-05  0.976391  0.0  0.298297  6e-06  0.968391  0.0  0.568734  -0.000346  0.322639  0.282537  -0.000114  0.982238  0.0
H  H47  1  0.96172977  0.87671588  0.02658427  1  0.315092  -4e-05  0.905949  0.0  0.289144  4.7e-05  0.976423  0.0  0.298292  -6e-06  0.968421  0.0  0.568747  0.000346  0.322641  0.282526  0.000114  0.982274  0.0
H  H48  1  0.04993802  0.67523652  0.31813304  1  0.302857  0.000157  0.917493  0.0  0.279864  4.6e-05  0.986343  0.0  0.287754  3.3e-05  0.980036  0.0  0.558774  -8.5e-05  0.324438  0.274202  6.8e-05  0.990919  0.0
H  H49  1  0.95006354  0.82476493  0.81813365  1  0.302803  -0.000156  0.917553  0.0  0.279801  -4.6e-05  0.98641  0.0  0.287691  -3.3e-05  0.980105  0.0  0.558807  8.5e-05  0.324394  0.274146  -6.8e-05  0.990983  0.0
H  H50  1  0.95006449  0.32476503  0.68186696  1  0.302798  0.000157  0.91755  0.0  0.279798  4.6e-05  0.986405  0.0  0.287689  3.3e-05  0.9801  0.0  0.558776  -8.4e-05  0.324399  0.274139  6.9e-05  0.990977  0.0
H  H51  1  0.04993724  0.17523486  0.18186696  1  0.302805  -0.000157  0.91756  0.0  0.279802  -4.6e-05  0.986416  0.0  0.287693  -3.3e-05  0.980109  0.0  0.55881  8.3e-05  0.324395  0.274142  -6.9e-05  0.990992  0.0
C  C52  1  0.93854996  0.18959127  0.47784013  1  0.065228  -0.002921  3.670789  -0.004  0.020485  -0.004209  3.92775  -0.005  0.030325  -0.003384  3.940408  -0.004  0.341135  -0.009197  0.02653  0.013962  -0.005045  3.919649  -0.006
C  C53  1  0.06145129  0.31040686  0.97784013  1  0.065346  0.002915  3.670846  0.004  0.020571  0.004209  3.927797  0.005  0.030413  0.003383  3.940455  0.004  0.340856  0.009204  0.026544  0.01408  0.005049  3.919611  0.006
C  C54  1  0.06144910  0.81040675  0.52215987  1  0.065283  -0.002912  3.670843  -0.004  0.020537  -0.004208  3.927807  -0.005  0.03038  -0.003383  3.940464  -0.004  0.340989  -0.009204  0.026511  0.014045  -0.005049  3.91963  -0.006
C  C55  1  0.93855001  0.68959029  0.02216167  1  0.065238  0.002915  3.670857  0.004  0.020503  0.004209  3.927815  0.005  0.030341  0.003384  3.940477  0.004  0.341007  0.009201  0.026529  0.013986  0.005048  3.919694  0.006
C  C56  1  0.89113874  0.10587886  0.41781848  1  -0.214274  -0.002426  3.771684  -0.003  -0.224463  -0.001367  4.026874  -0.002  -0.234391  -0.000696  4.046645  -0.001  0.060971  -0.003881  -0.115711  -0.218046  -0.002089  4.013963  -0.002
C  C57  1  0.10885978  0.39411839  0.91782028  1  -0.214336  0.002428  3.771602  0.003  -0.22454  0.001367  4.026828  0.002  -0.234471  0.000696  4.046599  0.001  0.060857  0.003882  -0.115695  -0.218107  0.00209  4.013856  0.002
C  C58  1  0.10885660  0.89411917  0.58217972  1  -0.214336  -0.00243  3.771645  -0.003  -0.224536  -0.001368  4.026857  -0.002  -0.234467  -0.000695  4.046629  -0.001  0.060786  -0.003879  -0.115706  -0.218107  -0.002089  4.013911  -0.002
C  C59  1  0.89113852  0.60588140  0.08217972  1  -0.214289  0.002427  3.771711  0.003  -0.224493  0.001367  4.026929  0.002  -0.234422  0.000695  4.0467  0.001  0.060844  0.003876  -0.115693  -0.218064  0.002087  4.013978  0.002
C  C60  1  0.84994147  0.16942819  0.35127752  1  0.051923  0.000759  3.714853  0.0  0.01049  -0.00295  3.997724  -0.005  0.021179  -0.002524  4.013014  -0.004  0.386748  -0.005133  0.016075  0.00298  -0.0033  3.98755  -0.005
C  C61  1  0.15005854  0.33056994  0.85127872  1  0.051987  -0.000761  3.714857  0.0  0.01052  0.00295  3.997734  0.005  0.021208  0.002524  4.013031  0.004  0.386926  0.005136  0.016107  0.003025  0.003302  3.987545  0.005
C  C62  1  0.15005659  0.83057072  0.64872188  1  0.051983  0.000758  3.714827  0.0  0.010537  -0.002949  3.997692  -0.005  0.021226  -0.002524  4.012985  -0.004  0.386772  -0.005129  0.0161  0.003033  -0.003298  3.987531  -0.005
C  C63  1  0.84993953  0.66942897  0.14872068  1  0.051982  -0.000756  3.714898  0.0  0.010508  0.002951  3.997766  0.005  0.021202  0.002524  4.013048  0.004  0.386928  0.005127  0.016103  0.003017  0.003297  3.987552  0.005
C  C64  1  0.30372376  0.65483391  0.29035487  1  0.061417  -0.002405  3.664981  -0.003  0.013803  -0.004047  3.924179  -0.005  0.023803  -0.003163  3.937003  -0.004  0.369149  -0.008802  0.02633  0.007147  -0.004908  3.916078  -0.006
C  C65  1  0.69627780  0.84516753  0.79035607  1  0.061464  0.002423  3.664907  0.003  0.013832  0.004048  3.924122  0.005  0.023833  0.003163  3.936945  0.004  0.369174  0.008812  0.026345  0.007208  0.004914  3.915959  0.006
C  C66  1  0.69627850  0.34516676  0.70964453  1  0.061472  -0.00244  3.665087  -0.003  0.013841  -0.004048  3.924295  -0.005  0.023843  -0.003163  3.937118  -0.004  0.369161  -0.0088  0.026334  0.007211  -0.004908  3.916149  -0.006
C  C67  1  0.30372051  0.15483226  0.20964393  1  0.061502  0.002419  3.66494  0.003  0.01387  0.004047  3.924155  0.005  0.023872  0.003163  3.936977  0.004  0.369222  0.008796  0.026358  0.007238  0.004906  3.916012  0.006
C  C68  1  0.36031943  0.55715695  0.25989294  1  -0.197899  -0.003004  3.751958  -0.004  -0.208685  -0.001674  4.006317  -0.002  -0.217823  -0.000999  4.02393  -0.001  0.050055  -0.004647  -0.111831  -0.202994  -0.00241  3.995165  -0.003
C  C69  1  0.63968040  0.94284273  0.75989354  1  -0.197947  0.002991  3.751947  0.004  -0.208734  0.001673  4.006314  0.002  -0.217872  0.000999  4.023927  0.001  0.05007  0.004645  -0.111807  -0.203017  0.002409  3.995103  0.003
C  C70  1  0.63967987  0.44284195  0.74010586  1  -0.197973  -0.002973  3.752052  -0.004  -0.208757  -0.001674  4.006407  -0.002  -0.217897  -0.000999  4.024021  -0.001  0.05007  -0.004638  -0.111849  -0.203051  -0.002406  3.995214  -0.003
C  C71  1  0.36032238  0.05715530  0.24010646  1  -0.198019  0.002991  3.751989  0.004  -0.208802  0.001674  4.006343  0.002  -0.21794  0.000999  4.023957  0.001  0.05005  0.004636  -0.111888  -0.203098  0.002405  3.995162  0.003
C  C72  1  0.21459798  0.47025765  0.25167148  1  0.054221  0.001496  3.724238  0.001  0.018169  -0.002696  3.994085  -0.004  0.028732  -0.002132  4.009577  -0.003  0.405059  -0.005035  0.017988  0.010796  -0.003213  3.983657  -0.005
C  C73  1  0.78540003  0.02974224  0.75167148  1  0.054249  -0.00148  3.724132  -0.001  0.018206  0.002697  3.993975  0.004  0.028769  0.002132  4.009467  0.003  0.405073  0.00504  0.018025  0.010864  0.003216  3.983507  0.005
C  C74  1  0.78540056  0.52974302  0.74832792  1  0.054276  0.001458  3.724101  0.001  0.018251  -0.002696  3.993959  -0.004  0.028816  -0.002131  4.009449  -0.003  0.405073  -0.005029  0.018049  0.010898  -0.003211  3.983506  -0.005
C  C75  1  0.21459655  0.97025578  0.24832792  1  0.054249  -0.001481  3.724093  -0.001  0.018233  0.002696  3.99395  0.004  0.028792  0.002132  4.009436  0.003  0.405086  0.005025  0.018018  0.010876  0.003209  3.983505  0.005
C  C76  1  0.76731195  0.30348535  0.15946770  1  0.63864  0.002981  3.904198  0.006  0.592678  -0.001497  4.203503  0.0  0.629653  -0.001046  4.197356  0.0  1.540603  -0.001416  0.20684  0.566266  -0.001928  4.206702  0.0
C  C77  1  0.23268878  0.19651543  0.65946951  1  0.638682  -0.002984  3.904194  -0.006  0.592741  0.001497  4.203471  0.0  0.629716  0.001046  4.197323  0.0  1.540588  0.001416  0.206846  0.566341  0.001928  4.206648  0.0
C  C78  1  0.23269055  0.69651620  0.84053170  1  0.638744  0.00298  3.904124  0.006  0.592797  -0.001497  4.203411  0.0  0.629772  -0.001046  4.197263  0.0  1.540613  -0.001414  0.20689  0.566396  -0.001927  4.206605  0.0
C  C79  1  0.76731052  0.80348348  0.34053110  1  0.638781  -0.002982  3.904212  -0.006  0.592866  0.001497  4.203455  0.0  0.629842  0.001046  4.197303  0.0  1.540628  0.001415  0.206935  0.566465  0.001927  4.206636  0.0
C  C80  1  0.67339833  0.26420886  0.08372489  1  -0.092586  -0.000892  3.768102  -0.002  -0.076881  0.000264  3.998232  0.0  -0.083731  0.000528  4.019382  0.001  0.01914  1.9e-05  -0.0184  -0.072551  -7e-06  3.98477  0.0
C  C81  1  0.32660216  0.23579104  0.58372609  1  -0.092665  0.000914  3.768103  0.002  -0.076966  -0.000264  3.998253  0.0  -0.083817  -0.000529  4.019405  -0.001  0.01918  -1.9e-05  -0.018412  -0.07265  7e-06  3.984805  0.0
C  C82  1  0.32660418  0.73579269  0.91627451  1  -0.092579  -0.000892  3.768036  -0.002  -0.076871  0.000265  3.998168  0.0  -0.08372  0.000528  4.019319  0.001  0.019179  2.3e-05  -0.018384  -0.072556  -5e-06  3.984735  0.0
C  C83  1  0.67339566  0.76420699  0.41627391  1  -0.092581  0.000898  3.768055  0.002  -0.076894  -0.000264  3.998198  0.0  -0.083741  -0.000528  4.019347  -0.001  0.019275  -2.1e-05  -0.018361  -0.072569  6e-06  3.984731  0.0
C  C84  1  0.58111244  0.33898583  0.04496271  1  -0.083745  -0.001333  3.760488  -0.002  -0.104382  -0.000925  4.005998  -0.001  -0.104827  -0.000806  4.02615  -0.001  -0.140149  -0.002149  -0.087555  -0.103972  -0.001076  3.992306  -0.001
C  C85  1  0.41889124  0.16101671  0.54496391  1  -0.083709  0.001306  3.760521  0.002  -0.104376  0.000925  4.006023  0.001  -0.104821  0.000805  4.026177  0.001  -0.139903  0.002149  -0.087555  -0.103966  0.001076  3.992339  0.001
C  C86  1  0.41889302  0.66101748  0.95503549  1  -0.083808  -0.001333  3.760558  -0.002  -0.104497  -0.000925  4.006064  -0.001  -0.104943  -0.000805  4.026216  -0.001  -0.139945  -0.002147  -0.087574  -0.104082  -0.001075  3.992381  -0.001
C  C87  1  0.58110978  0.83898396  0.45503729  1  -0.083725  0.001326  3.760503  0.002  -0.104398  0.000925  4.006013  0.001  -0.104845  0.000806  4.026166  0.001  -0.139956  0.002146  -0.087573  -0.103986  0.001075  3.992323  0.001
C  C88  1  0.51398232  0.31129891  0.96852821  1  -0.066294  0.002015  3.77492  0.003  -0.082217  0.00134  4.025333  0.002  -0.084897  0.001057  4.048039  0.001  0.034344  0.003338  -0.092967  -0.080154  0.001722  4.009435  0.002
C  C89  1  0.48602088  0.18870187  0.46852941  1  -0.066239  -0.00199  3.774793  -0.003  -0.082156  -0.00134  4.025215  -0.002  -0.084836  -0.001057  4.047918  -0.001  0.034388  -0.003341  -0.092992  -0.080089  -0.001724  4.009282  -0.002
C  C90  1  0.48602462  0.68870528  0.03147059  1  -0.066283  0.002019  3.774765  0.003  -0.082208  0.00134  4.025213  0.002  -0.084886  0.001057  4.047917  0.001  0.034883  0.003336  -0.092955  -0.080136  0.001721  4.009278  0.002
C  C91  1  0.51398038  0.81129968  0.53147179  1  -0.066252  -0.00201  3.774833  -0.003  -0.082169  -0.00134  4.025238  -0.002  -0.084848  -0.001057  4.047942  -0.001  0.034311  -0.003336  -0.092937  -0.080112  -0.001721  4.009342  -0.002
C  C92  1  0.53842671  0.20844667  0.93019788  1  -0.043892  -0.001489  3.739557  -0.002  -0.061992  -0.000794  3.996845  -0.001  -0.062578  -0.000734  4.017669  -0.001  -0.089748  -0.001592  -0.083629  -0.061376  -0.000895  3.982378  -0.001
C  C93  1  0.46157574  0.29155587  0.43019848  1  -0.043933  0.001468  3.739509  0.002  -0.062047  0.000795  3.996796  0.001  -0.062633  0.000733  4.017616  0.001  -0.08952  0.001592  -0.083545  -0.061411  0.000895  3.982258  0.001
C  C94  1  0.46158024  0.79155752  0.06980091  1  -0.043844  -0.001497  3.739458  -0.002  -0.061984  -0.000794  3.996747  -0.001  -0.062569  -0.000733  4.01757  -0.001  -0.089548  -0.0016  -0.083537  -0.061342  -0.000899  3.982217  -0.001
C  C95  1  0.53842725  0.70844744  0.56980272  1  -0.043947  0.001485  3.739473  0.002  -0.06201  0.000794  3.996766  0.001  -0.062593  0.000733  4.017583  0.001  -0.089768  0.001599  -0.083628  -0.061392  0.000899  3.98229  0.001
C  C96  1  0.62588562  0.13163639  0.96919945  1  -0.075509  0.001599  3.718911  0.002  -0.099468  0.001206  3.969995  0.002  -0.101397  0.000983  3.990143  0.001  0.002835  0.003086  -0.08388  -0.098052  0.001496  3.956313  0.002
C  C97  1  0.37411735  0.36836350  0.46920065  1  -0.075509  -0.001582  3.71885  -0.002  -0.099473  -0.001207  3.969953  -0.002  -0.1014  -0.000984  3.990098  -0.001  0.002932  -0.003089  -0.083892  -0.098042  -0.001497  3.956208  -0.002
C  C98  1  0.37411961  0.86836604  0.03079995  1  -0.075543  0.001605  3.718841  0.002  -0.0995  0.001207  3.969943  0.002  -0.10143  0.000984  3.990092  0.001  0.002926  0.003085  -0.083887  -0.098071  0.001495  3.956216  0.002
C  C99  1  0.62588367  0.63163716  0.53080115  1  -0.0755  -0.001593  3.718949  -0.002  -0.099454  -0.001206  3.970015  -0.002  -0.101388  -0.000983  3.990167  -0.001  0.002827  -0.003085  -0.083846  -0.098037  -0.001495  3.956314  -0.002
C  C100  1  0.69166355  0.15822873  0.04626910  1  -0.059481  0.000692  3.744026  0.001  -0.044778  -0.000276  3.975616  0.0  -0.048385  -0.000598  3.99506  -0.001  -0.067926  0.000101  -0.008681  -0.042619  8.3e-05  3.963143  0.0
C  C101  1  0.30833421  0.34177028  0.54626850  1  -0.059382  -0.000711  3.743857  -0.001  -0.044665  0.000277  3.975516  0.0  -0.048273  0.000598  3.994961  0.001  -0.068018  -0.000102  -0.008648  -0.042502  -8.3e-05  3.963031  0.0
C  C102  1  0.30833523  0.84177282  0.95373211  1  -0.059458  0.00069  3.743852  0.001  -0.044741  -0.000276  3.975508  0.0  -0.04835  -0.000598  3.994952  -0.001  -0.067986  0.000103  -0.008714  -0.042571  8.4e-05  3.963029  0.0
C  C103  1  0.69165989  0.65822774  0.45373211  1  -0.059434  -0.000698  3.744035  -0.001  -0.044724  0.000277  3.975654  0.0  -0.048331  0.000597  3.995101  0.001  -0.067953  -0.000101  -0.008689  -0.042557  -8.2e-05  3.963169  0.0
C  C104  1  0.77760850  0.07195994  0.08857873  1  0.64328  -0.003427  3.908068  -0.007  0.593654  0.001292  4.214903  -0.001  0.630148  0.000861  4.208557  -0.001  1.576802  0.001043  0.207332  0.567663  0.00175  4.217907  -0.001
C  C105  1  0.22238407  0.42803820  0.58857633  1  0.643235  0.003429  3.907729  0.007  0.593481  -0.001293  4.214774  0.001  0.629976  -0.00086  4.208427  0.001  1.576505  -0.001043  0.207133  0.567491  -0.00175  4.217769  0.001
C  C106  1  0.22238484  0.92803985  0.91142428  1  0.643275  -0.003427  3.907708  -0.007  0.593525  0.001293  4.214742  -0.001  0.630018  0.000861  4.208397  -0.001  1.576491  0.001043  0.207151  0.567532  0.00175  4.217739  -0.001
C  C107  1  0.77760483  0.57195895  0.41142307  1  0.643224  0.003429  3.907941  0.007  0.593533  -0.001293  4.214867  0.001  0.630026  -0.00086  4.208528  0.001  1.576748  -0.001044  0.207269  0.567537  -0.00175  4.217874  0.001
N  N108  1  0.87202389  0.28507026  0.36951522  1  -0.256613  -0.040828  3.279587  -0.06  -0.22679  -0.028866  3.603082  -0.034  -0.254019  -0.022864  3.619452  -0.026  -0.748899  -0.063769  -0.268064  -0.206356  -0.034212  3.592201  -0.042
N  N109  1  0.12797611  0.21492788  0.86951702  1  -0.256655  0.04083  3.279747  0.06  -0.2269  0.028868  3.60329  0.034  -0.254127  0.022865  3.619655  0.026  -0.749322  0.063804  -0.268129  -0.206495  0.034232  3.59242  0.042
N  N110  1  0.12797565  0.71492953  0.63048358  1  -0.256707  -0.040823  3.279733  -0.06  -0.226917  -0.028869  3.603278  -0.034  -0.254137  -0.022867  3.619634  -0.026  -0.74927  -0.06379  -0.268121  -0.206501  -0.034227  3.5924  -0.042
N  N111  1  0.87202195  0.78507103  0.13048418  1  -0.256699  0.040823  3.279731  0.06  -0.226901  0.028868  3.603275  0.034  -0.254128  0.022865  3.619638  0.026  -0.749239  0.063785  -0.268127  -0.206488  0.034223  3.592399  0.042
N  N112  1  0.92545950  0.29501751  0.44675749  1  -0.14678  0.000751  3.4824  0.002  -0.081869  -0.000576  3.718595  -0.001  -0.093054  -0.000195  3.738875  0.0  -0.842078  -0.00323  -0.273776  -0.075068  -0.000895  3.705223  -0.001
N  N113  1  0.07454322  0.20498151  0.94675989  1  -0.1468  -0.000749  3.482675  -0.002  -0.081804  0.000577  3.718753  0.001  -0.092989  0.000196  3.739034  0.0  -0.841713  0.00323  -0.273704  -0.074987  0.000895  3.705357  0.001
N  N114  1  0.07454128  0.70498228  0.55324071  1  -0.146735  0.000741  3.482469  0.002  -0.08181  -0.000576  3.718659  -0.001  -0.092995  -0.000195  3.738938  0.0  -0.841714  -0.003231  -0.273713  -0.07499  -0.000896  3.705252  -0.001
N  N115  1  0.92545880  0.79501828  0.05324071  1  -0.1467  -0.000745  3.482451  -0.002  -0.08177  0.000577  3.718628  0.001  -0.092955  0.000197  3.738909  0.0  -0.841801  0.003228  -0.27372  -0.074963  0.000895  3.705257  0.001
N  N116  1  0.07734257  0.51168369  0.27572717  1  -0.252044  -0.040384  3.280552  -0.059  -0.226731  -0.028753  3.60608  -0.034  -0.253461  -0.022765  3.621922  -0.026  -0.729794  -0.063587  -0.268666  -0.206599  -0.034092  3.595469  -0.042
N  N117  1  0.92265899  0.98831776  0.77572778  1  -0.252025  0.040376  3.2805  0.059  -0.226738  0.028756  3.606044  0.034  -0.253466  0.022766  3.621884  0.026  -0.729802  0.063617  -0.26868  -0.206621  0.03411  3.595431  0.042
N  N118  1  0.92265893  0.48831874  0.72427283  1  -0.252004  -0.040357  3.280377  -0.059  -0.226727  -0.028754  3.605929  -0.034  -0.253447  -0.022765  3.621758  -0.026  -0.729806  -0.063603  -0.268691  -0.206606  -0.034104  3.595313  -0.042
N  N119  1  0.07734031  0.01168115  0.22427162  1  -0.252037  0.040375  3.280468  0.059  -0.226741  0.028755  3.605988  0.034  -0.253469  0.022766  3.621829  0.026  -0.729883  0.063609  -0.268681  -0.206621  0.034103  3.595379  0.042
N  N120  1  0.13447738  0.62428152  0.29902683  1  -0.147113  -0.000339  3.477357  0.0  -0.081231  -0.001236  3.712419  -0.002  -0.092413  -0.000905  3.732873  -0.002  -0.862366  -0.004333  -0.274601  -0.07434  -0.001528  3.698791  -0.002
N  N121  1  0.86552318  0.87572081  0.79902743  1  -0.147091  0.00033  3.477375  0.0  -0.081171  0.001235  3.712415  0.002  -0.092355  0.000903  3.732874  0.002  -0.862328  0.004332  -0.274511  -0.074266  0.001527  3.698766  0.002
N  N122  1  0.86552389  0.37572003  0.70097317  1  -0.147117  -0.000331  3.47739  0.0  -0.0812  -0.001237  3.712436  -0.002  -0.092386  -0.000905  3.732891  -0.002  -0.862343  -0.004327  -0.27453  -0.074299  -0.001526  3.698791  -0.002
N  N123  1  0.13447784  0.12427986  0.20097257  1  -0.147136  0.000335  3.477431  0.0  -0.081213  0.001237  3.712464  0.002  -0.092399  0.000905  3.73292  0.002  -0.862359  0.004324  -0.274545  -0.074313  0.001525  3.698822  0.002
O  O124  1  0.69778855  0.36559842  0.20927944  1  -0.602058  -0.054321  2.026031  -0.089  -0.558651  -0.0391  2.295082  -0.059  -0.601017  -0.029458  2.283036  -0.043  -1.141933  -0.094346  -0.321913  -0.525164  -0.048504  2.301482  -0.073
O  O125  1  0.30221293  0.13440059  0.70928125  1  -0.60205  0.054325  2.026023  0.089  -0.55865  0.039103  2.295066  0.059  -0.601007  0.029459  2.283001  0.043  -1.141924  0.094406  -0.32187  -0.525161  0.048535  2.301444  0.073
O  O126  1  0.30221347  0.63440137  0.79072056  1  -0.60208  -0.054322  2.025965  -0.089  -0.558705  -0.039102  2.295048  -0.059  -0.601055  -0.029457  2.282978  -0.043  -1.141818  -0.094361  -0.321894  -0.525208  -0.048518  2.301434  -0.073
O  O127  1  0.69778885  0.86559832  0.29071936  1  -0.602114  0.054323  2.025996  0.089  -0.558732  0.039104  2.295053  0.059  -0.601085  0.029459  2.282981  0.043  -1.141918  0.094376  -0.32191  -0.525243  0.048523  2.301436  0.073
O  O128  1  0.91300573  0.28105296  0.17093348  1  -0.636908  -0.006321  1.978088  -0.01  -0.59364  -0.008408  2.217564  -0.013  -0.62155  -0.00621  2.209024  -0.01  -1.193297  -0.02117  -0.308972  -0.572676  -0.010918  2.222512  -0.017
O  O129  1  0.08699824  0.21894605  0.67093649  1  -0.63694  0.006324  1.978166  0.01  -0.593685  0.008409  2.217646  0.013  -0.6216  0.006211  2.209116  0.01  -1.193253  0.02118  -0.309008  -0.57272  0.010923  2.222586  0.017
O  O130  1  0.08699802  0.71894859  0.82906412  1  -0.636998  -0.006322  1.978126  -0.01  -0.593735  -0.008409  2.217611  -0.013  -0.621646  -0.006211  2.20907  -0.01  -1.193287  -0.021168  -0.309027  -0.572764  -0.010919  2.222557  -0.017
O  O131  1  0.91300034  0.78105021  0.32906532  1  -0.637006  0.006322  1.978242  0.01  -0.593741  0.008408  2.217675  0.013  -0.621668  0.006211  2.20917  0.01  -1.193275  0.021167  -0.309049  -0.572773  0.010918  2.222617  0.017
O  O132  1  0.90173150  0.03826204  0.05703176  1  -0.604762  0.008935  1.988965  0.015  -0.562834  0.01027  2.225729  0.017  -0.589662  0.007372  2.216745  0.012  -1.173416  0.027239  -0.299249  -0.542115  0.013686  2.230686  0.022
O  O133  1  0.09825886  0.46173257  0.55702815  1  -0.60462  -0.008934  1.988776  -0.015  -0.562629  -0.010267  2.225552  -0.017  -0.589454  -0.00737  2.216563  -0.012  -1.173353  -0.027241  -0.299076  -0.541889  -0.013686  2.230491  -0.022
O  O134  1  0.09826235  0.96173511  0.94297185  1  -0.604677  0.008932  1.988883  0.015  -0.562654  0.010267  2.225621  0.017  -0.58948  0.007369  2.216635  0.012  -1.173407  0.027241  -0.29908  -0.541919  0.013685  2.230565  0.022
O  O135  1  0.90173032  0.53826105  0.44297005  1  -0.604746  -0.008937  1.988918  -0.015  -0.562749  -0.010269  2.225665  -0.017  -0.589578  -0.007371  2.216682  -0.012  -1.173426  -0.027237  -0.299214  -0.542032  -0.013683  2.230618  -0.022
O  O136  1  0.71517219  0.03259186  0.15722122  1  -0.608047  0.059622  2.059198  0.098  -0.569655  0.042048  2.341285  0.064  -0.614171  0.031561  2.331504  0.047  -1.135777  0.100886  -0.3194  -0.534601  0.052111  2.346073  0.079
O  O137  1  0.28482033  0.46741067  0.65721821  1  -0.608165  -0.059626  2.059248  -0.098  -0.569674  -0.042049  2.341296  -0.064  -0.614176  -0.031562  2.331496  -0.047  -1.135625  -0.100893  -0.319337  -0.534623  -0.052116  2.346087  -0.079
O  O138  1  0.28482039  0.96740969  0.84278119  1  -0.608121  0.059625  2.059191  0.098  -0.569641  0.04205  2.341262  0.064  -0.614151  0.031563  2.331467  0.047  -1.135623  0.100915  -0.319324  -0.53459  0.052124  2.346049  0.079
O  O139  1  0.71516829  0.53258999  0.34278058  1  -0.608051  -0.059623  2.059147  -0.098  -0.569635  -0.042047  2.34124  -0.064  -0.614144  -0.031561  2.33145  -0.047  -1.135768  -0.100862  -0.319402  -0.534592  -0.052096  2.346041  -0.079
