# generated using pymatgen
data_Ag2H18C20SN4O5
_symmetry_space_group_name_H-M   'P 1'
_cell_length_a   7.39315250
_cell_length_b   10.28261343
_cell_length_c   15.30347228
_cell_angle_alpha   104.60895367
_cell_angle_beta   100.29629509
_cell_angle_gamma   94.36286102
_symmetry_Int_Tables_number   1
_chemical_formula_structural   Ag2H18C20SN4O5
_chemical_formula_sum   'Ag4 H36 C40 S2 N8 O10'
_cell_volume   1098.63837859
_cell_formula_units_Z   2
loop_
 _symmetry_equiv_pos_site_id
 _symmetry_equiv_pos_as_xyz
  1  'x, y, z'
loop_
 _atom_site_type_symbol
 _atom_site_label
 _atom_site_symmetry_multiplicity
 _atom_site_fract_x
 _atom_site_fract_y
 _atom_site_fract_z
 _atom_site_occupancy
 _atom_site_pbe_bader_charge
 _atom_site_pbe_bader_spin_density
 _atom_site_pbe_cm5_charge
 _atom_site_pbe_ddec_charge
 _atom_site_pbe_ddec_spin_density
 _atom_site_pbe_ddec_sum_bond_order
 _atom_site_pbe_magmom
Ag  Ag0  1  0.91226791  0.60489465  0.13762994  1  0.584576  0  0.476785  0.372173  0  1.857627  0
Ag  Ag1  1  0.08770114  0.39511742  0.86236064  1  0.584408  0  0.476789  0.3722  0  1.857528  0
Ag  Ag2  1  0.56039436  0.98092493  0.84042505  1  0.569147  0  0.48847  0.360607  0  1.949871  0
Ag  Ag3  1  0.43959695  0.01907935  0.15958027  1  0.569097  0  0.488444  0.360615  0  1.949645  0
H  H4  1  0.59199803  0.68744866  0.75230755  1  0.627717  0  0.284123  0.394816  0  0.930424  0
H  H5  1  0.40800694  0.31256266  0.24770020  1  0.627759  0  0.284083  0.39476  0  0.930497  0
H  H6  1  0.82745005  0.78500274  0.89754255  1  0.173354  0  0.120727  0.109248  0  1.021381  0
H  H7  1  0.17252197  0.21500181  0.10245667  1  0.173189  0  0.120681  0.109176  0  1.021379  0
H  H8  1  0.14371255  0.14213423  0.26819892  1  0.184071  0  0.112151  0.138163  0  1.039332  0
H  H9  1  0.85625619  0.85785883  0.73180637  1  0.184004  0  0.112117  0.13812  0  1.039358  0
H  H10  1  0.14174354  0.21815587  0.55222846  1  0.112757  0  0.121489  0.122581  0  0.957603  0
H  H11  1  0.85825860  0.78182672  0.44775797  1  0.112815  0  0.121507  0.122629  0  0.957692  0
H  H12  1  0.36019133  0.89406040  0.44129469  1  0.102639  0  0.106306  0.109132  0  1.001358  0
H  H13  1  0.63979798  0.10591896  0.55869598  1  0.102927  0  0.106267  0.109083  0  1.001299  0
H  H14  1  0.32623216  0.37495456  0.69667120  1  0.164527  0  0.120947  0.146498  0  0.979918  0
H  H15  1  0.67374749  0.62503182  0.30332262  1  0.164487  0  0.120935  0.146444  0  0.980048  0
H  H16  1  0.11694330  0.96486315  0.53668644  1  0.088172  0  0.107017  0.105909  0  1.031395  0
H  H17  1  0.88307666  0.03512479  0.46331814  1  0.088166  0  0.107042  0.10593  0  1.031371  0
H  H18  1  0.33764396  0.12597257  0.41324742  1  0.065816  0  0.114118  0.112889  0  0.970913  0
H  H19  1  0.66234335  0.87402452  0.58675884  1  0.065684  0  0.114117  0.112856  0  0.971029  0
H  H20  1  0.84586280  0.11937488  0.19343389  1  0.190621  0  0.110743  0.12864  0  1.065523  0
H  H21  1  0.15415724  0.88063648  0.80657248  1  0.190846  0  0.110761  0.128621  0  1.065568  0
H  H22  1  0.17444398  0.69118488  0.32222965  1  0.172809  0  0.120805  0.112963  0  1.021136  0
H  H23  1  0.82554558  0.30880215  0.67777294  1  0.172461  0  0.120804  0.112901  0  1.021265  0
H  H24  1  0.65867939  0.13482020  0.04778345  1  0.111445  0  0.114025  0.087843  0  1.031475  0
H  H25  1  0.34129892  0.86517981  0.95222654  1  0.111679  0  0.114038  0.0878  0  1.031436  0
H  H26  1  0.28214692  0.88468381  0.66517681  1  0.13683  0  0.124561  0.109858  0  0.993337  0
H  H27  1  0.71785067  0.11530225  0.33482428  1  0.136948  0  0.124623  0.109887  0  0.993408  0
H  H28  1  0.02639278  0.75625776  0.03702888  1  0.10181  0  0.104874  0.116573  0  1.027425  0
H  H29  1  0.97360355  0.24374480  0.96296867  1  0.101733  0  0.104878  0.116573  0  1.027448  0
H  H30  1  0.83591395  0.58874448  0.92306033  1  0.160449  0  0.113673  0.090737  0  1.064501  0
H  H31  1  0.16409045  0.41123640  0.07691813  1  0.160426  0  0.113662  0.090691  0  1.064543  0
H  H32  1  0.62647387  0.35248816  0.07578639  1  0.13979  0  0.119012  0.103013  0  1.00565  0
H  H33  1  0.37353366  0.64753054  0.92421576  1  0.139522  0  0.119028  0.102985  0  1.005549  0
H  H34  1  0.42885554  0.19596713  0.93323725  1  0.086108  0  0.097153  0.09843  0  1.081489  0
H  H35  1  0.57114935  0.80402914  0.06676375  1  0.086122  0  0.097174  0.098455  0  1.081502  0
H  H36  1  0.64671996  0.44782140  0.77814093  1  0.14725  0  0.115921  0.129909  0  1.005755  0
H  H37  1  0.35326650  0.55215671  0.22185516  1  0.147763  0  0.115863  0.129887  0  1.005745  0
H  H38  1  0.37192743  0.70167279  0.75002543  1  0.650933  0  0.276305  0.382752  0  0.955809  0
H  H39  1  0.62808094  0.29833440  0.24998313  1  0.650866  0  0.276371  0.382827  0  0.955763  0
C  C40  1  0.82911076  0.85410560  0.96464541  1  0.425223  0  0.041501  0.098453  0  3.881474  0
C  C41  1  0.17088362  0.14590083  0.03535729  1  0.425863  0  0.041461  0.098547  0  3.881197  0
C  C42  1  0.06217722  0.92325671  0.21621707  1  0.476393  0  0.115256  0.183121  0  3.986247  0
C  C43  1  0.93782902  0.07673964  0.78378208  1  0.476396  0  0.115281  0.183176  0  3.986232  0
C  C44  1  0.15596536  0.04281489  0.28082464  1  -0.06715  0  -0.084784  -0.171056  0  3.927861  0
C  C45  1  0.84404345  0.95718041  0.71917518  1  -0.067178  0  -0.084767  -0.171083  0  3.927639  0
C  C46  1  0.94556575  0.93119525  0.12916433  1  -0.01623  0  0.001971  0.061224  0  3.996197  0
C  C47  1  0.05445318  0.06881845  0.87083520  1  -0.016305  0  0.00193  0.061258  0  3.996013  0
C  C48  1  0.21448948  0.17739493  0.60594372  1  -0.067443  0  -0.058657  -0.015781  0  3.943893  0
C  C49  1  0.78549177  0.82259233  0.39405366  1  -0.067656  0  -0.058899  -0.01606  0  3.944028  0
C  C50  1  0.27635871  0.90664282  0.37850505  1  -0.058729  0  -0.088322  -0.13965  0  4.008682  0
C  C51  1  0.72365553  0.09334580  0.62148351  1  -0.059241  0  -0.088269  -0.139489  0  4.008581  0
C  C52  1  0.32145562  0.26583831  0.68614344  1  0.014227  0  -0.068358  -0.141667  0  3.88995  0
C  C53  1  0.67852736  0.73415102  0.31385316  1  0.013985  0  -0.068162  -0.141376  0  3.889797  0
C  C54  1  0.41306690  0.21296652  0.75534477  1  0.484557  0  0.119359  0.184343  0  3.975218  0
C  C55  1  0.58692131  0.78702884  0.24465404  1  0.4846  0  0.119218  0.18413  0  3.975365  0
C  C56  1  0.19967498  0.03853778  0.59739670  1  -0.066278  0  -0.084041  -0.134668  0  3.991693  0
C  C57  1  0.80033419  0.96145117  0.40260850  1  -0.066128  0  -0.084042  -0.134688  0  3.991807  0
C  C58  1  0.26412169  0.03379618  0.36298710  1  0.000366  0  -0.069283  -0.029112  0  3.981668  0
C  C59  1  0.73590040  0.96619728  0.63700758  1  0.000776  0  -0.069309  -0.029109  0  3.981539  0
C  C60  1  0.84197562  0.03959049  0.13026666  1  -0.076915  0  -0.08751  -0.162441  0  3.941484  0
C  C61  1  0.15804199  0.96042304  0.86973666  1  -0.076957  0  -0.087468  -0.162511  0  3.941616  0
C  C62  1  0.17811475  0.79270752  0.31207801  1  0.417679  0  0.042213  0.090069  0  3.91325  0
C  C63  1  0.82187593  0.20727868  0.68791994  1  0.418187  0  0.04216  0.089964  0  3.913463  0
C  C64  1  0.73550458  0.04898660  0.04818025  1  0.454646  0  0.032906  0.075025  0  3.982597  0
C  C65  1  0.26449743  0.95102380  0.95182512  1  0.453852  0  0.032878  0.075157  0  3.982587  0
C  C66  1  0.29358570  0.99251881  0.66864205  1  0.474176  0  0.045291  0.086349  0  3.92453  0
C  C67  1  0.70643441  0.00747023  0.33136079  1  0.474292  0  0.045264  0.086374  0  3.924694  0
C  C68  1  0.93910711  0.83757274  0.04389446  1  -0.009917  0  -0.08929  -0.171821  0  3.960475  0
C  C69  1  0.06089995  0.16243583  0.95610575  1  -0.009864  0  -0.08924  -0.171833  0  3.960268  0
C  C70  1  0.74316179  0.50212424  0.92442192  1  0.411208  0  0.033696  0.064724  0  3.964532  0
C  C71  1  0.25684072  0.49786722  0.07557210  1  0.411238  0  0.033685  0.064759  0  3.964542  0
C  C72  1  0.62784619  0.36861144  0.00819157  1  0.509644  0  0.043974  0.107339  0  3.891986  0
C  C73  1  0.37216433  0.63138598  0.99180618  1  0.509588  0  0.043875  0.107336  0  3.89211  0
C  C74  1  0.52068653  0.28038293  0.92808634  1  -0.052163  0  -0.094317  -0.191501  0  3.99553  0
C  C75  1  0.47931184  0.71961546  0.07191322  1  -0.051439  0  -0.094279  -0.191519  0  3.995621  0
C  C76  1  0.63601416  0.42060578  0.84160811  1  -0.009676  0  -0.077991  -0.152068  0  3.921129  0
C  C77  1  0.36397742  0.57938554  0.15838956  1  -0.010249  0  -0.077863  -0.151906  0  3.920853  0
C  C78  1  0.52420658  0.30481153  0.84214540  1  -0.061929  0  0.001879  0.05836  0  4.012492  0
C  C79  1  0.47577907  0.69518485  0.15785339  1  -0.061732  0  0.001893  0.058413  0  4.012394  0
S  S80  1  0.99259919  0.38274325  0.25062314  1  3.742431  0  0.518021  1.395474  0  6.436877  0
S  S81  1  0.00741062  0.61728057  0.74937885  1  3.741986  0  0.517904  1.394926  0  6.436964  0
N  N82  1  0.72707512  0.95792439  0.96669571  1  -1.220142  0  -0.354711  -0.20873  0  3.607581  0
N  N83  1  0.27292979  0.04208709  0.03330814  1  -1.220012  0  -0.35466  -0.208761  0  3.607437  0
N  N84  1  0.07316949  0.80016579  0.23224683  1  -1.19042  0  -0.331388  -0.241811  0  3.51239  0
N  N85  1  0.92682112  0.19982750  0.76775244  1  -1.190686  0  -0.331393  -0.241758  0  3.512327  0
N  N86  1  0.40011551  0.07745818  0.74558932  1  -1.213321  0  -0.341985  -0.243403  0  3.574782  0
N  N87  1  0.59990037  0.92253805  0.25441256  1  -1.213224  0  -0.341904  -0.243348  0  3.574826  0
N  N88  1  0.74010845  0.47761697  0.00679263  1  -1.209948  0  -0.341971  -0.199698  0  3.574039  0
N  N89  1  0.25989709  0.52238363  0.99320269  1  -1.210475  0  -0.341942  -0.19975  0  3.574148  0
O  O90  1  0.50146455  0.73055623  0.78674745  1  -1.275948  0  -0.603748  -0.76999  0  2.026204  0
O  O91  1  0.49854231  0.26944982  0.21326404  1  -1.275902  0  -0.603777  -0.770004  0  2.026136  0
O  O92  1  0.18827566  0.36328620  0.28442313  1  -1.367644  0  -0.397415  -0.696733  0  2.108477  0
O  O93  1  0.81174308  0.63676390  0.71558517  1  -1.367446  0  -0.397421  -0.696574  0  2.108575  0
O  O94  1  0.96644165  0.52958590  0.28063032  1  -1.336206  0  -0.393051  -0.682422  0  2.238861  0
O  O95  1  0.03352271  0.47043005  0.71936519  1  -1.335922  0  -0.392976  -0.682242  0  2.238795  0
O  O96  1  0.86415398  0.30208685  0.28895920  1  -1.347251  0  -0.389453  -0.686155  0  2.143199  0
O  O97  1  0.13587111  0.69792268  0.71104200  1  -1.346933  0  -0.389411  -0.686051  0  2.143117  0
O  O98  1  0.94617115  0.33712647  0.14726088  1  -1.334108  0  -0.388984  -0.698578  0  2.203679  0
O  O99  1  0.05385577  0.66289324  0.85274108  1  -1.334275  0  -0.388964  -0.698349  0  2.203592  0
