# generated using pymatgen
data_ZnC12(NF)4
_symmetry_space_group_name_H-M   'P 1'
_cell_length_a   19.67581975
_cell_length_b   19.67570834
_cell_length_c   19.67563667
_cell_angle_alpha   102.19066866
_cell_angle_beta   113.22971384
_cell_angle_gamma   113.23108438
_symmetry_Int_Tables_number   1
_chemical_formula_structural   ZnC12(NF)4
_chemical_formula_sum   'Zn4 C48 N16 F16'
_cell_volume   5793.81496828
_cell_formula_units_Z   4
loop_
 _symmetry_equiv_pos_site_id
 _symmetry_equiv_pos_as_xyz
  1  'x, y, z'
loop_
 _atom_site_type_symbol
 _atom_site_label
 _atom_site_symmetry_multiplicity
 _atom_site_fract_x
 _atom_site_fract_y
 _atom_site_fract_z
 _atom_site_occupancy
 _atom_site_pbe_bader_charge
 _atom_site_pbe_bader_spin_density
 _atom_site_pbe_cm5_charge
 _atom_site_pbe_ddec_charge
 _atom_site_pbe_ddec_spin_density
 _atom_site_pbe_ddec_sum_bond_order
 _atom_site_pbe_magmom
C  C0  1  0.07060015  0.25167714  0.99821682  1  1.113142  0  0.216774  0.361147  0  4.103173  0
C  C1  1  0.74657948  0.92771033  0.99819348  1  1.085516  0  0.216967  0.36177  0  4.102553  0
C  C2  1  0.07056100  0.81888655  0.07235053  1  1.099471  0  0.217049  0.36167  0  4.102582  0
C  C3  1  0.92955537  0.18114500  0.92773737  1  1.097936  0  0.217058  0.361945  0  4.102824  0
C  C4  1  0.74656185  0.74834926  0.81890971  1  1.11372  0  0.217043  0.361704  0  4.103244  0
C  C5  1  0.25341736  0.25160367  0.18113421  1  1.116767  0  0.216983  0.36187  0  4.102459  0
C  C6  1  0.92942229  0.00180621  0.74832718  1  1.114065  0  0.216903  0.361414  0  4.102283  0
C  C7  1  0.07048072  0.99818388  0.25158719  1  1.115682  0  0.217102  0.362035  0  4.103061  0
C  C8  1  0.92950745  0.74837661  0.00181340  1  1.116123  0  0.217004  0.361966  0  4.103378  0
C  C9  1  0.74655199  0.99822587  0.92764836  1  1.087609  0  0.21695  0.361481  0  4.102439  0
C  C10  1  0.25340320  0.00180278  0.07228934  1  1.08463  0  0.217168  0.362113  0  4.102546  0
C  C11  1  0.92940916  0.92762602  0.18106540  1  1.098236  0  0.216945  0.361682  0  4.102876  0
C  C12  1  0.07046892  0.07229524  0.81886697  1  1.098759  0  0.216948  0.361783  0  4.102145  0
C  C13  1  0.25346147  0.18109314  0.25167881  1  1.112497  0  0.216993  0.361592  0  4.102705  0
C  C14  1  0.74659487  0.81889066  0.74839922  1  1.115815  0  0.21702  0.361972  0  4.103007  0
C  C15  1  0.25343484  0.07235089  0.00177401  1  1.086342  0  0.216987  0.361567  0  4.102448  0
C  C16  1  0.00006574  0.26265543  0.96471411  1  0.164849  0  -0.037661  -0.191738  0  4.244502  0
C  C17  1  0.00002323  0.73737258  0.03532381  1  0.165333  0  -0.037676  -0.192138  0  4.244888  0
C  C18  1  0.70205415  0.96471107  0.96467214  1  0.185955  0  -0.037665  -0.191972  0  4.243618  0
C  C19  1  0.29793984  0.03532902  0.03529454  1  0.185719  0  -0.037719  -0.192042  0  4.24366  0
C  C20  1  0.99995359  0.96465434  0.26259282  1  0.166872  0  -0.037767  -0.192354  0  4.243939  0
C  C21  1  0.99995234  0.03530356  0.73733260  1  0.165164  0  -0.037674  -0.191854  0  4.244015  0
C  C22  1  0.29794717  0.26261167  0.26266207  1  0.146579  0  -0.037767  -0.192094  0  4.244306  0
C  C23  1  0.70206298  0.73737191  0.73739265  1  0.145043  0  -0.037578  -0.19189  0  4.2445  0
C  C24  1  0.36390232  0.33445011  0.33448109  1  0.018841  0  -0.0259  -0.015562  0  4.094026  0
C  C25  1  0.63611199  0.66555287  0.66555839  1  0.019008  0  -0.026237  -0.016102  0  4.094005  0
C  C26  1  0.00005344  0.33447429  0.97057652  1  0.172606  0  -0.025997  -0.016075  0  4.094578  0
C  C27  1  0.00001059  0.66554403  0.02945263  1  0.174151  0  -0.025965  -0.01571  0  4.094382  0
C  C28  1  0.63608903  0.97057243  0.97055765  1  0.018946  0  -0.025865  -0.01555  0  4.093751  0
C  C29  1  0.36390080  0.02944954  0.02943109  1  0.018525  0  -0.02615  -0.016029  0  4.094037  0
C  C30  1  0.99996977  0.97052128  0.33443850  1  0.174996  0  -0.026026  -0.015792  0  4.093844  0
C  C31  1  0.99997080  0.02943598  0.66551167  1  0.174766  0  -0.02578  -0.015374  0  4.093729  0
C  C32  1  0.41783712  0.39827787  0.39829323  1  -0.087859  0  -0.031427  -0.04402  0  4.299311  0
C  C33  1  0.58218689  0.60173671  0.60173707  1  -0.086161  0  -0.031074  -0.043336  0  4.298383  0
C  C34  1  0.00002760  0.39827133  0.98045432  1  -0.214121  0  -0.03122  -0.043367  0  4.299119  0
C  C35  1  0.00000457  0.60172246  0.01956830  1  -0.216989  0  -0.031387  -0.043863  0  4.298476  0
C  C36  1  0.58215570  0.98044926  0.98044330  1  -0.071684  0  -0.031409  -0.04393  0  4.299186  0
C  C37  1  0.41781797  0.01955203  0.01954185  1  -0.07086  0  -0.031118  -0.043293  0  4.299139  0
C  C38  1  0.99998831  0.98041829  0.39826594  1  -0.217703  0  -0.031217  -0.043751  0  4.29953  0
C  C39  1  0.99998367  0.01953266  0.60169362  1  -0.216963  0  -0.031503  -0.04434  0  4.299154  0
C  C40  1  0.47450232  0.46787046  0.46787665  1  -0.146819  0  -0.015999  -0.008449  0  4.225932  0
C  C41  1  0.52552123  0.53213538  0.53213521  1  0.056965  0  -0.016039  -0.008996  0  4.225513  0
C  C42  1  0.00001252  0.46786266  0.99338741  1  0.022886  0  -0.016172  -0.00913  0  4.225473  0
C  C43  1  0.00000580  0.53212328  0.00663568  1  -0.175047  0  -0.015822  -0.008324  0  4.225021  0
C  C44  1  0.52548988  0.99337160  0.99337032  1  -0.170307  0  -0.015954  -0.008496  0  4.225844  0
C  C45  1  0.47447547  0.00661509  0.00661223  1  0.035446  0  -0.016049  -0.00899  0  4.226094  0
C  C46  1  0.99999539  0.99335616  0.46785480  1  0.022358  0  -0.016174  -0.008723  0  4.225728  0
C  C47  1  0.99999137  0.00659634  0.53210908  1  -0.176173  0  -0.015757  -0.008198  0  4.225509  0
F  F48  1  0.15484797  0.30962941  0.03696772  1  -0.626587  0  -0.072771  -0.118114  0  1.396738  0
F  F49  1  0.72741952  0.88225341  0.03699521  1  -0.626902  0  -0.073107  -0.118617  0  1.39648  0
F  F50  1  0.15480572  0.84517454  0.11782673  1  -0.622828  0  -0.072963  -0.118406  0  1.396545  0
F  F51  1  0.84529634  0.15483860  0.88229034  1  -0.625517  0  -0.073096  -0.118671  0  1.396589  0
F  F52  1  0.72737555  0.69039271  0.84519449  1  -0.628984  0  -0.072937  -0.118391  0  1.396872  0
F  F53  1  0.27256210  0.30955509  0.15483323  1  -0.626278  0  -0.073025  -0.118521  0  1.396705  0
F  F54  1  0.84516617  0.96304287  0.69036079  1  -0.62357  0  -0.072812  -0.118213  0  1.396433  0
F  F55  1  0.15473130  0.03698003  0.30954113  1  -0.625672  0  -0.072989  -0.118557  0  1.397029  0
F  F56  1  0.84525778  0.69043181  0.96301917  1  -0.623912  0  -0.072988  -0.11855  0  1.396985  0
F  F57  1  0.72735307  0.03699014  0.88217027  1  -0.629024  0  -0.072925  -0.118293  0  1.396624  0
F  F58  1  0.27255779  0.96300838  0.11774838  1  -0.628223  0  -0.07305  -0.118618  0  1.396754  0
F  F59  1  0.84516875  0.88214360  0.15478644  1  -0.624322  0  -0.072773  -0.118113  0  1.396733  0
F  F60  1  0.15474258  0.11775183  0.84516535  1  -0.624081  0  -0.073153  -0.118744  0  1.39597  0
F  F61  1  0.27266348  0.15480867  0.30963676  1  -0.626493  0  -0.072857  -0.118291  0  1.396595  0
F  F62  1  0.72744042  0.84519353  0.69044535  1  -0.629161  0  -0.072983  -0.118583  0  1.396742  0
F  F63  1  0.27263913  0.11782935  0.96301045  1  -0.629187  0  -0.072867  -0.118243  0  1.396625  0
N  N64  1  0.04560406  0.17414220  0.98540458  1  -0.844652  0  -0.28074  -0.313731  0  3.502912  0
N  N65  1  0.81127818  0.93988350  0.98533936  1  -0.860357  0  -0.280673  -0.314106  0  3.502432  0
N  N66  1  0.04556029  0.87142485  0.06018595  1  -0.783552  0  -0.280897  -0.313921  0  3.502375  0
N  N67  1  0.95456809  0.12861259  0.93991616  1  -0.776705  0  -0.28073  -0.314145  0  3.502663  0
N  N68  1  0.81127520  0.82588737  0.87144742  1  -0.748063  0  -0.280767  -0.313822  0  3.503469  0
N  N69  1  0.18871694  0.17405232  0.12860082  1  -0.873199  0  -0.280806  -0.314392  0  3.502312  0
N  N70  1  0.95441779  0.01462865  0.82587524  1  -0.844161  0  -0.280931  -0.314141  0  3.502094  0
N  N71  1  0.04545705  0.98535158  0.17404267  1  -0.842414  0  -0.280744  -0.3141  0  3.502725  0
N  N72  1  0.95452571  0.82591947  0.01465850  1  -0.842084  0  -0.280655  -0.314106  0  3.502461  0
N  N73  1  0.81125861  0.98538698  0.93980789  1  -0.73913  0  -0.280766  -0.313898  0  3.502591  0
N  N74  1  0.18869013  0.01464010  0.06010792  1  -0.860153  0  -0.280887  -0.314363  0  3.502257  0
N  N75  1  0.95441554  0.93981480  0.12853323  1  -0.783569  0  -0.280857  -0.31401  0  3.503019  0
N  N76  1  0.04546253  0.06012564  0.87140262  1  -0.779047  0  -0.280628  -0.313983  0  3.502214  0
N  N77  1  0.18875130  0.12854322  0.17413406  1  -0.748859  0  -0.280762  -0.31381  0  3.502256  0
N  N78  1  0.81130411  0.87141736  0.82594846  1  -0.873797  0  -0.280879  -0.314356  0  3.502856  0
N  N79  1  0.18871858  0.06018054  0.01460048  1  -0.737974  0  -0.280745  -0.31381  0  3.502564  0
Zn  Zn80  1  0.12084383  0.12083508  0.99999843  1  1.229573  0  0.768924  0.803324  0  2.030806  0
Zn  Zn81  1  0.87915831  0.87915917  0.99999470  1  1.229229  0  0.768849  0.803232  0  2.030685  0
Zn  Zn82  1  0.87916998  0.00001464  0.87917147  1  1.229715  0  0.768925  0.803463  0  2.030671  0
Zn  Zn83  1  0.12083186  0.99999040  0.12083083  1  1.229308  0  0.768917  0.80337  0  2.030775  0
