# generated using pymatgen
data_NaH13C18O
_symmetry_space_group_name_H-M   'P 1'
_cell_length_a   6.17927559
_cell_length_b   11.56783588
_cell_length_c   18.05600000
_cell_angle_alpha   90.76856907
_cell_angle_beta   90.00000000
_cell_angle_gamma   90.00000000
_symmetry_Int_Tables_number   1
_chemical_formula_structural   NaH13C18O
_chemical_formula_sum   'Na4 H52 C72 O4'
_cell_volume   1290.54203558
_cell_formula_units_Z   4
loop_
 _symmetry_equiv_pos_site_id
 _symmetry_equiv_pos_as_xyz
  1  'x, y, z'
loop_
 _atom_site_type_symbol
 _atom_site_label
 _atom_site_symmetry_multiplicity
 _atom_site_fract_x
 _atom_site_fract_y
 _atom_site_fract_z
 _atom_site_occupancy
 _atom_site_hle17_bader_spin_density
 _atom_site_hle17_ddec_charge
 _atom_site_hle17_ddec_spin_density
 _atom_site_hle17_ddec_sum_bond_order
 _atom_site_hle17_magmom
 _atom_site_hse06_10hf_bader_spin_density
 _atom_site_hse06_10hf_ddec_charge
 _atom_site_hse06_10hf_ddec_spin_density
 _atom_site_hse06_10hf_ddec_sum_bond_order
 _atom_site_hse06_10hf_magmom
 _atom_site_hse06_bader_spin_density
 _atom_site_hse06_ddec_charge
 _atom_site_hse06_ddec_spin_density
 _atom_site_hse06_ddec_sum_bond_order
 _atom_site_hse06_magmom
 _atom_site_pbe_bader_charge
 _atom_site_pbe_bader_spin_density
 _atom_site_pbe_cm5_charge
 _atom_site_pbe_ddec_charge
 _atom_site_pbe_ddec_spin_density
 _atom_site_pbe_ddec_sum_bond_order
 _atom_site_pbe_magmom
Na  Na0  1  0.17720686  0.41491441  0.46336902  1  0  0.903208  0  0.342107  0  0  0.851567  0  0.485314  0  0  0.860269  0  0.471099  0  0.884215  0  0.601232  0.845128  0  0.495537  0
Na  Na1  1  0.67721692  0.58508082  0.03663133  1  0  0.903203  0  0.342152  0  0  0.851554  0  0.485383  0  0  0.860254  0  0.471168  0  0.884177  0  0.60123  0.845115  0  0.495603  0
Na  Na2  1  0.82278253  0.58507909  0.53662134  1  0  0.903209  0  0.342136  0  0  0.851584  0  0.485313  0  0  0.860284  0  0.471108  0  0.884187  0  0.601231  0.845146  0  0.495539  0
Na  Na3  1  0.32278379  0.41492046  0.96337738  1  0  0.903204  0  0.342165  0  0  0.851579  0  0.485354  0  0  0.86028  0  0.471145  0  0.884165  0  0.601257  0.845142  0  0.495574  0
H  H4  1  0.23422648  0.57716679  0.31446484  1  0  0.094869  0  0.959893  0  0  0.107481  0  1.021178  0  0  0.109771  0  1.019883  0  0.059931  0  0.098776  0.105836  0  1.022122  0
H  H5  1  0.73425112  0.42283709  0.18552450  1  0  0.095037  0  0.960042  0  0  0.107659  0  1.021287  0  0  0.109965  0  1.019946  0  0.06009  0  0.098822  0.106012  0  1.022237  0
H  H6  1  0.76576614  0.42284487  0.68551460  1  0  0.094906  0  0.960126  0  0  0.107591  0  1.021282  0  0  0.109882  0  1.019987  0  0.060146  0  0.098769  0.10594  0  1.022238  0
H  H7  1  0.26573989  0.57717630  0.81448210  1  0  0.095026  0  0.959911  0  0  0.107676  0  1.021111  0  0  0.109966  0  1.019814  0  0.060279  0  0.098829  0.106026  0  1.022062  0
H  H8  1  0.15286096  0.37810300  0.26838996  1  0  0.101636  0  0.96651  0  0  0.113099  0  1.025734  0  0  0.114921  0  1.027311  0  0.068384  0  0.096768  0.111914  0  1.024519  0
H  H9  1  0.65285484  0.62189050  0.23160373  1  0  0.101585  0  0.966612  0  0  0.113041  0  1.025846  0  0  0.114846  0  1.027479  0  0.06834  0  0.09673  0.111846  0  1.024663  0
H  H10  1  0.84714623  0.62190692  0.73159279  1  0  0.101485  0  0.966665  0  0  0.112985  0  1.025849  0  0  0.11479  0  1.027475  0  0.06847  0  0.096759  0.111795  0  1.02465  0
H  H11  1  0.34714587  0.37811943  0.76840561  1  0  0.101518  0  0.966613  0  0  0.112977  0  1.025837  0  0  0.114794  0  1.027439  0  0.068341  0  0.09677  0.111773  0  1.024683  0
H  H12  1  0.42317905  0.22284911  0.28783888  1  0  0.084182  0  0.97202  0  0  0.095968  0  1.03518  0  0  0.09797  0  1.034811  0  0.064686  0  0.093572  0.094564  0  1.035374  0
H  H13  1  0.92317779  0.77714699  0.21215815  1  0  0.08422  0  0.972139  0  0  0.096029  0  1.035264  0  0  0.098031  0  1.034894  0  0.064722  0  0.093607  0.094627  0  1.035451  0
H  H14  1  0.57681033  0.77715563  0.71214438  1  0  0.084215  0  0.972047  0  0  0.096008  0  1.035183  0  0  0.098015  0  1.03481  0  0.064731  0  0.093611  0.094591  0  1.03541  0
H  H15  1  0.07683425  0.22285776  0.78785169  1  0  0.084202  0  0.972003  0  0  0.095995  0  1.035144  0  0  0.098002  0  1.03477  0  0.064916  0  0.093615  0.094584  0  1.035359  0
H  H16  1  0.88799568  0.24514915  0.47076091  1  0  0.076555  0  1.012405  0  0  0.085321  0  1.081499  0  0  0.08884  0  1.078622  0  0.055074  0  0.095248  0.082851  0  1.083565  0
H  H17  1  0.38802283  0.75485213  0.02923727  1  0  0.076532  0  1.012397  0  0  0.085337  0  1.081457  0  0  0.088864  0  1.078577  0  0.055031  0  0.095244  0.082867  0  1.083523  0
H  H18  1  0.11198562  0.75485386  0.52923895  1  0  0.076572  0  1.012368  0  0  0.085373  0  1.081426  0  0  0.088897  0  1.078537  0  0.055056  0  0.095269  0.082904  0  1.083491  0
H  H19  1  0.61197303  0.24512840  0.97076406  1  0  0.076517  0  1.012362  0  0  0.085352  0  1.08138  0  0  0.088879  0  1.078494  0  0.055261  0  0.095244  0.082883  0  1.083447  0
H  H20  1  0.17556427  0.09710987  0.46378701  1  0  0.073989  0  1.00199  0  0  0.084513  0  1.066862  0  0  0.086489  0  1.067302  0  0.051145  0  0.091026  0.083082  0  1.066614  0
H  H21  1  0.67557272  0.90290092  0.03621846  1  0  0.073908  0  1.002036  0  0  0.084442  0  1.066907  0  0  0.08644  0  1.067323  0  0.051309  0  0.091008  0.083004  0  1.066663  0
H  H22  1  0.82441703  0.90289833  0.53622286  1  0  0.073895  0  1.002118  0  0  0.084451  0  1.06698  0  0  0.08643  0  1.067415  0  0.051463  0  0.09102  0.083011  0  1.066739  0
H  H23  1  0.32443123  0.09708307  0.96377570  1  0  0.073978  0  1.001964  0  0  0.084494  0  1.066841  0  0  0.086514  0  1.067235  0  0.051345  0  0.091059  0.083059  0  1.06659  0
H  H24  1  0.25736026  0.99674887  0.34378171  1  0  0.074598  0  0.991674  0  0  0.083909  0  1.059665  0  0  0.086183  0  1.059121  0  0.043282  0  0.093158  0.082351  0  1.060006  0
H  H25  1  0.75735738  0.00326019  0.15622540  1  0  0.074672  0  0.991609  0  0  0.083966  0  1.059622  0  0  0.086245  0  1.059065  0  0.043121  0  0.09317  0.082407  0  1.059964  0
H  H26  1  0.74262750  0.00325241  0.65622811  1  0  0.074578  0  0.991678  0  0  0.083918  0  1.059652  0  0  0.0862  0  1.05909  0  0.043215  0  0.093191  0.082359  0  1.059993  0
H  H27  1  0.24266437  0.99673677  0.84376721  1  0  0.074693  0  0.991596  0  0  0.083966  0  1.059629  0  0  0.08625  0  1.059061  0  0.043151  0  0.093238  0.082403  0  1.059985  0
H  H28  1  0.04715278  0.04679429  0.23129713  1  0  0.079564  0  0.976819  0  0  0.089131  0  1.042143  0  0  0.091232  0  1.042398  0  0.089078  0  0.094094  0.08768  0  1.041932  0
H  H29  1  0.54714666  0.95320353  0.26870546  1  0  0.079536  0  0.976786  0  0  0.089067  0  1.042151  0  0  0.091167  0  1.042408  0  0.089131  0  0.094062  0.087618  0  1.041935  0
H  H30  1  0.95287869  0.95320699  0.76870106  1  0  0.07963  0  0.976843  0  0  0.089168  0  1.042164  0  0  0.09127  0  1.042416  0  0.089037  0  0.094119  0.087718  0  1.041954  0
H  H31  1  0.45290908  0.04679862  0.73129440  1  0  0.079531  0  0.976933  0  0  0.089151  0  1.04219  0  0  0.09125  0  1.042446  0  0.088804  0  0.094139  0.087704  0  1.041963  0
H  H32  1  0.76542144  0.19848195  0.23770868  1  0  0.085463  0  0.962967  0  0  0.096832  0  1.026187  0  0  0.099208  0  1.025933  0  0.058819  0  0.095815  0.095122  0  1.026449  0
H  H33  1  0.26541461  0.80152020  0.26228675  1  0  0.085608  0  0.96293  0  0  0.096929  0  1.026182  0  0  0.099311  0  1.025919  0  0.058897  0  0.095867  0.095218  0  1.026443  0
H  H34  1  0.23461164  0.80152712  0.76228459  1  0  0.085521  0  0.962945  0  0  0.096825  0  1.026231  0  0  0.099229  0  1.025944  0  0.058538  0  0.095836  0.095116  0  1.02649  0
H  H35  1  0.73463789  0.19848540  0.73771591  1  0  0.085468  0  0.962955  0  0  0.096777  0  1.026225  0  0  0.09918  0  1.025941  0  0.058514  0  0.095783  0.095067  0  1.026486  0
H  H36  1  0.25334685  0.68678315  0.43379077  1  0  0.08403  0  0.976826  0  0  0.093042  0  1.046765  0  0  0.096715  0  1.044086  0  0.061924  0  0.102655  0.090333  0  1.048853  0
H  H37  1  0.75338119  0.31319393  0.06619890  1  0  0.084145  0  0.976745  0  0  0.093062  0  1.046839  0  0  0.09679  0  1.0441  0  0.061995  0  0.102584  0.090353  0  1.048924  0
H  H38  1  0.74663283  0.31319652  0.56619560  1  0  0.084073  0  0.976845  0  0  0.093062  0  1.046807  0  0  0.096798  0  1.044056  0  0.061795  0  0.102593  0.090351  0  1.048895  0
H  H39  1  0.24660172  0.68680563  0.93381422  1  0  0.084221  0  0.97671  0  0  0.093135  0  1.046776  0  0  0.096859  0  1.044043  0  0.061808  0  0.102613  0.090426  0  1.048861  0
H  H40  1  0.32001162  0.89601051  0.45497404  1  0  0.083919  0  0.966254  0  0  0.096835  0  1.026925  0  0  0.099063  0  1.026473  0  0.042138  0  0.098435  0.095282  0  1.027249  0
H  H41  1  0.82005729  0.10396916  0.04502562  1  0  0.084072  0  0.9663  0  0  0.096897  0  1.02707  0  0  0.099122  0  1.026619  0  0.04225  0  0.0985  0.095345  0  1.027392  0
H  H42  1  0.67995673  0.10397089  0.54502397  1  0  0.083997  0  0.96627  0  0  0.096874  0  1.026964  0  0  0.099101  0  1.026511  0  0.042159  0  0.098468  0.095322  0  1.027286  0
H  H43  1  0.17993209  0.89603558  0.95497979  1  0  0.084034  0  0.966425  0  0  0.096886  0  1.027137  0  0  0.099111  0  1.026687  0  0.042119  0  0.098499  0.095335  0  1.027458  0
H  H44  1  0.67806816  0.98221157  0.42067218  1  0  0.088226  0  0.96224  0  0  0.098942  0  1.02325  0  0  0.100858  0  1.023869  0  0.102055  0  0.098135  0.097527  0  1.022936  0
H  H45  1  0.17811473  0.01777848  0.07933145  1  0  0.08822  0  0.96229  0  0  0.098939  0  1.023285  0  0  0.100862  0  1.023914  0  0.101912  0  0.098085  0.097524  0  1.022972  0
H  H46  1  0.32190181  0.01778799  0.57933818  1  0  0.088309  0  0.962182  0  0  0.099033  0  1.023176  0  0  0.100961  0  1.023805  0  0.102043  0  0.09812  0.097616  0  1.022866  0
H  H47  1  0.82187951  0.98221762  0.92066281  1  0  0.088285  0  0.962209  0  0  0.098965  0  1.023241  0  0  0.100888  0  1.02387  0  0.101475  0  0.09807  0.097551  0  1.022927  0
H  H48  1  0.97144559  0.85375853  0.37407428  1  0  0.080593  0  0.978932  0  0  0.091229  0  1.043528  0  0  0.093117  0  1.044055  0  0.088788  0  0.09504  0.089893  0  1.043147  0
H  H49  1  0.47148407  0.14624189  0.12592778  1  0  0.080646  0  0.978826  0  0  0.09132  0  1.043389  0  0  0.093208  0  1.043913  0  0.088577  0  0.095083  0.090004  0  1.042987  0
H  H50  1  0.02854704  0.14625572  0.62594340  1  0  0.080706  0  0.978859  0  0  0.091335  0  1.043452  0  0  0.093229  0  1.043967  0  0.088887  0  0.095087  0.089986  0  1.043084  0
H  H51  1  0.52852150  0.85374988  0.87406368  1  0  0.080625  0  0.978881  0  0  0.091313  0  1.043416  0  0  0.093201  0  1.04394  0  0.088638  0  0.095059  0.089994  0  1.043017  0
H  H52  1  0.90534075  0.64321879  0.35609417  1  0  0.09789  0  0.966937  0  0  0.107409  0  1.032008  0  0  0.110621  0  1.029863  0  0.078  0  0.103819  0.105096  0  1.033654  0
H  H53  1  0.40537276  0.35678595  0.14390127  1  0  0.097811  0  0.967088  0  0  0.1073  0  1.032215  0  0  0.110499  0  1.030107  0  0.077743  0  0.103779  0.105002  0  1.033816  0
H  H54  1  0.09466158  0.35680324  0.64391361  1  0  0.097827  0  0.966922  0  0  0.107328  0  1.032066  0  0  0.110538  0  1.029955  0  0.077827  0  0.103781  0.105031  0  1.033667  0
H  H55  1  0.59463281  0.64320237  0.85609292  1  0  0.097814  0  0.966902  0  0  0.107317  0  1.032037  0  0  0.110525  0  1.029893  0  0.077667  0  0.103766  0.105018  0  1.033642  0
C  C56  1  0.67510988  0.43722050  0.39062595  1  0  0.30641  0  3.897323  0  0  0.294199  0  4.156151  0  0  0.309282  0  4.171058  0  0.709807  0  0.080989  0.283968  0  4.145639  0
C  C57  1  0.17512732  0.56277905  0.10937332  1  0  0.306393  0  3.897453  0  0  0.294132  0  4.156324  0  0  0.309216  0  4.171237  0  0.709418  0  0.080894  0.283899  0  4.145815  0
C  C58  1  0.32488436  0.56277732  0.60936279  1  0  0.306666  0  3.897324  0  0  0.29441  0  4.156169  0  0  0.309498  0  4.171076  0  0.708419  0  0.081047  0.284176  0  4.145662  0
C  C59  1  0.82487663  0.43722569  0.89063652  1  0  0.306411  0  3.897514  0  0  0.294127  0  4.156379  0  0  0.309212  0  4.171285  0  0.709349  0  0.08095  0.283898  0  4.145872  0
C  C60  1  0.52654230  0.52875148  0.37166730  1  0  -0.138869  0  3.821642  0  0  -0.123964  0  4.058169  0  0  -0.131289  0  4.082587  0  -0.068069  0  -0.047832  -0.119262  0  4.041854  0
C  C61  1  0.02657755  0.47124289  0.12832418  1  0  -0.138576  0  3.821524  0  0  -0.123627  0  4.058037  0  0  -0.130949  0  4.082444  0  -0.06844  0  -0.047674  -0.118924  0  4.041717  0
C  C62  1  0.47344708  0.47124808  0.62831148  1  0  -0.139033  0  3.821818  0  0  -0.124124  0  4.058333  0  0  -0.131441  0  4.082723  0  -0.068555  0  -0.047799  -0.119417  0  4.042005  0
C  C63  1  0.97342640  0.52876271  0.87168734  1  0  -0.13868  0  3.821672  0  0  -0.123654  0  4.058059  0  0  -0.130971  0  4.082465  0  -0.06872  0  -0.047748  -0.118968  0  4.041763  0
C  C64  1  0.34182162  0.50583674  0.32845753  1  0  -0.13905  0  3.847652  0  0  -0.158201  0  4.100802  0  0  -0.155292  0  4.118964  0  -0.137157  0  -0.1169  -0.159905  0  4.088413  0
C  C65  1  0.84184949  0.49415849  0.17153617  1  0  -0.139606  0  3.847686  0  0  -0.158773  0  4.100849  0  0  -0.155863  0  4.119019  0  -0.137063  0  -0.117071  -0.160477  0  4.088462  0
C  C66  1  0.65817909  0.49416973  0.67152519  1  0  -0.139135  0  3.84757  0  0  -0.158336  0  4.100687  0  0  -0.155431  0  4.118843  0  -0.13655  0  -0.116917  -0.160041  0  4.088302  0
C  C67  1  0.15815446  0.50584971  0.82847370  1  0  -0.139601  0  3.847611  0  0  -0.158818  0  4.100774  0  0  -0.155913  0  4.118928  0  -0.137261  0  -0.117047  -0.160514  0  4.088392  0
C  C68  1  0.29882791  0.39512501  0.30037109  1  0  -0.140435  0  3.868409  0  0  -0.15709  0  4.130415  0  0  -0.16278  0  4.15342  0  -0.010038  0  -0.129201  -0.153416  0  4.114771  0
C  C69  1  0.79882179  0.60487714  0.19962710  1  0  -0.140162  0  3.867892  0  0  -0.15679  0  4.129874  0  0  -0.162487  0  4.152872  0  -0.009933  0  -0.129124  -0.153122  0  4.114223  0
C  C70  1  0.70117442  0.60488752  0.69961113  1  0  -0.140275  0  3.86845  0  0  -0.15698  0  4.130499  0  0  -0.162679  0  4.153514  0  -0.010057  0  -0.129272  -0.1533  0  4.114832  0
C  C71  1  0.20117245  0.39512933  0.80038276  1  0  -0.140103  0  3.868131  0  0  -0.156744  0  4.13015  0  0  -0.162444  0  4.15317  0  -0.009691  0  -0.129181  -0.153072  0  4.114478  0
C  C72  1  0.45138463  0.30835594  0.31211158  1  0  -0.110493  0  3.831604  0  0  -0.132358  0  4.085801  0  0  -0.130701  0  4.106996  0  -0.134072  0  -0.102085  -0.133062  0  4.071174  0
C  C73  1  0.95139469  0.69164967  0.18788498  1  0  -0.11055  0  3.831151  0  0  -0.132471  0  4.085398  0  0  -0.130812  0  4.106588  0  -0.133945  0  -0.102112  -0.133173  0  4.070767  0
C  C74  1  0.54862256  0.69165658  0.68787064  1  0  -0.110306  0  3.831221  0  0  -0.132173  0  4.085451  0  0  -0.130518  0  4.106642  0  -0.133718  0  -0.102019  -0.132878  0  4.070821  0
C  C75  1  0.04861573  0.30835681  0.81212599  1  0  -0.110509  0  3.831368  0  0  -0.132384  0  4.085617  0  0  -0.130731  0  4.106805  0  -0.133915  0  -0.102131  -0.133087  0  4.070981  0
C  C76  1  0.63952966  0.32657966  0.35440155  1  0  -0.104651  0  3.751483  0  0  -0.090722  0  3.987908  0  0  -0.098479  0  4.013964  0  -0.020781  0  -0.034576  -0.085603  0  3.970211  0
C  C77  1  0.13955034  0.67342076  0.14559164  1  0  -0.104595  0  3.751308  0  0  -0.090592  0  3.98762  0  0  -0.098355  0  4.013669  0  -0.020365  0  -0.034496  -0.085474  0  3.969928  0
C  C78  1  0.36045487  0.67341903  0.64558166  1  0  -0.104803  0  3.751427  0  0  -0.090842  0  3.987818  0  0  -0.098604  0  4.013873  0  -0.020402  0  -0.034557  -0.085725  0  3.970129  0
C  C79  1  0.86046009  0.32658398  0.85441876  1  0  -0.104558  0  3.751218  0  0  -0.090597  0  3.987637  0  0  -0.098356  0  4.013686  0  -0.020686  0  -0.034451  -0.085479  0  3.969943  0
C  C80  1  0.80490341  0.23413746  0.35480064  1  0  0.091883  0  3.768949  0  0  0.106827  0  3.995631  0  0  0.109618  0  4.01824  0  -0.011522  0  -0.002865  0.104963  0  3.980246  0
C  C81  1  0.30493057  0.76585605  0.14520190  1  0  0.091759  0  3.769091  0  0  0.106746  0  3.995683  0  0  0.109555  0  4.018259  0  -0.009846  0  -0.00293  0.104882  0  3.980292  0
C  C82  1  0.19508759  0.76585605  0.64519969  1  0  0.091776  0  3.769154  0  0  0.106753  0  3.995788  0  0  0.109536  0  4.018415  0  -0.012036  0  -0.002893  0.104891  0  3.980396  0
C  C83  1  0.69508795  0.23414091  0.85480178  1  0  0.091861  0  3.769015  0  0  0.106809  0  3.995697  0  0  0.109601  0  4.018306  0  -0.012031  0  -0.002899  0.104948  0  3.980296  0
C  C84  1  0.92423617  0.20306143  0.41795295  1  0  -0.166538  0  3.795879  0  0  -0.182093  0  4.039954  0  0  -0.184379  0  4.058309  0  -0.123539  0  -0.107596  -0.180466  0  4.027478  0
C  C85  1  0.42425847  0.79693553  0.08204741  1  0  -0.166471  0  3.795858  0  0  -0.182082  0  4.039906  0  0  -0.184387  0  4.058274  0  -0.12387  0  -0.107576  -0.180455  0  4.027429  0
C  C86  1  0.07574351  0.79693899  0.58205021  1  0  -0.166544  0  3.795918  0  0  -0.182156  0  4.040021  0  0  -0.184443  0  4.058378  0  -0.123967  0  -0.107609  -0.180529  0  4.027542  0
C  C87  1  0.57574872  0.20305279  0.91795010  1  0  -0.166446  0  3.79562  0  0  -0.182049  0  4.039663  0  0  -0.184347  0  4.058039  0  -0.123523  0  -0.107532  -0.180423  0  4.027188  0
C  C88  1  0.08468307  0.11819609  0.41402415  1  0  -0.083554  0  3.819859  0  0  -0.094867  0  4.064075  0  0  -0.096444  0  4.085815  0  -0.123494  0  -0.099763  -0.093629  0  4.049153  0
C  C89  1  0.58470446  0.88180000  0.08598174  1  0  -0.083488  0  3.819897  0  0  -0.094786  0  4.064097  0  0  -0.09638  0  4.085836  0  -0.12254  0  -0.099811  -0.093542  0  4.049179  0
C  C90  1  0.91530956  0.88180519  0.58598067  1  0  -0.083451  0  3.819975  0  0  -0.094775  0  4.064186  0  0  -0.096354  0  4.085933  0  -0.123205  0  -0.099826  -0.09353  0  4.049269  0
C  C91  1  0.41531405  0.11818053  0.91401627  1  0  -0.08358  0  3.819578  0  0  -0.094861  0  4.063782  0  0  -0.096476  0  4.085507  0  -0.124068  0  -0.099886  -0.093618  0  4.048864  0
C  C92  1  0.12975631  0.06153909  0.34704192  1  0  -0.087321  0  3.796943  0  0  -0.098004  0  4.040869  0  0  -0.100555  0  4.061989  0  0.021727  0  -0.099406  -0.096214  0  4.026377  0
C  C93  1  0.62977609  0.93845615  0.15296674  1  0  -0.087456  0  3.797432  0  0  -0.098164  0  4.041395  0  0  -0.100716  0  4.062525  0  0.022085  0  -0.099349  -0.096374  0  4.026902  0
C  C94  1  0.87024279  0.93846306  0.65296569  1  0  -0.08731  0  3.797273  0  0  -0.098039  0  4.041212  0  0  -0.100593  0  4.062339  0  0.021703  0  -0.099353  -0.096247  0  4.026711  0
C  C95  1  0.37024728  0.06153476  0.84703080  1  0  -0.087494  0  3.797261  0  0  -0.098186  0  4.041237  0  0  -0.100739  0  4.062372  0  0.022224  0  -0.099449  -0.096397  0  4.026741  0
C  C96  1  0.01112428  0.08953301  0.28403370  1  0  -0.061752  0  3.778559  0  0  -0.073287  0  4.021774  0  0  -0.07452  0  4.043755  0  -0.092202  0  -0.092829  -0.072349  0  4.006785  0
C  C97  1  0.51115539  0.91045703  0.21597103  1  0  -0.061562  0  3.778557  0  0  -0.073043  0  4.021717  0  0  -0.074275  0  4.043696  0  -0.093094  0  -0.092766  -0.072106  0  4.006731  0
C  C98  1  0.98888129  0.91046222  0.71596387  1  0  -0.061831  0  3.778928  0  0  -0.073328  0  4.022125  0  0  -0.074564  0  4.044118  0  -0.09213  0  -0.092891  -0.072388  0  4.00713  0
C  C99  1  0.48889388  0.08953993  0.78403099  1  0  -0.061604  0  3.778615  0  0  -0.073168  0  4.021791  0  0  -0.074404  0  4.04378  0  -0.091889  0  -0.09288  -0.072226  0  4.006799  0
C  C100  1  0.85159173  0.17458336  0.28794692  1  0  -0.117472  0  3.708846  0  0  -0.131398  0  3.947517  0  0  -0.135117  0  3.968734  0  -0.04133  0  -0.090102  -0.128766  0  3.933048  0
C  C101  1  0.35162374  0.82540582  0.21205282  1  0  -0.117685  0  3.708738  0  0  -0.131612  0  3.947428  0  0  -0.135337  0  3.968628  0  -0.043355  0  -0.090187  -0.128978  0  3.932958  0
C  C102  1  0.14840898  0.82541100  0.71205120  1  0  -0.117498  0  3.708927  0  0  -0.131393  0  3.947612  0  0  -0.135131  0  3.968814  0  -0.0411  0  -0.090136  -0.128759  0  3.933139  0
C  C103  1  0.64841258  0.17459979  0.78794485  1  0  -0.117555  0  3.708724  0  0  -0.131448  0  3.947435  0  0  -0.135188  0  3.968632  0  -0.041199  0  -0.0901  -0.128813  0  3.932961  0
C  C104  1  0.57337627  0.65035819  0.39255340  1  0  0.05983  0  3.827105  0  0  0.076131  0  4.054783  0  0  0.079007  0  4.076354  0  -0.049309  0  -0.013087  0.074149  0  4.040306  0
C  C105  1  0.07340504  0.34963444  0.10743807  1  0  0.05977  0  3.8271  0  0  0.07597  0  4.054911  0  0  0.078838  0  4.076514  0  -0.050078  0  -0.013115  0.073986  0  4.040439  0
C  C106  1  0.42660502  0.34963963  0.60743313  1  0  0.059844  0  3.827276  0  0  0.076219  0  4.054821  0  0  0.079085  0  4.076421  0  -0.049965  0  -0.013017  0.074238  0  4.040346  0
C  C107  1  0.92658758  0.65036943  0.89257122  1  0  0.059856  0  3.827148  0  0  0.076132  0  4.054799  0  0  0.079001  0  4.076393  0  -0.050157  0  -0.013021  0.074154  0  4.040327  0
C  C108  1  0.41091710  0.72376833  0.42071250  1  0  -0.133797  0  3.755181  0  0  -0.151511  0  4.002078  0  0  -0.154781  0  4.022635  0  -0.13738  0  -0.091011  -0.149239  0  3.988184  0
C  C109  1  0.91096601  0.27621912  0.07928279  1  0  -0.133683  0  3.755232  0  0  -0.151339  0  4.002178  0  0  -0.154646  0  4.022689  0  -0.135943  0  -0.09086  -0.149069  0  3.988286  0
C  C110  1  0.58905449  0.27622085  0.57928502  1  0  -0.133726  0  3.755315  0  0  -0.151464  0  4.002212  0  0  -0.154772  0  4.022723  0  -0.136008  0  -0.090924  -0.149194  0  3.988328  0
C  C111  1  0.08902824  0.72378735  0.92072485  1  0  -0.13379  0  3.755396  0  0  -0.151479  0  4.002305  0  0  -0.154781  0  4.022814  0  -0.135393  0  -0.090951  -0.149208  0  3.988414  0
C  C112  1  0.44841340  0.84177509  0.43194981  1  0  -0.077305  0  3.795897  0  0  -0.089625  0  4.040777  0  0  -0.091409  0  4.06245  0  0.009117  0  -0.094452  -0.088441  0  4.026103  0
C  C113  1  0.94845422  0.15820545  0.06804543  1  0  -0.077566  0  3.795825  0  0  -0.089822  0  4.040653  0  0  -0.091606  0  4.062346  0  0.008153  0  -0.094542  -0.088639  0  4.025982  0
C  C114  1  0.55158084  0.15821323  0.56805159  1  0  -0.07737  0  3.795981  0  0  -0.089657  0  4.040841  0  0  -0.09144  0  4.062531  0  0.008173  0  -0.094517  -0.088474  0  4.026166  0
C  C115  1  0.05154811  0.84179324  0.93196104  1  0  -0.077538  0  3.796002  0  0  -0.089808  0  4.040823  0  0  -0.091593  0  4.062515  0  0.008347  0  -0.094573  -0.088625  0  4.026149  0
C  C116  1  0.64912140  0.88953940  0.41425328  1  0  -0.088202  0  3.787549  0  0  -0.097261  0  4.028997  0  0  -0.099072  0  4.049856  0  -0.123369  0  -0.096971  -0.095995  0  4.014923  0
C  C117  1  0.14915826  0.11044978  0.08575200  1  0  -0.088298  0  3.787634  0  0  -0.0973  0  4.029006  0  0  -0.09913  0  4.049883  0  -0.122914  0  -0.097011  -0.096038  0  4.014944  0
C  C118  1  0.35087608  0.11046361  0.58576098  1  0  -0.088503  0  3.787722  0  0  -0.097568  0  4.029165  0  0  -0.099404  0  4.050048  0  -0.124086  0  -0.097046  -0.096301  0  4.015092  0
C  C119  1  0.85083436  0.88954459  0.91424778  1  0  -0.088397  0  3.787456  0  0  -0.097388  0  4.028847  0  0  -0.099217  0  4.049722  0  -0.122765  0  -0.097002  -0.096123  0  4.014779  0
C  C120  1  0.81445307  0.81704136  0.38805261  1  0  -0.072679  0  3.789585  0  0  -0.08389  0  4.033736  0  0  -0.086135  0  4.056063  0  -0.082779  0  -0.093388  -0.082401  0  4.018631  0
C  C121  1  0.31448347  0.18295906  0.11194612  1  0  -0.072677  0  3.789572  0  0  -0.083936  0  4.033682  0  0  -0.086184  0  4.056016  0  -0.082179  0  -0.09336  -0.082466  0  4.018575  0
C  C122  1  0.18554117  0.18296684  0.61195450  1  0  -0.07283  0  3.789329  0  0  -0.084031  0  4.033472  0  0  -0.086283  0  4.055808  0  -0.081732  0  -0.093424  -0.082532  0  4.018373  0
C  C123  1  0.68550754  0.81704049  0.88805426  1  0  -0.072664  0  3.7893  0  0  -0.083913  0  4.03339  0  0  -0.08616  0  4.055719  0  -0.082071  0  -0.093349  -0.082437  0  4.018279  0
C  C124  1  0.77832263  0.69892739  0.37828315  1  0  -0.137201  0  3.755538  0  0  -0.153238  0  3.998294  0  0  -0.154736  0  4.016142  0  -0.069021  0  -0.092835  -0.152274  0  3.986452  0
C  C125  1  0.27836273  0.30107648  0.12171063  1  0  -0.137049  0  3.755518  0  0  -0.153028  0  3.998274  0  0  -0.154528  0  4.016116  0  -0.069583  0  -0.092759  -0.152066  0  3.986452  0
C  C126  1  0.22166191  0.30108772  0.62171793  1  0  -0.136855  0  3.755363  0  0  -0.152906  0  3.998023  0  0  -0.154417  0  4.015878  0  -0.068828  0  -0.092716  -0.151942  0  3.986183  0
C  C127  1  0.72163961  0.69891961  0.87828917  1  0  -0.137038  0  3.755206  0  0  -0.15307  0  3.99795  0  0  -0.15456  0  4.015787  0  -0.069472  0  -0.092741  -0.152108  0  3.986122  0
O  O128  1  0.83308956  0.45646525  0.43733376  1  0  -0.807534  0  2.008133  0  0  -0.754906  0  2.263776  0  0  -0.777465  0  2.257228  0  -1.264123  0  -0.53385  -0.738693  0  2.2677  0
O  O129  1  0.33310539  0.54353171  0.06265774  1  0  -0.807693  0  2.007992  0  0  -0.755054  0  2.263682  0  0  -0.777589  0  2.257081  0  -1.263751  0  -0.533941  -0.738839  0  2.267603  0
O  O130  1  0.16688526  0.54352566  0.56265658  1  0  -0.807756  0  2.007872  0  0  -0.755178  0  2.263666  0  0  -0.777693  0  2.257018  0  -1.263553  0  -0.533989  -0.738963  0  2.267591  0
O  O131  1  0.66687105  0.45646698  0.93734485  1  0  -0.807658  0  2.007973  0  0  -0.755043  0  2.263718  0  0  -0.777586  0  2.257131  0  -1.263552  0  -0.533933  -0.738826  0  2.267636  0
