# generated using pymatgen
data_Cd3H8C14(S3N5)2
_symmetry_space_group_name_H-M   'P 1'
_cell_length_a   6.75022615
_cell_length_b   9.24691853
_cell_length_c   10.78492686
_cell_angle_alpha   108.53829881
_cell_angle_beta   91.25829941
_cell_angle_gamma   104.04309100
_symmetry_Int_Tables_number   1
_chemical_formula_structural   Cd3H8C14(S3N5)2
_chemical_formula_sum   'Cd3 H8 C14 S6 N10'
_cell_volume   615.57149365
_cell_formula_units_Z   1
loop_
 _symmetry_equiv_pos_site_id
 _symmetry_equiv_pos_as_xyz
  1  'x, y, z'
loop_
 _atom_site_type_symbol
 _atom_site_label
 _atom_site_symmetry_multiplicity
 _atom_site_fract_x
 _atom_site_fract_y
 _atom_site_fract_z
 _atom_site_occupancy
 _atom_site_hle17_bader_spin_density
 _atom_site_hle17_ddec_charge
 _atom_site_hle17_ddec_spin_density
 _atom_site_hle17_ddec_sum_bond_order
 _atom_site_hle17_magmom
 _atom_site_hse06_10hf_bader_spin_density
 _atom_site_hse06_10hf_ddec_charge
 _atom_site_hse06_10hf_ddec_spin_density
 _atom_site_hse06_10hf_ddec_sum_bond_order
 _atom_site_hse06_10hf_magmom
 _atom_site_hse06_bader_spin_density
 _atom_site_hse06_ddec_charge
 _atom_site_hse06_ddec_spin_density
 _atom_site_hse06_ddec_sum_bond_order
 _atom_site_hse06_magmom
 _atom_site_pbe_bader_spin_density
 _atom_site_pbe_cm5_charge
 _atom_site_pbe_ddec_charge
 _atom_site_pbe_ddec_spin_density
 _atom_site_pbe_ddec_sum_bond_order
 _atom_site_pbe_magmom
Cd  Cd0  1  0.99999719  0.49999577  0.49999896  1  0  0.946674  0  2.035925  0  0  0.767518  0  2.505496  0  0  0.812018  0  2.467719  0  0  0.725629  0.737754  0  2.529492  0
Cd  Cd1  1  0.00000427  0.99999794  0.99999789  1  0  0.913048  0  2.075613  0  0  0.764834  0  2.533605  0  0  0.806097  0  2.500245  0  0  0.650162  0.736108  0  2.555464  0
Cd  Cd2  1  0.50000846  0.50000426  0.99999967  1  0  0.971373  0  1.985273  0  0  0.789075  0  2.450918  0  0  0.834456  0  2.414753  0  0  0.741933  0.758299  0  2.475138  0
H  H3  1  0.21070638  0.52553073  0.77857748  1  0  0.08012  0  0.933077  0  0  0.084608  0  1.00288  0  0  0.085999  0  1.000959  0  0  0.129385  0.083322  0  1.004552  0
H  H4  1  0.78930642  0.47447764  0.22142293  1  0  0.080092  0  0.933075  0  0  0.084615  0  1.002846  0  0  0.086007  0  1.000924  0  0  0.129391  0.083315  0  1.004535  0
H  H5  1  0.46031494  0.15160199  0.76084316  1  0  0.084602  0  0.950884  0  0  0.093527  0  1.014074  0  0  0.094953  0  1.012663  0  0  0.1173  0.092307  0  1.015173  0
H  H6  1  0.53968588  0.84840162  0.23916228  1  0  0.084666  0  0.950842  0  0  0.093577  0  1.014015  0  0  0.095005  0  1.012605  0  0  0.117336  0.092358  0  1.015115  0
H  H7  1  0.30907489  0.01368162  0.52397800  1  0  0.115774  0  0.968687  0  0  0.118327  0  1.038821  0  0  0.122101  0  1.038224  0  0  0.103305  0.115687  0  1.039397  0
H  H8  1  0.69092028  0.98631843  0.47603103  1  0  0.115669  0  0.968657  0  0  0.118271  0  1.038761  0  0  0.122047  0  1.038162  0  0  0.103274  0.115632  0  1.039336  0
H  H9  1  0.11683751  0.15943027  0.42131150  1  0  0.08663  0  0.929185  0  0  0.096494  0  0.992428  0  0  0.098104  0  0.990628  0  0  0.116506  0.095102  0  0.99393  0
H  H10  1  0.88316280  0.84056743  0.57869232  1  0  0.086568  0  0.929185  0  0  0.096431  0  0.992439  0  0  0.098041  0  0.990639  0  0  0.11646  0.095039  0  0.993942  0
C  C11  1  0.25773633  0.83506300  0.74969154  1  0  0.307627  0  4.00726  0  0  0.286412  0  4.314218  0  0  0.308281  0  4.329254  0  0  0.146879  0.271383  0  4.303695  0
C  C12  1  0.74226230  0.16492523  0.25029578  1  0  0.307613  0  4.00761  0  0  0.28639  0  4.314588  0  0  0.308257  0  4.329626  0  0  0.146861  0.271359  0  4.304069  0
C  C13  1  0.23974851  0.36320384  0.22593151  1  0  0.318547  0  3.956598  0  0  0.293691  0  4.263815  0  0  0.314967  0  4.277969  0  0  0.154156  0.279414  0  4.253712  0
C  C14  1  0.76023539  0.63678906  0.77405779  1  0  0.31862  0  3.956424  0  0  0.293763  0  4.263651  0  0  0.315036  0  4.277801  0  0  0.154204  0.279488  0  4.253546  0
C  C15  1  0.19377452  0.73636817  0.10033501  1  0  0.327638  0  3.966017  0  0  0.307869  0  4.267786  0  0  0.330671  0  4.280614  0  0  0.151811  0.292539  0  4.258266  0
C  C16  1  0.80623509  0.26363074  0.89966742  1  0  0.327377  0  3.965971  0  0  0.30761  0  4.267751  0  0  0.330419  0  4.280585  0  0  0.151616  0.292276  0  4.258228  0
C  C17  1  0.23537540  0.41216936  0.72057341  1  0  0.312767  0  3.679575  0  0  0.258389  0  3.945507  0  0  0.273811  0  3.959532  0  0  0.188728  0.248165  0  3.936321  0
C  C18  1  0.76462502  0.58783306  0.27942799  1  0  0.312886  0  3.679454  0  0  0.258499  0  3.945366  0  0  0.273921  0  3.95939  0  0  0.188767  0.248286  0  3.936188  0
C  C19  1  0.37138261  0.20444059  0.71066684  1  0  0.199272  0  3.638493  0  0  0.161713  0  3.887325  0  0  0.173249  0  3.903531  0  0  0.074739  0.154388  0  3.876718  0
C  C20  1  0.62861592  0.79556065  0.28933699  1  0  0.199128  0  3.638444  0  0  0.161652  0  3.88722  0  0  0.173187  0  3.903428  0  0  0.074704  0.154326  0  3.87662  0
C  C21  1  0.28918950  0.12909591  0.57986383  1  0  -0.161532  0  3.698535  0  0  -0.167801  0  3.949065  0  0  -0.179665  0  3.969386  0  0  -0.076225  -0.160763  0  3.936234  0
C  C22  1  0.71080893  0.87090061  0.42014150  1  0  -0.161346  0  3.698382  0  0  -0.167694  0  3.948927  0  0  -0.179557  0  3.969249  0  0  -0.076221  -0.160656  0  3.936096  0
C  C23  1  0.18200764  0.20792237  0.52413004  1  0  0.190934  0  3.660354  0  0  0.152633  0  3.914314  0  0  0.16467  0  3.929608  0  0  0.071226  0.144866  0  3.904345  0
C  C24  1  0.81799307  0.79207652  0.47587597  1  0  0.190966  0  3.660358  0  0  0.152659  0  3.914355  0  0  0.164696  0  3.929648  0  0  0.071295  0.144895  0  3.904381  0
S  S25  1  0.33463524  0.75241231  0.60844708  1  0  -0.342385  0  2.167049  0  0  -0.310727  0  2.498164  0  0  -0.328398  0  2.493594  0  0  -0.147139  -0.29761  0  2.500598  0
S  S26  1  0.66536428  0.24758301  0.39154681  1  0  -0.342441  0  2.166872  0  0  -0.310798  0  2.498013  0  0  -0.328472  0  2.49345  0  0  -0.147202  -0.297676  0  2.500449  0
S  S27  1  0.33515566  0.26128260  0.09955332  1  0  -0.306729  0  2.331727  0  0  -0.263973  0  2.692755  0  0  -0.283364  0  2.685695  0  0  -0.116016  -0.250833  0  2.697204  0
S  S28  1  0.66483992  0.73871862  0.90043933  1  0  -0.306811  0  2.33163  0  0  -0.264049  0  2.692636  0  0  -0.28344  0  2.68557  0  0  -0.116027  -0.25091  0  2.697088  0
S  S29  1  0.13050904  0.89399229  0.18897916  1  0  -0.345664  0  2.171231  0  0  -0.319027  0  2.498565  0  0  -0.337631  0  2.495173  0  0  -0.156579  -0.305644  0  2.499976  0
S  S30  1  0.86949663  0.10601251  0.81102110  1  0  -0.345436  0  2.17139  0  0  -0.318808  0  2.498737  0  0  -0.337413  0  2.495349  0  0  -0.156498  -0.305429  0  2.500145  0
N  N31  1  0.20551035  0.89682533  0.85277490  1  0  -0.526929  0  2.907284  0  0  -0.468212  0  3.178373  0  0  -0.490909  0  3.187522  0  0  -0.39689  -0.452424  0  3.171655  0
N  N32  1  0.79448047  0.10316170  0.14721383  1  0  -0.526853  0  2.907754  0  0  -0.468138  0  3.178829  0  0  -0.490834  0  3.187984  0  0  -0.396815  -0.452348  0  3.172112  0
N  N33  1  0.17514861  0.43675100  0.31902507  1  0  -0.504332  0  2.860256  0  0  -0.448713  0  3.134432  0  0  -0.468383  0  3.141062  0  0  -0.384934  -0.435112  0  3.129227  0
N  N34  1  0.82482895  0.56324071  0.68096845  1  0  -0.504323  0  2.860187  0  0  -0.44871  0  3.134359  0  0  -0.468378  0  3.140985  0  0  -0.384964  -0.435111  0  3.129153  0
N  N35  1  0.24141705  0.62149173  0.03842310  1  0  -0.530205  0  2.869445  0  0  -0.472471  0  3.142394  0  0  -0.494532  0  3.149631  0  0  -0.395726  -0.457241  0  3.13702  0
N  N36  1  0.75858973  0.37852962  0.96159002  1  0  -0.530193  0  2.869314  0  0  -0.472463  0  3.142285  0  0  -0.494527  0  3.149524  0  0  -0.395636  -0.45722  0  3.136891  0
N  N37  1  0.15481723  0.34887248  0.59481200  1  0  -0.360244  0  3.234555  0  0  -0.280949  0  3.497998  0  0  -0.303933  0  3.515692  0  0  -0.320594  -0.266161  0  3.485985  0
N  N38  1  0.84518468  0.65112995  0.40518849  1  0  -0.360325  0  3.23462  0  0  -0.281026  0  3.498064  0  0  -0.30401  0  3.515759  0  0  -0.320626  -0.266235  0  3.486041  0
N  N39  1  0.34529641  0.34632347  0.78039587  1  0  -0.361408  0  3.223321  0  0  -0.282462  0  3.48789  0  0  -0.306234  0  3.507203  0  0  -0.31877  -0.267431  0  3.475213  0
N  N40  1  0.65470846  0.65367897  0.21960838  1  0  -0.361435  0  3.223262  0  0  -0.282539  0  3.487837  0  0  -0.306315  0  3.507153  0  0  -0.318805  -0.267504  0  3.475151  0
