# generated using pymatgen
data_AgH14C8N3
_symmetry_space_group_name_H-M   'P 1'
_cell_length_a   9.83662099
_cell_length_b   9.83661042
_cell_length_c   12.58486745
_cell_angle_alpha   113.24979475
_cell_angle_beta   113.24984779
_cell_angle_gamma   89.41665414
_symmetry_Int_Tables_number   1
_chemical_formula_structural   AgH14C8N3
_chemical_formula_sum   'Ag4 H56 C32 N12'
_cell_volume   1012.54336308
_cell_formula_units_Z   4
loop_
 _symmetry_equiv_pos_site_id
 _symmetry_equiv_pos_as_xyz
  1  'x, y, z'
loop_
 _atom_site_type_symbol
 _atom_site_label
 _atom_site_symmetry_multiplicity
 _atom_site_fract_x
 _atom_site_fract_y
 _atom_site_fract_z
 _atom_site_occupancy
 _atom_site_hle17_bader_spin_density
 _atom_site_hle17_ddec_charge
 _atom_site_hle17_ddec_spin_density
 _atom_site_hle17_ddec_sum_bond_order
 _atom_site_hle17_magmom
 _atom_site_hse06_10hf_bader_spin_density
 _atom_site_hse06_10hf_ddec_charge
 _atom_site_hse06_10hf_ddec_spin_density
 _atom_site_hse06_10hf_ddec_sum_bond_order
 _atom_site_hse06_10hf_magmom
 _atom_site_hse06_bader_spin_density
 _atom_site_hse06_ddec_charge
 _atom_site_hse06_ddec_spin_density
 _atom_site_hse06_ddec_sum_bond_order
 _atom_site_hse06_magmom
 _atom_site_pbe_bader_spin_density
 _atom_site_pbe_cm5_charge
 _atom_site_pbe_ddec_charge
 _atom_site_pbe_ddec_spin_density
 _atom_site_pbe_ddec_sum_bond_order
 _atom_site_pbe_magmom
Ag  Ag0  1  0.21745848  0.51764483  0.97413744  1  0  0.430646  0  1.620786  0  0  0.283814  0  2.074953  0  0  0.311695  0  2.033265  0  0  0.48164  0.263182  0  2.103976  0
Ag  Ag1  1  0.48235240  0.78254235  0.02586274  1  0  0.430647  0  1.620831  0  0  0.283829  0  2.074985  0  0  0.311707  0  2.033294  0  0  0.481645  0.263198  0  2.104005  0
Ag  Ag2  1  0.70628808  0.50654945  0.47417625  1  0  0.430424  0  1.621423  0  0  0.283386  0  2.07621  0  0  0.311258  0  2.034454  0  0  0.481658  0.262762  0  2.105276  0
Ag  Ag3  1  0.49345249  0.29371370  0.52582515  1  0  0.430428  0  1.621436  0  0  0.283391  0  2.076215  0  0  0.311264  0  2.034462  0  0  0.481663  0.26277  0  2.10529  0
H  H4  1  0.19390343  0.67538258  0.81869958  1  0  0.042102  0  0.970696  0  0  0.049568  0  1.048615  0  0  0.052106  0  1.044954  0  0  0.086774  0.047695  0  1.051423  0
H  H5  1  0.32461462  0.80609775  0.18130060  1  0  0.042083  0  0.970696  0  0  0.04954  0  1.048603  0  0  0.052085  0  1.044936  0  0  0.086756  0.047671  0  1.0514  0
H  H6  1  0.39248660  0.37457785  0.31841674  1  0  0.042598  0  0.971023  0  0  0.049881  0  1.048233  0  0  0.052352  0  1.044684  0  0  0.086919  0.048105  0  1.050892  0
H  H7  1  0.62541626  0.60751685  0.68158185  1  0  0.04265  0  0.971028  0  0  0.049924  0  1.048216  0  0  0.052394  0  1.044668  0  0  0.08694  0.048134  0  1.050884  0
H  H8  1  0.98904212  0.60759390  0.53965177  1  0  0.074118  0  1.008861  0  0  0.091102  0  1.088168  0  0  0.093292  0  1.085839  0  0  0.071694  0.089546  0  1.089792  0
H  H9  1  0.39240260  0.01095705  0.46034642  1  0  0.07412  0  1.008872  0  0  0.091107  0  1.088182  0  0  0.093296  0  1.085854  0  0  0.071691  0.089549  0  1.08981  0
H  H10  1  0.18146046  0.30086926  0.03940622  1  0  0.074072  0  1.008817  0  0  0.090697  0  1.088645  0  0  0.092902  0  1.08629  0  0  0.071181  0.089122  0  1.0903  0
H  H11  1  0.69912766  0.81854240  0.96059141  1  0  0.074053  0  1.008863  0  0  0.090686  0  1.088685  0  0  0.092891  0  1.08633  0  0  0.071186  0.089108  0  1.090342  0
H  H12  1  0.14662224  0.52247310  0.59365655  1  0  0.10787  0  0.955382  0  0  0.127825  0  1.016207  0  0  0.128956  0  1.017729  0  0  0.088473  0.126935  0  1.015278  0
H  H13  1  0.47752182  0.85337994  0.40634329  1  0  0.107912  0  0.955396  0  0  0.127867  0  1.016213  0  0  0.128998  0  1.017734  0  0  0.088496  0.126976  0  1.015277  0
H  H14  1  0.32059580  0.19722791  0.09333161  1  0  0.108597  0  0.954582  0  0  0.128885  0  1.014862  0  0  0.130037  0  1.016354  0  0  0.088538  0.127954  0  1.013962  0
H  H15  1  0.80276448  0.67940786  0.90666577  1  0  0.108587  0  0.954581  0  0  0.12893  0  1.014796  0  0  0.130081  0  1.016287  0  0  0.088531  0.127987  0  1.013899  0
H  H16  1  0.17262327  0.71658602  0.62808490  1  0  0.092359  0  0.961954  0  0  0.11664  0  1.020129  0  0  0.117336  0  1.021289  0  0  0.085474  0.116039  0  1.019477  0
H  H17  1  0.28341190  0.82737693  0.37191596  1  0  0.092356  0  0.961915  0  0  0.116662  0  1.020066  0  0  0.117359  0  1.021224  0  0  0.085474  0.116056  0  1.01942  0
H  H18  1  0.16081654  0.20548596  0.12767785  1  0  0.093752  0  0.961781  0  0  0.117839  0  1.019742  0  0  0.118555  0  1.020872  0  0  0.086052  0.11717  0  1.019176  0
H  H19  1  0.79450916  0.83918416  0.87232016  1  0  0.093827  0  0.961826  0  0  0.117891  0  1.019814  0  0  0.118608  0  1.020944  0  0  0.086084  0.117222  0  1.019244  0
H  H20  1  0.11593028  0.90816500  0.79832927  1  0  0.097068  0  0.954684  0  0  0.121671  0  1.011102  0  0  0.122823  0  1.01158  0  0  0.08651  0.120706  0  1.011014  0
H  H21  1  0.09183045  0.88407350  0.20167102  1  0  0.097049  0  0.954644  0  0  0.121649  0  1.011068  0  0  0.12281  0  1.011536  0  0  0.086503  0.120687  0  1.010978  0
H  H22  1  0.13946689  0.43236423  0.29810759  1  0  0.097336  0  0.95405  0  0  0.121557  0  1.011049  0  0  0.122635  0  1.011624  0  0  0.086653  0.12059  0  1.011046  0
H  H23  1  0.56762974  0.86053449  0.70189015  1  0  0.09734  0  0.954121  0  0  0.121561  0  1.011118  0  0  0.122639  0  1.011691  0  0  0.086662  0.120596  0  1.011108  0
H  H24  1  0.03075303  0.85498208  0.88033516  1  0  0.093693  0  0.963584  0  0  0.113839  0  1.027173  0  0  0.115355  0  1.02692  0  0  0.084285  0.112689  0  1.027439  0
H  H25  1  0.14501757  0.96924957  0.11966288  1  0  0.09374  0  0.963487  0  0  0.113857  0  1.027118  0  0  0.115373  0  1.026867  0  0  0.084304  0.112708  0  1.027385  0
H  H26  1  0.27470345  0.59948796  0.38017853  1  0  0.093792  0  0.963697  0  0  0.114189  0  1.026967  0  0  0.115745  0  1.026645  0  0  0.084616  0.112953  0  1.027422  0
H  H27  1  0.40050624  0.72529968  0.61982061  1  0  0.093887  0  0.963789  0  0  0.114307  0  1.027  0  0  0.115853  0  1.026687  0  0  0.084665  0.113068  0  1.027461  0
H  H28  1  0.92355739  0.82096182  0.71756252  1  0  0.092144  0  0.964392  0  0  0.109919  0  1.035453  0  0  0.111749  0  1.034691  0  0  0.08264  0.108562  0  1.035988  0
H  H29  1  0.17903930  0.07644786  0.28243965  1  0  0.092148  0  0.964365  0  0  0.109932  0  1.035408  0  0  0.11176  0  1.03465  0  0  0.08264  0.108573  0  1.035952  0
H  H30  1  0.14599811  0.54405348  0.21740845  1  0  0.091536  0  0.9647  0  0  0.109166  0  1.036101  0  0  0.111008  0  1.035333  0  0  0.082238  0.107782  0  1.036688  0
H  H31  1  0.45594226  0.85400522  0.78258961  1  0  0.091659  0  0.96472  0  0  0.109268  0  1.036128  0  0  0.11111  0  1.03536  0  0  0.082278  0.107883  0  1.03672  0
H  H32  1  0.97745006  0.26949826  0.88686074  1  0  0.036113  0  0.944406  0  0  0.0564  0  0.9991  0  0  0.056501  0  0.999044  0  0  0.091506  0.056237  0  0.999556  0
H  H33  1  0.73049978  0.02255380  0.11313876  1  0  0.03609  0  0.944456  0  0  0.056397  0  0.999114  0  0  0.056498  0  0.999058  0  0  0.091512  0.056231  0  0.999569  0
H  H34  1  0.86714858  0.65883742  0.38696980  1  0  0.036521  0  0.94469  0  0  0.056773  0  0.99871  0  0  0.056894  0  0.998618  0  0  0.09136  0.056561  0  0.999242  0
H  H35  1  0.34116442  0.13285450  0.61303118  1  0  0.036517  0  0.944691  0  0  0.056749  0  0.998747  0  0  0.05688  0  0.998646  0  0  0.09135  0.056541  0  0.999276  0
H  H36  1  0.91038779  0.50568591  0.01647397  1  0  0.084258  0  0.97981  0  0  0.099959  0  1.057031  0  0  0.10211  0  1.054991  0  0  0.080879  0.098312  0  1.058716  0
H  H37  1  0.49430845  0.08961259  0.98352633  1  0  0.084241  0  0.9798  0  0  0.099934  0  1.057031  0  0  0.102087  0  1.054988  0  0  0.080875  0.098293  0  1.058715  0
H  H38  1  0.76047410  0.85509277  0.51666110  1  0  0.083625  0  0.979704  0  0  0.099027  0  1.057246  0  0  0.101139  0  1.05522  0  0  0.08064  0.097388  0  1.05899  0
H  H39  1  0.14490825  0.23952714  0.48333890  1  0  0.083628  0  0.979676  0  0  0.099028  0  1.057227  0  0  0.10114  0  1.055201  0  0  0.080642  0.097391  0  1.05897  0
H  H40  1  0.83265472  0.34294654  0.01573172  1  0  0.092283  0  0.965821  0  0  0.116337  0  1.024485  0  0  0.117046  0  1.025663  0  0  0.085027  0.115856  0  1.023618  0
H  H41  1  0.65704703  0.16734754  0.98426896  1  0  0.09225  0  0.96584  0  0  0.1163  0  1.024518  0  0  0.117008  0  1.025699  0  0  0.085021  0.115823  0  1.023645  0
H  H42  1  0.92240151  0.93263265  0.51615540  1  0  0.093191  0  0.965138  0  0  0.116735  0  1.024264  0  0  0.117472  0  1.025397  0  0  0.085628  0.116261  0  1.023395  0
H  H43  1  0.06737111  0.07760011  0.48384640  1  0  0.09318  0  0.965175  0  0  0.116731  0  1.024291  0  0  0.11747  0  1.025423  0  0  0.08563  0.116262  0  1.023418  0
H  H44  1  0.71627151  0.42780716  0.91919490  1  0  0.116118  0  0.941964  0  0  0.136692  0  0.999428  0  0  0.138176  0  1.000603  0  0  0.090968  0.13558  0  0.998684  0
H  H45  1  0.57218801  0.28372958  0.08080501  1  0  0.116107  0  0.941918  0  0  0.13668  0  0.999388  0  0  0.138165  0  1.00056  0  0  0.090962  0.135569  0  0.99865  0
H  H46  1  0.74089908  0.95225916  0.41960249  1  0  0.114988  0  0.940977  0  0  0.13557  0  0.998601  0  0  0.136991  0  0.999823  0  0  0.090777  0.134466  0  0.997876  0
H  H47  1  0.04774254  0.25910179  0.58039754  1  0  0.114966  0  0.940967  0  0  0.135536  0  0.998611  0  0  0.136958  0  0.999833  0  0  0.090766  0.13444  0  0.997882  0
H  H48  1  0.63897727  0.18127394  0.71228862  1  0  0.094094  0  0.971161  0  0  0.111449  0  1.043523  0  0  0.113485  0  1.042274  0  0  0.081131  0.109941  0  1.044448  0
H  H49  1  0.81872345  0.36102586  0.28771032  1  0  0.09411  0  0.971162  0  0  0.111445  0  1.043543  0  0  0.113479  0  1.042298  0  0  0.081145  0.10995  0  1.044459  0
H  H50  1  0.78113916  0.82321940  0.21274574  1  0  0.093742  0  0.970152  0  0  0.111109  0  1.042558  0  0  0.113241  0  1.041198  0  0  0.080655  0.109552  0  1.04355  0
H  H51  1  0.17678395  0.21886000  0.78725356  1  0  0.09378  0  0.970171  0  0  0.111153  0  1.042565  0  0  0.113285  0  1.041204  0  0  0.080667  0.109596  0  1.043558  0
H  H52  1  0.74642780  0.09206308  0.80855144  1  0  0.088634  0  0.963688  0  0  0.111315  0  1.024034  0  0  0.112203  0  1.024716  0  0  0.083958  0.110572  0  1.023791  0
H  H53  1  0.90793214  0.25357518  0.19144767  1  0  0.088628  0  0.963727  0  0  0.111311  0  1.024071  0  0  0.112202  0  1.024749  0  0  0.083956  0.110566  0  1.023833  0
H  H54  1  0.96656141  0.81200073  0.30915304  1  0  0.08808  0  0.962261  0  0  0.110845  0  1.02281  0  0  0.111746  0  1.023491  0  0  0.083448  0.110092  0  1.022572  0
H  H55  1  0.18800351  0.03344221  0.69084724  1  0  0.088144  0  0.962257  0  0  0.110906  0  1.022804  0  0  0.111811  0  1.023479  0  0  0.08348  0.110156  0  1.022564  0
H  H56  1  0.77995987  0.08470813  0.67726024  1  0  0.101552  0  0.964354  0  0  0.124866  0  1.023025  0  0  0.125698  0  1.024203  0  0  0.088654  0.123938  0  1.022776  0
H  H57  1  0.91529025  0.22004273  0.32273817  1  0  0.101522  0  0.964457  0  0  0.124862  0  1.023094  0  0  0.125695  0  1.024273  0  0  0.088676  0.123939  0  1.022839  0
H  H58  1  0.84280327  0.64725044  0.17760964  1  0  0.101468  0  0.963865  0  0  0.125123  0  1.02224  0  0  0.125945  0  1.023415  0  0  0.08855  0.1242  0  1.021975  0
H  H59  1  0.35274976  0.15719646  0.82238899  1  0  0.101509  0  0.963891  0  0  0.125174  0  1.022248  0  0  0.125987  0  1.023433  0  0  0.088571  0.124254  0  1.021978  0
C  C60  1  0.97960016  0.54848839  0.73489730  1  0  0.306753  0  3.707353  0  0  0.287838  0  3.957088  0  0  0.301209  0  3.977553  0  0  0.210077  0.278209  0  3.943359  0
C  C61  1  0.45150869  0.02039895  0.26510346  1  0  0.306766  0  3.70735  0  0  0.287852  0  3.957066  0  0  0.301224  0  3.97753  0  0  0.210085  0.278217  0  3.943345  0
C  C62  1  0.43602495  0.50525272  0.23487866  1  0  0.305275  0  3.709816  0  0  0.286098  0  3.95891  0  0  0.299522  0  3.979319  0  0  0.209272  0.27643  0  3.945393  0
C  C63  1  0.49474553  0.56397993  0.76512162  1  0  0.305308  0  3.709737  0  0  0.286144  0  3.958785  0  0  0.299566  0  3.979201  0  0  0.209332  0.276484  0  3.945258  0
C  C64  1  0.08316762  0.66786240  0.74413922  1  0  0.030711  0  3.688357  0  0  0.037435  0  3.917897  0  0  0.035678  0  3.934795  0  0  -0.083975  0.038688  0  3.906199  0
C  C65  1  0.33213947  0.91683209  0.25586508  1  0  0.030698  0  3.688411  0  0  0.037463  0  3.917882  0  0  0.035701  0  3.934779  0  0  -0.083972  0.038712  0  3.906184  0
C  C66  1  0.32566104  0.41099421  0.24397109  1  0  0.029478  0  3.688992  0  0  0.038001  0  3.916127  0  0  0.036278  0  3.932983  0  0  -0.084043  0.039198  0  3.904571  0
C  C67  1  0.58900570  0.67434549  0.75602942  1  0  0.029463  0  3.689092  0  0  0.038046  0  3.916141  0  0  0.036328  0  3.932993  0  0  -0.08405  0.039251  0  3.904585  0
C  C68  1  0.09906519  0.62569303  0.61911617  1  0  -0.295652  0  3.668666  0  0  -0.372923  0  3.902954  0  0  -0.376195  0  3.914641  0  0  -0.244705  -0.370434  0  3.894909  0
C  C69  1  0.37430416  0.90093396  0.38088415  1  0  -0.295707  0  3.668767  0  0  -0.37301  0  3.903036  0  0  -0.376287  0  3.914725  0  0  -0.244747  -0.370518  0  3.894996  0
C  C70  1  0.24279567  0.27017908  0.11882167  1  0  -0.297663  0  3.667399  0  0  -0.37516  0  3.901122  0  0  -0.378432  0  3.912697  0  0  -0.244662  -0.372674  0  3.893312  0
C  C71  1  0.72981898  0.75720877  0.88117844  1  0  -0.297686  0  3.667537  0  0  -0.375243  0  3.901257  0  0  -0.378515  0  3.91283  0  0  -0.244693  -0.37275  0  3.893437  0
C  C72  1  0.03502804  0.82210528  0.78769174  1  0  -0.306945  0  3.686504  0  0  -0.382912  0  3.918731  0  0  -0.385769  0  3.929491  0  0  -0.241873  -0.380497  0  3.911277  0
C  C73  1  0.17789534  0.96497485  0.21230908  1  0  -0.306954  0  3.686377  0  0  -0.382912  0  3.918603  0  0  -0.385775  0  3.929359  0  0  -0.241866  -0.380493  0  3.911157  0
C  C74  1  0.21494848  0.50265203  0.28751476  1  0  -0.306034  0  3.685457  0  0  -0.382323  0  3.917183  0  0  -0.385148  0  3.927955  0  0  -0.242128  -0.380029  0  3.910046  0
C  C75  1  0.49734127  0.78505627  0.71248462  1  0  -0.30632  0  3.685775  0  0  -0.382636  0  3.917485  0  0  -0.385447  0  3.928261  0  0  -0.242265  -0.380339  0  3.910349  0
C  C76  1  0.88554186  0.38815910  0.77613444  1  0  0.296751  0  3.738181  0  0  0.280421  0  3.997035  0  0  0.291947  0  4.016555  0  0  0.203382  0.273085  0  3.983133  0
C  C77  1  0.61184172  0.11445815  0.22386620  1  0  0.296666  0  3.738073  0  0  0.280392  0  3.996844  0  0  0.29192  0  4.016363  0  0  0.203374  0.273056  0  3.982936  0
C  C78  1  0.63777908  0.64021160  0.27616063  1  0  0.298364  0  3.734255  0  0  0.280717  0  3.993957  0  0  0.292193  0  4.013526  0  0  0.203548  0.273431  0  3.98002  0
C  C79  1  0.35978600  0.36222084  0.72383873  1  0  0.298342  0  3.73418  0  0  0.280668  0  3.993928  0  0  0.292142  0  4.013501  0  0  0.203516  0.273384  0  3.979993  0
C  C80  1  0.86704887  0.30038100  0.84498157  1  0  0.040298  0  3.695507  0  0  0.044278  0  3.929463  0  0  0.043222  0  3.946521  0  0  -0.081328  0.044915  0  3.917646  0
C  C81  1  0.69961777  0.13295416  0.15501465  1  0  0.040384  0  3.695576  0  0  0.044353  0  3.929506  0  0  0.043296  0  3.946567  0  0  -0.081347  0.044996  0  3.917681  0
C  C82  1  0.79443294  0.72746166  0.34517769  1  0  0.037125  0  3.697707  0  0  0.043206  0  3.928545  0  0  0.042152  0  3.945635  0  0  -0.081402  0.043855  0  3.916712  0
C  C83  1  0.27253775  0.20556385  0.65482288  1  0  0.037227  0  3.69769  0  0  0.043309  0  3.928544  0  0  0.042249  0  3.945637  0  0  -0.081374  0.043952  0  3.916719  0
C  C84  1  0.82924723  0.40019420  0.95564386  1  0  -0.313907  0  3.675954  0  0  -0.391278  0  3.914843  0  0  -0.394234  0  3.925091  0  0  -0.242917  -0.388804  0  3.90777  0
C  C85  1  0.59980175  0.17075347  0.04435783  1  0  -0.31388  0  3.676006  0  0  -0.39125  0  3.914925  0  0  -0.394207  0  3.92517  0  0  -0.242899  -0.388785  0  3.907847  0
C  C86  1  0.80513176  0.87573936  0.45594446  1  0  -0.311924  0  3.675433  0  0  -0.389085  0  3.914488  0  0  -0.391938  0  3.924758  0  0  -0.242986  -0.386722  0  3.907409  0
C  C87  1  0.12426214  0.19486877  0.54405627  1  0  -0.31191  0  3.675412  0  0  -0.38906  0  3.914471  0  0  -0.391917  0  3.924745  0  0  -0.242972  -0.386708  0  3.907392  0
C  C88  1  0.75154994  0.15597201  0.75528050  1  0  -0.304189  0  3.692756  0  0  -0.381126  0  3.928011  0  0  -0.383681  0  3.938621  0  0  -0.243797  -0.379058  0  3.92121  0
C  C89  1  0.84402425  0.24845193  0.24471777  1  0  -0.304183  0  3.692875  0  0  -0.381128  0  3.928143  0  0  -0.383686  0  3.938754  0  0  -0.243817  -0.379076  0  3.921334  0
C  C90  1  0.84939147  0.75356872  0.25570080  1  0  -0.302598  0  3.69137  0  0  -0.380556  0  3.925925  0  0  -0.383187  0  3.93648  0  0  -0.242699  -0.378485  0  3.919198  0
C  C91  1  0.24643334  0.15060845  0.74430000  1  0  -0.302754  0  3.691499  0  0  -0.380717  0  3.92605  0  0  -0.383343  0  3.936611  0  0  -0.242742  -0.378645  0  3.919321  0
N  N92  1  0.01099706  0.49066510  0.82221438  1  0  -0.490677  0  3.316493  0  0  -0.408085  0  3.612364  0  0  -0.433519  0  3.627086  0  0  -0.392459  -0.389782  0  3.601377  0
N  N93  1  0.50933417  0.98900225  0.17778825  1  0  -0.490607  0  3.31643  0  0  -0.408041  0  3.612289  0  0  -0.433476  0  3.627009  0  0  -0.392408  -0.389736  0  3.601296  0
N  N94  1  0.58115641  0.56101473  0.32224803  1  0  -0.490082  0  3.316431  0  0  -0.407418  0  3.612706  0  0  -0.432852  0  3.627455  0  0  -0.393236  -0.389325  0  3.60197  0
N  N95  1  0.43898510  0.41884659  0.67775379  1  0  -0.490159  0  3.316345  0  0  -0.407481  0  3.612611  0  0  -0.432916  0  3.627363  0  0  -0.393278  -0.38939  0  3.601877  0
N  N96  1  0.84232712  0.48402538  0.64077138  1  0  -0.295858  0  3.328231  0  0  -0.214628  0  3.617902  0  0  -0.234454  0  3.636442  0  0  -0.292539  -0.200205  0  3.604281  0
N  N97  1  0.51597525  0.15767032  0.35923152  1  0  -0.295913  0  3.328193  0  0  -0.214692  0  3.617879  0  0  -0.234518  0  3.636416  0  0  -0.292601  -0.200274  0  3.604271  0
N  N98  1  0.40658614  0.54834008  0.14075455  1  0  -0.295471  0  3.330652  0  0  -0.21435  0  3.620334  0  0  -0.23421  0  3.638881  0  0  -0.293152  -0.200038  0  3.606898  0
N  N99  1  0.45165880  0.59341807  0.85924648  1  0  -0.29546  0  3.330627  0  0  -0.214351  0  3.620317  0  0  -0.234208  0  3.638864  0  0  -0.293169  -0.200039  0  3.606883  0
N  N100  1  0.78223294  0.38136350  0.66647155  1  0  -0.309927  0  3.043416  0  0  -0.269913  0  3.319739  0  0  -0.282278  0  3.336311  0  0  -0.259091  -0.261022  0  3.308142  0
N  N101  1  0.61863757  0.21776584  0.33353034  1  0  -0.309875  0  3.043269  0  0  -0.269882  0  3.319575  0  0  -0.282246  0  3.336144  0  0  -0.25906  -0.260989  0  3.307979  0
N  N102  1  0.53506410  0.63393929  0.16646550  1  0  -0.310602  0  3.040255  0  0  -0.270429  0  3.316899  0  0  -0.282769  0  3.333468  0  0  -0.257822  -0.261499  0  3.305285  0
N  N103  1  0.36606129  0.46493647  0.83353494  1  0  -0.310604  0  3.040171  0  0  -0.27042  0  3.316837  0  0  -0.282762  0  3.333406  0  0  -0.25781  -0.261494  0  3.30523  0
