# generated using pymatgen
data_CoH16C15NO7
_symmetry_space_group_name_H-M   'P 1'
_cell_length_a   9.93189788
_cell_length_b   9.98340560
_cell_length_c   11.82062411
_cell_angle_alpha   65.68274305
_cell_angle_beta   61.92443684
_cell_angle_gamma   65.26492664
_symmetry_Int_Tables_number   1
_chemical_formula_structural   CoH16C15NO7
_chemical_formula_sum   'Co2 H32 C30 N2 O14'
_cell_volume   904.87376037
_cell_formula_units_Z   2
loop_
 _symmetry_equiv_pos_site_id
 _symmetry_equiv_pos_as_xyz
  1  'x, y, z'
loop_
 _atom_site_type_symbol
 _atom_site_label
 _atom_site_symmetry_multiplicity
 _atom_site_fract_x
 _atom_site_fract_y
 _atom_site_fract_z
 _atom_site_occupancy
 _atom_site_hle17_ddec_charge
 _atom_site_hle17_ddec_spin_density
 _atom_site_hle17_ddec_sum_bond_order
 _atom_site_hle17_magmom
 _atom_site_hse06_10hf_ddec_charge
 _atom_site_hse06_10hf_ddec_spin_density
 _atom_site_hse06_10hf_ddec_sum_bond_order
 _atom_site_hse06_10hf_magmom
 _atom_site_hse06_ddec_charge
 _atom_site_hse06_ddec_spin_density
 _atom_site_hse06_ddec_sum_bond_order
 _atom_site_hse06_magmom
 _atom_site_pbe_cm5_charge
 _atom_site_pbe_ddec_charge
 _atom_site_pbe_ddec_spin_density
 _atom_site_pbe_ddec_sum_bond_order
 _atom_site_pbe_magmom
Co  Co0  1  0.34668322  0.73680964  0.07336397  1  1.051919  2.865798  1.819321  2.599  1.013725  2.864586  2.217768  2.667  1.087236  2.895877  2.151947  2.736  0.655674  0.950744  2.838729  2.277286  2.607
Co  Co1  1  0.65332032  0.26319119  0.92663757  1  1.051877  2.865801  1.819269  2.599  1.013677  2.864593  2.217763  2.667  1.087207  2.895886  2.15192  2.736  0.655681  0.950695  2.838745  2.277291  2.607
H  H2  1  0.88089179  0.76515964  0.05512969  1  0.113034  0.000209  0.947578  0.0  0.120589  0.000263  1.011665  0.0  0.125558  0.000143  1.007388  0.0  0.106901  0.116773  0.00042  1.01503  0.0
H  H3  1  0.11911276  0.23483773  0.94487344  1  0.113035  0.000207  0.947623  0.0  0.12061  0.000263  1.01169  0.0  0.125547  0.000144  1.00745  0.0  0.106913  0.116792  0.00042  1.015057  0.0
H  H4  1  0.29932953  0.58951146  0.74751686  1  0.116069  4.9e-05  0.953799  0.0  0.12585  1.6e-05  1.018609  0.0  0.129528  4e-06  1.01594  0.0  0.108269  0.123346  5.9e-05  1.020113  0.0
H  H5  1  0.70067650  0.41049298  0.25247834  1  0.116084  4.8e-05  0.953723  0.0  0.125856  1.6e-05  1.018547  0.0  0.129534  4e-06  1.015877  0.0  0.108278  0.123353  5.9e-05  1.020051  0.0
H  H6  1  0.83696744  0.62329013  0.77822286  1  0.113132  0.000208  0.980177  0.0  0.124092  0.000183  1.043216  0.0  0.128082  0.000112  1.039874  0.0  0.108503  0.121238  0.000249  1.045345  0.0
H  H7  1  0.16304011  0.37670501  0.22177902  1  0.113093  0.000208  0.980142  0.0  0.124062  0.000183  1.043184  0.0  0.128057  0.000112  1.039834  0.0  0.108484  0.12121  0.00025  1.045313  0.0
H  H8  1  0.98980103  0.43043004  0.67859893  1  0.101204  -0.000132  0.938232  0.0  0.117628  -0.00013  1.002932  0.0  0.118946  -0.000135  1.001989  0.0  0.103265  0.116432  -0.000125  1.003903  0.0
H  H9  1  0.01020829  0.56956762  0.32139470  1  0.101199  -0.000131  0.938322  0.0  0.117652  -0.00013  1.002986  0.0  0.11897  -0.000134  1.002044  0.0  0.103274  0.116459  -0.000125  1.00396  0.0
H  H10  1  0.14928330  0.45362270  0.51902066  1  0.095779  6e-06  0.927983  0.0  0.117172  1.2e-05  0.984109  0.0  0.11753  5e-06  0.984063  0.0  0.107848  0.116904  1.9e-05  0.984185  0.0
H  H11  1  0.85072419  0.54638058  0.48097522  1  0.095743  7e-06  0.928022  0.0  0.117173  1.3e-05  0.984122  0.0  0.117534  6e-06  0.984073  0.0  0.107797  0.116903  1.9e-05  0.984199  0.0
H  H12  1  0.98747016  0.61654413  0.56184251  1  0.074876  -2.8e-05  0.943632  0.0  0.090971  -3e-05  1.01166  0.0  0.090799  -2.3e-05  1.012475  0.0  0.095385  0.091429  -4.7e-05  1.010846  0.0
H  H13  1  0.01253533  0.38345455  0.43815475  1  0.074938  -2.7e-05  0.943603  0.0  0.091038  -3e-05  1.011639  0.0  0.090865  -2.1e-05  1.012451  0.0  0.09539  0.091495  -4.7e-05  1.010826  0.0
H  H14  1  0.05242301  0.93744528  0.16478332  1  0.093441  0.000875  0.931864  0.002  0.102282  0.000777  0.990795  0.001  0.105465  0.000554  0.987378  0.001  0.122207  0.099324  0.000991  0.994176  0.002
H  H15  1  0.94756951  0.06255913  0.83521272  1  0.093539  0.000876  0.931774  0.002  0.102334  0.000777  0.990741  0.001  0.10552  0.000554  0.987323  0.001  0.122221  0.099376  0.000991  0.994122  0.002
H  H16  1  0.88411835  0.07441942  0.33774042  1  0.103497  0.000206  0.972423  0.0  0.113688  0.000248  1.032906  0.0  0.116855  0.000162  1.032124  0.0  0.104913  0.111038  0.000338  1.034062  0.0
H  H17  1  0.11587763  0.92558508  0.66225260  1  0.103529  0.000204  0.972483  0.0  0.113734  0.000248  1.032943  0.0  0.116902  0.000162  1.032161  0.0  0.104943  0.111085  0.000338  1.034103  0.0
H  H18  1  0.23807540  0.81401462  0.52157178  1  0.107891  0.000344  0.964643  0.0  0.120415  0.000342  1.021993  0.0  0.123657  0.000233  1.020669  0.0  0.106537  0.117682  0.000491  1.023581  0.001
H  H19  1  0.76190736  0.18598380  0.47843408  1  0.107939  0.000342  0.964548  0.0  0.120464  0.000342  1.021878  0.0  0.123706  0.000234  1.020556  0.0  0.106554  0.117731  0.000491  1.023468  0.001
H  H20  1  0.42488520  0.54220750  0.33892287  1  0.132115  -0.000707  0.94251  0.0  0.157073  -0.00042  0.998761  0.0  0.158966  -0.000374  0.997588  0.0  0.101326  0.154945  -0.000491  1.000125  0.0
H  H21  1  0.57509847  0.45779555  0.66108031  1  0.132129  -0.000709  0.942456  0.0  0.157065  -0.00042  0.998733  0.0  0.158984  -0.000374  0.997528  0.0  0.101312  0.154927  -0.000491  1.000103  0.0
H  H22  1  0.44493197  0.61737632  0.44169841  1  0.120029  -9.4e-05  0.951676  0.0  0.141462  -5.6e-05  1.012338  0.0  0.143617  -3.2e-05  1.011034  0.0  0.094187  0.139599  -6.2e-05  1.013558  0.0
H  H23  1  0.55504340  0.38262778  0.55830754  1  0.120017  -9.3e-05  0.951707  0.0  0.141488  -5.6e-05  1.012293  0.0  0.143658  -3.2e-05  1.01097  0.0  0.094173  0.139597  -6.2e-05  1.013543  0.0
H  H24  1  0.53134176  0.68082587  0.26482367  1  0.138547  -0.00104  0.965461  -0.001  0.156933  -0.000632  1.028878  0.0  0.1597  -0.000475  1.027247  0.0  0.098767  0.154072  -0.000822  1.030675  -0.001
H  H25  1  0.46864436  0.31917253  0.73518264  1  0.138623  -0.001042  0.965531  -0.001  0.15697  -0.000632  1.028977  0.0  0.159736  -0.000476  1.027353  0.0  0.098797  0.154108  -0.000822  1.030768  -0.001
H  H26  1  0.35714488  0.45183616  0.12232400  1  0.416505  -0.000542  0.880689  -0.001  0.387301  -7e-05  0.952805  0.0  0.398491  -0.000192  0.936434  0.0  0.290325  0.37911  1.6e-05  0.964664  0.0
H  H27  1  0.64285750  0.54816463  0.87767883  1  0.416485  -0.000542  0.880709  -0.001  0.387286  -7e-05  0.952816  0.0  0.398476  -0.000192  0.936445  0.0  0.290319  0.379094  1.6e-05  0.964675  0.0
H  H28  1  0.48434387  0.43068593  0.16967570  1  0.423006  -0.000378  0.878715  0.0  0.397053  1.5e-05  0.936361  0.0  0.407491  -9.2e-05  0.921242  0.0  0.289839  0.389548  0.000115  0.947118  0.0
H  H29  1  0.51566083  0.56931494  0.83032454  1  0.422988  -0.000379  0.878761  0.0  0.397027  1.5e-05  0.936414  0.0  0.407465  -9.3e-05  0.921295  0.0  0.289801  0.389521  0.000115  0.94717  0.0
H  H30  1  0.35436155  0.94256805  0.86152681  1  0.428648  -0.000493  0.820457  -0.001  0.413563  0.000229  0.870939  0.0  0.422584  -3.2e-05  0.861309  0.0  0.320115  0.407098  0.000485  0.877393  0.001
H  H31  1  0.64564342  0.05743160  0.13847627  1  0.42864  -0.000493  0.820395  -0.001  0.413561  0.000229  0.870881  0.0  0.422578  -3.4e-05  0.861251  0.0  0.320142  0.407098  0.000485  0.877334  0.001
H  H32  1  0.35168805  0.03782289  0.94659736  1  0.437461  0.000264  0.866609  0.001  0.406324  0.000567  0.929909  0.001  0.418491  0.000406  0.912646  0.001  0.290389  0.397665  0.000681  0.94199  0.002
H  H33  1  0.64831512  0.96217086  0.05341254  1  0.437509  0.000264  0.866547  0.001  0.406375  0.000568  0.929837  0.001  0.41854  0.000405  0.912577  0.001  0.290417  0.397716  0.000681  0.941919  0.002
C  C34  1  0.66430950  0.73772029  0.99290245  1  0.648362  -0.007274  3.864881  -0.005  0.599523  -0.002141  4.161427  -0.001  0.635294  -0.001049  4.154321  0.0  0.215966  0.575268  -0.002815  4.163436  -0.002
C  C35  1  0.33570041  0.26227012  0.00710516  1  0.64819  -0.007279  3.864807  -0.005  0.599344  -0.00214  4.161402  -0.001  0.635114  -0.001048  4.154306  0.0  0.215924  0.575102  -0.002815  4.163409  -0.002
C  C36  1  0.84072516  0.70046765  0.92212338  1  -0.045361  0.002977  3.781679  0.005  -0.019543  0.001186  4.018247  0.002  -0.026852  0.000767  4.041669  0.001  -0.019901  -0.015212  0.001539  4.002875  0.003
C  C37  1  0.15928006  0.29952741  0.07788109  1  -0.045237  0.002955  3.781556  0.005  -0.019426  0.001186  4.018114  0.002  -0.026739  0.000764  4.041539  0.001  -0.019906  -0.015136  0.00154  4.002798  0.003
C  C38  1  0.93457752  0.72067221  0.96900247  1  -0.088989  -0.000399  3.701698  0.0  -0.129958  0.000824  3.9565  0.001  -0.129762  0.00052  3.976147  0.001  -0.084735  -0.130529  0.000384  3.944289  0.001
C  C39  1  0.06542898  0.27932636  0.03099869  1  -0.089033  -0.000351  3.701647  0.0  -0.130004  0.000823  3.956416  0.001  -0.129785  0.00052  3.976088  0.001  -0.084762  -0.130557  0.000384  3.944207  0.001
C  C40  1  0.09983014  0.68209896  0.90465027  1  -0.04434  0.002848  3.79451  0.004  -0.017213  0.001114  4.029928  0.001  -0.023176  0.000604  4.051574  0.001  -0.017265  -0.013691  0.001648  4.015219  0.002
C  C41  1  0.90017429  0.31790313  0.09534713  1  -0.044248  0.002825  3.794304  0.004  -0.017141  0.001114  4.029718  0.001  -0.023105  0.000605  4.051354  0.001  -0.017224  -0.013618  0.001647  4.015009  0.002
C  C42  1  0.17068352  0.62091170  0.79627560  1  -0.178228  -0.004181  3.709091  -0.002  -0.218888  -0.001188  3.970904  0.0  -0.220384  -0.000564  3.987556  0.0  -0.093263  -0.216567  -0.00033  3.95768  0.0
C  C43  1  0.82932267  0.37908804  0.20372446  1  -0.178297  -0.004133  3.709058  -0.002  -0.218963  -0.001188  3.970842  0.0  -0.220457  -0.000568  3.987491  0.0  -0.093288  -0.216642  -0.00033  3.957622  0.0
C  C44  1  0.07687240  0.59602799  0.75227199  1  0.263091  0.000937  3.822441  0.002  0.257998  0.000118  4.086731  0.0  0.266859  0.000105  4.103926  0.0  0.083216  0.251951  0.000233  4.073414  0.0
C  C45  1  0.92313453  0.40396951  0.24772682  1  0.263063  0.000917  3.822567  0.002  0.258009  0.000119  4.086775  0.0  0.266876  0.000104  4.103966  0.0  0.083211  0.251963  0.000233  4.073458  0.0
C  C46  1  0.91137738  0.63921917  0.81306423  1  -0.186183  -0.004737  3.69906  -0.003  -0.222698  -0.001462  3.949447  -0.001  -0.224176  -0.000816  3.967501  0.0  -0.098517  -0.220517  -0.000578  3.935739  0.0
C  C47  1  0.08863249  0.36077605  0.18693507  1  -0.186131  -0.004696  3.699019  -0.003  -0.222658  -0.001463  3.949352  -0.001  -0.224134  -0.000814  3.967404  0.0  -0.098489  -0.220464  -0.000578  3.935656  0.0
C  C48  1  0.20362278  0.70455383  0.95036865  1  0.638428  -0.008377  3.887841  -0.007  0.592388  -0.001038  4.184088  -0.001  0.627637  -0.000465  4.179692  -0.001  0.202903  0.567619  -0.001732  4.184734  -0.002
C  C49  1  0.79638209  0.29545056  0.04962784  1  0.63836  -0.008376  3.887752  -0.007  0.592342  -0.001037  4.183982  -0.001  0.627594  -0.000462  4.179584  -0.001  0.20285  0.567575  -0.001732  4.184627  -0.002
C  C50  1  0.06376258  0.50593723  0.60066913  1  -0.081044  -3.7e-05  3.64359  0.0  -0.178029  -1.5e-05  3.908891  0.0  -0.17166  -1.1e-05  3.914033  0.0  -0.140529  -0.182276  -3e-05  3.904974  0.0
C  C51  1  0.93624756  0.49406495  0.39932526  1  -0.08111  -4.3e-05  3.643674  0.0  -0.178175  -1.5e-05  3.908988  0.0  -0.171806  -1.4e-05  3.91414  0.0  -0.140514  -0.182423  -3e-05  3.905071  0.0
C  C52  1  0.08835869  0.91277689  0.24694981  1  0.13798  -0.019356  3.703962  -0.012  0.109845  -0.005654  3.963603  -0.003  0.120341  -0.004435  3.978484  -0.003  0.04364  0.100776  -0.008067  3.957315  -0.004
C  C53  1  0.91163234  0.08722865  0.75304642  1  0.137788  -0.019425  3.703773  -0.012  0.109721  -0.005654  3.963417  -0.003  0.120204  -0.004437  3.978292  -0.003  0.043593  0.100648  -0.008066  3.957122  -0.004
C  C54  1  0.99455975  0.98939699  0.34499607  1  -0.163202  0.005963  3.726627  0.009  -0.184737  0.001748  3.976986  0.004  -0.192699  0.001905  3.996618  0.003  -0.089134  -0.180945  0.000664  3.967624  0.003
C  C55  1  0.00542982  0.01060970  0.65499948  1  -0.163164  0.005998  3.72684  0.01  -0.184774  0.001747  3.977133  0.004  -0.192736  0.001908  3.996768  0.003  -0.089136  -0.180985  0.000663  3.967772  0.003
C  C56  1  0.04640766  0.95939640  0.44732664  1  0.099609  -0.020704  3.76492  -0.012  0.110994  -0.009117  4.000228  -0.005  0.117711  -0.005477  4.0177  -0.003  0.006072  0.104871  -0.016561  3.991038  -0.009
C  C57  1  0.95358039  0.04061136  0.55267082  1  0.099487  -0.020776  3.765144  -0.012  0.111078  -0.009116  4.000242  -0.005  0.117793  -0.005474  4.017713  -0.003  0.006137  0.104947  -0.016559  3.99105  -0.009
C  C58  1  0.19120815  0.84686981  0.44438018  1  -0.206989  0.006284  3.6642  0.01  -0.232087  0.001739  3.900951  0.003  -0.239992  0.001752  3.918564  0.003  -0.084327  -0.228255  0.000702  3.892443  0.003
C  C59  1  0.80877639  0.15313447  0.55561973  1  -0.207141  0.006327  3.664163  0.01  -0.232206  0.00174  3.900896  0.003  -0.240116  0.00175  3.918501  0.003  -0.084439  -0.228376  0.000702  3.892386  0.003
C  C60  1  0.27881944  0.76972873  0.34514496  1  0.338553  -0.01909  3.690685  -0.012  0.348549  -0.0066  3.939333  -0.003  0.361288  -0.00492  3.955939  -0.003  0.129133  0.338018  -0.009698  3.930374  -0.005
C  C61  1  0.72116729  0.23027216  0.65485438  1  0.338673  -0.019152  3.69073  -0.012  0.348486  -0.0066  3.93964  -0.003  0.361227  -0.004932  3.956233  -0.003  0.129188  0.337954  -0.009696  3.930658  -0.005
C  C62  1  0.42883882  0.64529813  0.34830932  1  -0.389784  -0.00013  3.699488  0.002  -0.481653  -0.000376  3.942786  0.001  -0.484891  -0.000451  3.946948  0.001  -0.242531  -0.47826  -0.000296  3.94111  0.002
C  C63  1  0.57114851  0.35470037  0.65169396  1  -0.389943  -0.00013  3.699719  0.002  -0.481722  -0.000376  3.943  0.001  -0.484999  -0.000447  3.947136  0.001  -0.242564  -0.478295  -0.000296  3.941355  0.002
N  N64  1  0.22871273  0.80542287  0.24470606  1  -0.371192  0.041864  3.228351  0.071  -0.329431  0.028399  3.516902  0.042  -0.354396  0.022604  3.529022  0.034  -0.33107  -0.312256  0.032468  3.510651  0.048
N  N65  1  0.77127670  0.19458032  0.75529237  1  -0.371037  0.041892  3.228171  0.071  -0.329248  0.028397  3.516784  0.042  -0.354205  0.022602  3.528897  0.034  -0.331047  -0.312071  0.032468  3.510515  0.048
O  O66  1  0.59217974  0.83410999  0.06054476  1  -0.607113  0.002787  2.00917  0.005  -0.557203  0.003921  2.23215  0.007  -0.583026  0.002843  2.222417  0.005  -0.299018  -0.536598  0.005862  2.236547  0.01
O  O67  1  0.40783289  0.16587456  0.93946881  1  -0.60697  0.002786  2.009209  0.005  -0.557035  0.00392  2.232179  0.007  -0.582859  0.002843  2.22245  0.005  -0.298951  -0.536438  0.005861  2.236579  0.01
O  O68  1  0.58948260  0.66415249  0.98555104  1  -0.649522  0.037616  2.110086  0.063  -0.599545  0.027729  2.377583  0.042  -0.636406  0.020607  2.36643  0.03  -0.311961  -0.570666  0.034948  2.383815  0.053
O  O69  1  0.41052366  0.33584732  0.01444643  1  -0.649466  0.037615  2.110073  0.063  -0.599533  0.027728  2.377639  0.042  -0.636396  0.020611  2.366489  0.03  -0.311987  -0.570649  0.034947  2.383859  0.053
O  O70  1  0.15732527  0.52814636  0.65029282  1  -0.256102  0.000177  2.337724  0.0  -0.179043  4e-05  2.571314  0.0  -0.19797  4.9e-05  2.576414  0.0  -0.18953  -0.165175  -4e-05  2.566719  0.0
O  O71  1  0.84268232  0.47184883  0.34970734  1  -0.256086  0.000176  2.337706  0.0  -0.179024  4e-05  2.571283  0.0  -0.197959  4.7e-05  2.576391  0.0  -0.189504  -0.165156  -4e-05  2.566689  0.0
O  O72  1  0.15082431  0.71317739  0.06982457  1  -0.598822  0.049106  1.998247  0.086  -0.564375  0.033522  2.25664  0.055  -0.603734  0.023841  2.25096  0.04  -0.307973  -0.531102  0.044022  2.257514  0.072
O  O73  1  0.84918276  0.28682361  0.93017135  1  -0.598812  0.049106  1.998224  0.086  -0.564361  0.033523  2.256604  0.055  -0.603727  0.023838  2.250925  0.04  -0.307956  -0.531084  0.044021  2.257477  0.072
O  O74  1  0.34322428  0.71428063  0.87039824  1  -0.658349  0.017406  1.963604  0.032  -0.613009  0.014978  2.190098  0.026  -0.642508  0.010157  2.179366  0.018  -0.32582  -0.589904  0.019833  2.195904  0.033
O  O75  1  0.65678101  0.28572270  0.12959590  1  -0.658325  0.017406  1.963522  0.032  -0.612988  0.014978  2.190007  0.026  -0.642487  0.010159  2.179269  0.018  -0.325782  -0.589884  0.019833  2.19581  0.033
O  O76  1  0.37309849  0.49222990  0.17764760  1  -0.833041  0.021582  1.910522  0.044  -0.802607  0.0189  2.109876  0.035  -0.827487  0.014244  2.075184  0.028  -0.583335  -0.781316  0.023868  2.133893  0.042
O  O77  1  0.62690559  0.50777334  0.82234957  1  -0.833005  0.021583  1.910517  0.044  -0.802574  0.018902  2.109908  0.035  -0.827448  0.014245  2.075196  0.028  -0.5833  -0.781283  0.02387  2.133923  0.042
O  O78  1  0.31194391  0.95644524  0.95007506  1  -0.834901  0.030216  1.956686  0.052  -0.795446  0.02747  2.161462  0.041  -0.823052  0.022052  2.129426  0.034  -0.566483  -0.772222  0.032918  2.183565  0.049
O  O79  1  0.68805541  0.04355437  0.04992931  1  -0.834934  0.030214  1.956578  0.052  -0.79547  0.02747  2.161336  0.041  -0.823085  0.022052  2.129322  0.034  -0.566542  -0.772249  0.032916  2.18344  0.049
