# generated using pymatgen
data_KH4C9O6F
_symmetry_space_group_name_H-M   'P 1'
_cell_length_a   4.23758635
_cell_length_b   10.62502500
_cell_length_c   10.97055516
_cell_angle_alpha   89.99994334
_cell_angle_beta   90.00003494
_cell_angle_gamma   98.18479029
_symmetry_Int_Tables_number   1
_chemical_formula_structural   KH4C9O6F
_chemical_formula_sum   'K2 H8 C18 O12 F2'
_cell_volume   488.91205357
_cell_formula_units_Z   2
loop_
 _symmetry_equiv_pos_site_id
 _symmetry_equiv_pos_as_xyz
  1  'x, y, z'
loop_
 _atom_site_type_symbol
 _atom_site_label
 _atom_site_symmetry_multiplicity
 _atom_site_fract_x
 _atom_site_fract_y
 _atom_site_fract_z
 _atom_site_occupancy
 _atom_site_hle17_bader_spin_density
 _atom_site_hle17_ddec_charge
 _atom_site_hle17_ddec_spin_density
 _atom_site_hle17_ddec_sum_bond_order
 _atom_site_hle17_magmom
 _atom_site_hse06_10hf_bader_spin_density
 _atom_site_hse06_10hf_ddec_charge
 _atom_site_hse06_10hf_ddec_spin_density
 _atom_site_hse06_10hf_ddec_sum_bond_order
 _atom_site_hse06_10hf_magmom
 _atom_site_hse06_bader_spin_density
 _atom_site_hse06_ddec_charge
 _atom_site_hse06_ddec_spin_density
 _atom_site_hse06_ddec_sum_bond_order
 _atom_site_hse06_magmom
 _atom_site_pbe_bader_spin_density
 _atom_site_pbe_cm5_charge
 _atom_site_pbe_ddec_charge
 _atom_site_pbe_ddec_spin_density
 _atom_site_pbe_ddec_sum_bond_order
 _atom_site_pbe_magmom
K  K0  1  0.82748829  0.50597560  0.33254000  1  0  0.943437  0  0.415237  0  0  0.891371  0  0.592837  0  0  0.906992  0  0.569434  0  0  0.753525  0.879704  0  0.609608  0
K  K1  1  0.32748642  0.00597533  0.66745942  1  0  0.943447  0  0.415238  0  0  0.89139  0  0.592824  0  0  0.907007  0  0.569427  0  0  0.753529  0.879719  0  0.609595  0
H  H2  1  0.12548724  0.75976527  0.49830352  1  0  0.395145  0  0.903679  0  0  0.363224  0  0.983461  0  0  0.377149  0  0.969248  0  0  0.298812  0.353483  0  0.993341  0
H  H3  1  0.62548665  0.25976522  0.50169653  1  0  0.395127  0  0.903696  0  0  0.363207  0  0.983474  0  0  0.377132  0  0.969262  0  0  0.29881  0.353468  0  0.993353  0
H  H4  1  0.78158678  0.83141649  0.83687439  1  0  0.397745  0  0.910348  0  0  0.366618  0  0.984246  0  0  0.37973  0  0.965614  0  0  0.304588  0.357332  0  0.997416  0
H  H5  1  0.28158361  0.33141481  0.16312562  1  0  0.397743  0  0.910339  0  0  0.366605  0  0.984263  0  0  0.379717  0  0.965631  0  0  0.304589  0.357319  0  0.997433  0
H  H6  1  0.57089293  0.79009423  0.12977070  1  0  0.129136  0  0.929268  0  0  0.13674  0  0.989094  0  0  0.140903  0  0.985331  0  0  0.124178  0.133617  0  0.991959  0
H  H7  1  0.07088627  0.29009281  0.87022930  1  0  0.129157  0  0.92924  0  0  0.136746  0  0.989088  0  0  0.140921  0  0.985309  0  0  0.12421  0.133622  0  0.99195  0
H  H8  1  0.23593817  0.13454485  0.10928796  1  0  0.118614  0  0.951261  0  0  0.125873  0  1.01413  0  0  0.129947  0  1.010512  0  0  0.116791  0.122937  0  1.01669  0
H  H9  1  0.73593130  0.63454456  0.89071314  1  0  0.118634  0  0.951245  0  0  0.12583  0  1.014177  0  0  0.129904  0  1.01056  0  0  0.116798  0.122894  0  1.016737  0
C  C10  1  0.05897368  0.08332217  0.29018036  1  0  -0.183277  0  3.717026  0  0  -0.172742  0  3.972904  0  0  -0.185106  0  3.992743  0  0  -0.022198  -0.164989  0  3.959712  0
C  C11  1  0.55896860  0.58332111  0.70981984  1  0  -0.183201  0  3.716851  0  0  -0.172769  0  3.972858  0  0  -0.185131  0  3.992693  0  0  -0.022202  -0.165013  0  3.959662  0
C  C12  1  0.85431644  0.99173308  0.35552312  1  0  0.338285  0  3.687595  0  0  0.301835  0  3.974764  0  0  0.319409  0  3.981851  0  0  0.127902  0.290111  0  3.970064  0
C  C13  1  0.35431185  0.49173188  0.64447585  1  0  0.338257  0  3.687555  0  0  0.301801  0  3.974789  0  0  0.319376  0  3.981876  0  0  0.127873  0.290074  0  3.970086  0
C  C14  1  0.67107272  0.88768247  0.29924431  1  0  -0.192806  0  3.746888  0  0  -0.179619  0  3.997445  0  0  -0.192832  0  4.018207  0  0  -0.02108  -0.171302  0  3.983827  0
C  C15  1  0.17107057  0.38768122  0.70075471  1  0  -0.192879  0  3.747016  0  0  -0.179645  0  3.997496  0  0  -0.192862  0  4.01827  0  0  -0.02107  -0.171327  0  3.983877  0
C  C16  1  0.70518396  0.87289435  0.17345215  1  0  -0.014267  0  3.663435  0  0  -0.053079  0  3.913844  0  0  -0.046686  0  3.930799  0  0  -0.055249  -0.056828  0  3.902355  0
C  C17  1  0.20517791  0.37289488  0.82654872  1  0  -0.014246  0  3.663534  0  0  -0.053042  0  3.913966  0  0  -0.046655  0  3.930913  0  0  -0.055261  -0.056792  0  3.902472  0
C  C18  1  0.90636413  0.96194042  0.10549568  1  0  -0.083543  0  3.757602  0  0  -0.063765  0  3.999101  0  0  -0.076181  0  4.023756  0  0  -0.01648  -0.055891  0  3.982522  0
C  C19  1  0.40635345  0.46194088  0.89450515  1  0  -0.083526  0  3.757831  0  0  -0.063835  0  3.999386  0  0  -0.076245  0  4.024043  0  0  -0.016512  -0.055961  0  3.982807  0
C  C20  1  0.07878540  0.06681573  0.16397892  1  0  -0.020413  0  3.664708  0  0  -0.056246  0  3.912991  0  0  -0.050633  0  3.930709  0  0  -0.058756  -0.059361  0  3.900737  0
C  C21  1  0.57877138  0.56681550  0.83602130  1  0  -0.020464  0  3.664743  0  0  -0.056184  0  3.913075  0  0  -0.050573  0  3.930789  0  0  -0.058782  -0.059297  0  3.90081  0
C  C22  1  0.26687507  0.19199180  0.35193199  1  0  0.702926  0  3.84226  0  0  0.651286  0  4.145729  0  0  0.68625  0  4.135714  0  0  0.227051  0.627651  0  4.151907  0
C  C23  1  0.76687025  0.69199176  0.64806906  1  0  0.702855  0  3.842329  0  0  0.651233  0  4.145819  0  0  0.686197  0  4.135803  0  0  0.227053  0.627597  0  4.151994  0
C  C24  1  0.43598424  0.79119283  0.36278715  1  0  0.701117  0  3.810538  0  0  0.65259  0  4.109725  0  0  0.686838  0  4.100062  0  0  0.235155  0.62932  0  4.115886  0
C  C25  1  0.93598585  0.29119171  0.63721111  1  0  0.701143  0  3.810479  0  0  0.652615  0  4.10966  0  0  0.686856  0  4.100009  0  0  0.235157  0.629343  0  4.115819  0
C  C26  1  0.94316976  0.94573627  0.97142179  1  0  0.66912  0  3.820521  0  0  0.624604  0  4.112791  0  0  0.658043  0  4.103879  0  0  0.238799  0.601741  0  4.118654  0
C  C27  1  0.44316034  0.44573757  0.02857998  1  0  0.668978  0  3.820837  0  0  0.624525  0  4.113022  0  0  0.657951  0  4.104124  0  0  0.238766  0.601662  0  4.118887  0
O  O28  1  0.33359925  0.29773047  0.29660111  1  0  -0.679578  0  1.986675  0  0  -0.629752  0  2.215151  0  0  -0.654072  0  2.202408  0  0  -0.36742  -0.612636  0  2.223401  0
O  O29  1  0.83359214  0.79773037  0.70339803  1  0  -0.67952  0  1.986795  0  0  -0.629682  0  2.215239  0  0  -0.654009  0  2.20251  0  0  -0.367401  -0.612567  0  2.223488  0
O  O30  1  0.37346197  0.16995457  0.45717646  1  0  -0.625027  0  2.056245  0  0  -0.582446  0  2.298971  0  0  -0.606934  0  2.288814  0  0  -0.344361  -0.565505  0  2.305638  0
O  O31  1  0.87346410  0.66995463  0.54282464  1  0  -0.625027  0  2.056268  0  0  -0.582425  0  2.298967  0  0  -0.606913  0  2.28881  0  0  -0.344357  -0.565486  0  2.305634  0
O  O32  1  0.31537501  0.82955678  0.46486035  1  0  -0.58997  0  2.146707  0  0  -0.549058  0  2.38835  0  0  -0.571881  0  2.373982  0  0  -0.360688  -0.533285  0  2.397949  0
O  O33  1  0.81537413  0.32955575  0.53513968  1  0  -0.589954  0  2.146696  0  0  -0.54904  0  2.388338  0  0  -0.57186  0  2.373972  0  0  -0.360679  -0.533269  0  2.397936  0
O  O34  1  0.35557219  0.68500830  0.31650968  1  0  -0.637638  0  1.938992  0  0  -0.599656  0  2.165481  0  0  -0.621014  0  2.156701  0  0  -0.391561  -0.584779  0  2.171248  0
O  O35  1  0.85557555  0.18500523  0.68348867  1  0  -0.637649  0  1.93889  0  0  -0.599666  0  2.165363  0  0  -0.621021  0  2.156588  0  0  -0.391582  -0.58479  0  2.171129  0
O  O36  1  0.74243469  0.84840302  0.92758720  1  0  -0.564291  0  2.116604  0  0  -0.514204  0  2.325898  0  0  -0.536835  0  2.307276  0  0  -0.330984  -0.498379  0  2.338502  0
O  O37  1  0.24242499  0.34840332  0.07241370  1  0  -0.564271  0  2.116735  0  0  -0.514179  0  2.326003  0  0  -0.536815  0  2.307394  0  0  -0.330986  -0.498352  0  2.338608  0
O  O38  1  0.13989457  0.01498299  0.90941069  1  0  -0.593232  0  1.902744  0  0  -0.559049  0  2.115614  0  0  -0.578476  0  2.1054  0  0  -0.348804  -0.54581  0  2.122527  0
O  O39  1  0.63988366  0.51498158  0.09058868  1  0  -0.593124  0  1.90288  0  0  -0.55895  0  2.115702  0  0  -0.578374  0  2.105493  0  0  -0.348755  -0.545714  0  2.122622  0
F  F40  1  0.83658921  0.00310474  0.47806615  1  0  -0.211494  0  1.329182  0  0  -0.154555  0  1.515546  0  0  -0.164629  0  1.50572  0  0  -0.109223  -0.147153  0  1.522235  0
F  F41  1  0.33659153  0.50310287  0.52193328  1  0  -0.211468  0  1.32911  0  0  -0.154506  0  1.515465  0  0  -0.164582  0  1.50564  0  0  -0.109195  -0.147105  0  1.522155  0
