# generated using pymatgen
data_Mn2NbH12C12(N5O3)2
_symmetry_space_group_name_H-M   'P 1'
_cell_length_a   9.88177656
_cell_length_b   9.87291216
_cell_length_c   12.37101556
_cell_angle_alpha   80.16368626
_cell_angle_beta   80.16535152
_cell_angle_gamma   83.16600955
_symmetry_Int_Tables_number   1
_chemical_formula_structural   Mn2NbH12C12(N5O3)2
_chemical_formula_sum   'Mn4 Nb2 H24 C24 N20 O12'
_cell_volume   1166.69721563
_cell_formula_units_Z   2
loop_
 _symmetry_equiv_pos_site_id
 _symmetry_equiv_pos_as_xyz
  1  'x, y, z'
loop_
 _atom_site_type_symbol
 _atom_site_label
 _atom_site_symmetry_multiplicity
 _atom_site_fract_x
 _atom_site_fract_y
 _atom_site_fract_z
 _atom_site_occupancy
 _atom_site_pbe_bader_charge
 _atom_site_pbe_bader_spin_density
 _atom_site_pbe_cm5_charge
 _atom_site_pbe_ddec_charge
 _atom_site_pbe_ddec_spin_density
 _atom_site_pbe_ddec_sum_bond_order
 _atom_site_pbe_magmom
Mn  Mn0  1  0.69161582  0.74621900  0.90694205  1  1.541101  4.33268  0.734857  0.982397  4.491287  2.62796  4.253
Mn  Mn1  1  0.25387193  0.30809664  0.59318275  1  1.541362  4.334964  0.73399  0.982183  4.494002  2.624101  4.255
Mn  Mn2  1  0.30838326  0.25378525  0.09304516  1  1.540936  4.332709  0.73489  0.982456  4.491244  2.627999  4.253
Mn  Mn3  1  0.74612796  0.69192458  0.40681195  1  1.54135  4.334963  0.73407  0.982491  4.494013  2.623645  4.255
Nb  Nb4  1  0.73198935  0.26793942  0.75006065  1  2.066777  -0.452955  0.975391  0.801008  -0.522035  5.044516  -0.413
Nb  Nb5  1  0.26801459  0.73205891  0.24993565  1  2.066481  -0.452922  0.975339  0.800929  -0.521999  5.044465  -0.413
H  H6  1  0.94754800  0.73519615  0.98371781  1  0.625703  0.002653  0.309186  0.395511  0.001775  0.912625  0.003
H  H7  1  0.82691004  0.80448416  0.06158331  1  0.652278  0.000993  0.289898  0.393015  0.001122  0.945849  0.002
H  H8  1  0.01656835  0.82547595  0.58792529  1  0.641468  6.5e-05  0.288862  0.375566  -7e-05  0.958215  0.0
H  H9  1  0.90216151  0.85180105  0.69013386  1  0.601277  0.000179  0.299554  0.370377  -8.8e-05  0.957343  0.0
H  H10  1  0.51884492  0.77275783  0.60725963  1  0.209996  0.000633  0.146198  0.153114  -6.2e-05  0.988883  0.0
H  H11  1  0.38305821  0.64328658  0.94333186  1  0.172607  0.00059  0.141579  0.139855  0.000364  1.009021  0.0
H  H12  1  0.26469995  0.05253865  0.51652520  1  0.62477  0.002621  0.309055  0.394909  0.001756  0.913292  0.003
H  H13  1  0.19546845  0.17293844  0.43837936  1  0.6519  0.001003  0.289887  0.393287  0.001122  0.94564  0.002
H  H14  1  0.17434864  0.98370900  0.91220754  1  0.631428  7e-05  0.288709  0.375238  -7.1e-05  0.958725  0.0
H  H15  1  0.14827717  0.09789665  0.80982078  1  0.602261  0.000181  0.299301  0.369931  -6.9e-05  0.957991  0.0
H  H16  1  0.22715974  0.48155844  0.89270588  1  0.209793  0.000636  0.146422  0.152988  -5.9e-05  0.988521  0.0
H  H17  1  0.35694948  0.61703350  0.55661405  1  0.169901  0.000588  0.141589  0.139819  0.000358  1.008907  0.0
H  H18  1  0.05245263  0.26481180  0.01628146  1  0.625717  0.002652  0.309225  0.395601  0.001774  0.91252  0.003
H  H19  1  0.17309809  0.19553559  0.93840943  1  0.652233  0.000993  0.289874  0.39289  0.001122  0.946044  0.002
H  H20  1  0.98343180  0.17446366  0.41207600  1  0.641477  6.5e-05  0.288856  0.375496  -7.1e-05  0.95833  0.0
H  H21  1  0.09783964  0.14813632  0.30986521  1  0.600554  0.00018  0.299546  0.370439  -9e-05  0.95725  0.0
H  H22  1  0.48114369  0.22724784  0.39274613  1  0.209826  0.000633  0.146242  0.153163  -6.2e-05  0.988877  0.0
H  H23  1  0.61692767  0.35670881  0.05667369  1  0.1726  0.000591  0.141539  0.139827  0.000364  1.009021  0.0
H  H24  1  0.73529277  0.94747757  0.48350640  1  0.625196  0.002617  0.309024  0.394958  0.001755  0.913241  0.003
H  H25  1  0.80450581  0.82704321  0.56163213  1  0.652111  0.001001  0.289895  0.393458  0.001122  0.94539  0.002
H  H26  1  0.82571812  0.01632507  0.08778651  1  0.630496  7e-05  0.288775  0.375307  -7.1e-05  0.958597  0.0
H  H27  1  0.85180400  0.90214639  0.19017738  1  0.602041  0.000181  0.29928  0.369915  -7e-05  0.958011  0.0
H  H28  1  0.77282473  0.51843771  0.10729330  1  0.209661  0.000635  0.146425  0.152945  -5.9e-05  0.988517  0.0
H  H29  1  0.64303271  0.38297437  0.44338919  1  0.16828  0.000592  0.141582  0.139912  0.000357  1.008828  0.0
C  C30  1  0.74688585  0.04289043  0.79364684  1  0.7433  0.051525  0.028953  -0.010908  0.054275  3.617792  0.063
C  C31  1  0.81801225  0.21310920  0.91070878  1  0.727533  0.00971  0.009974  -0.038432  0.013633  3.699705  0.011
C  C32  1  0.74046592  0.44818962  0.61598809  1  0.731934  0.049475  0.024672  -0.026097  0.050307  3.665394  0.056
C  C33  1  0.73504292  0.45926624  0.81854033  1  0.747815  0.054242  0.024841  -0.014774  0.055973  3.670249  0.065
C  C34  1  0.45123787  0.70830761  0.66841339  1  0.399384  0.012905  0.05941  -0.048914  0.010327  3.823627  0.006
C  C35  1  0.37637212  0.63443011  0.85827540  1  0.447489  0.017036  0.054022  -0.06316  0.013627  3.85931  0.009
C  C36  1  0.95691333  0.25312762  0.70657184  1  0.738504  0.051328  0.028563  -0.011867  0.053953  3.616616  0.062
C  C37  1  0.78680106  0.18180790  0.58941524  1  0.725743  0.009678  0.010046  -0.038627  0.013601  3.698589  0.011
C  C38  1  0.55185805  0.25952390  0.88404737  1  0.732782  0.049968  0.025121  -0.025542  0.050746  3.665173  0.057
C  C39  1  0.54078978  0.26492746  0.68155462  1  0.750183  0.053818  0.024935  -0.014502  0.05562  3.66887  0.065
C  C40  1  0.29178742  0.54901993  0.83155730  1  0.402423  0.012972  0.059755  -0.048391  0.0104  3.823676  0.007
C  C41  1  0.36582862  0.62371887  0.64167340  1  0.450297  0.01709  0.05449  -0.062539  0.013679  3.858491  0.009
C  C42  1  0.25310898  0.95710851  0.20635415  1  0.743192  0.051553  0.029042  -0.010845  0.054297  3.617588  0.063
C  C43  1  0.18199783  0.78689417  0.08928965  1  0.727768  0.009709  0.010004  -0.038535  0.013631  3.699813  0.011
C  C44  1  0.25954576  0.55180135  0.38399275  1  0.732614  0.04946  0.024773  -0.025978  0.050311  3.665714  0.056
C  C45  1  0.26495927  0.54072711  0.18145873  1  0.747646  0.054255  0.024853  -0.01474  0.055977  3.670115  0.065
C  C46  1  0.54873703  0.29170053  0.33158943  1  0.40028  0.012895  0.059342  -0.049012  0.010319  3.823847  0.006
C  C47  1  0.62360457  0.36555935  0.14172868  1  0.447064  0.017035  0.054032  -0.063054  0.013623  3.859156  0.009
C  C48  1  0.04309660  0.74685944  0.29343183  1  0.739199  0.051317  0.028641  -0.011612  0.053948  3.616507  0.062
C  C49  1  0.21319281  0.81816316  0.41058743  1  0.726586  0.009678  0.009967  -0.03873  0.013601  3.698887  0.011
C  C50  1  0.44815749  0.74047523  0.11595329  1  0.732816  0.049958  0.025106  -0.025593  0.050744  3.66536  0.057
C  C51  1  0.45921755  0.73508179  0.31843518  1  0.749908  0.053853  0.024959  -0.01468  0.055644  3.668768  0.065
C  C52  1  0.70819896  0.45098135  0.16844230  1  0.403581  0.012973  0.059774  -0.04835  0.010404  3.823239  0.007
C  C53  1  0.63414731  0.37628815  0.35832863  1  0.451344  0.017082  0.054507  -0.062652  0.013675  3.858407  0.009
N  N54  1  0.76491734  0.92278427  0.82008594  1  -1.421467  0.002815  -0.380197  -0.36075  -0.023078  3.394405  -0.047
N  N55  1  0.86419666  0.18520611  0.99399417  1  -1.346275  -0.001414  -0.351958  -0.371527  -0.002958  3.05841  -0.001
N  N56  1  0.74463854  0.54346467  0.54472721  1  -1.392317  0.01764  -0.367536  -0.345562  -0.007611  3.370938  -0.032
N  N57  1  0.73344598  0.55891323  0.85892501  1  -1.414522  0.007026  -0.380012  -0.358232  -0.021432  3.384281  -0.047
N  N58  1  0.45580913  0.71548363  0.77700874  1  -0.609097  0.031468  -0.094112  0.338923  0.024241  3.961926  0.026
N  N59  1  0.07692928  0.23528729  0.68001003  1  -1.416732  0.002588  -0.379253  -0.35981  -0.02313  3.392011  -0.047
N  N60  1  0.81475794  0.13602382  0.50593780  1  -1.34428  -0.001441  -0.352047  -0.371381  -0.002977  3.058009  -0.001
N  N61  1  0.45663928  0.25531685  0.95528986  1  -1.392328  0.017381  -0.368284  -0.346117  -0.007902  3.372376  -0.032
N  N62  1  0.44122777  0.26650516  0.64116492  1  -1.417244  0.006986  -0.379768  -0.358601  -0.021446  3.382144  -0.047
N  N63  1  0.28475355  0.54429016  0.72295495  1  -0.610095  0.031489  -0.094656  0.338529  0.024248  3.961566  0.026
N  N64  1  0.23508697  0.07722089  0.17990265  1  -1.421323  0.002789  -0.380291  -0.360852  -0.023098  3.39429  -0.047
N  N65  1  0.13581819  0.81480633  0.00600272  1  -1.346453  -0.001414  -0.352031  -0.371461  -0.002958  3.058421  -0.001
N  N66  1  0.25535345  0.45653467  0.45525962  1  -1.39291  0.017642  -0.367612  -0.345571  -0.007619  3.371245  -0.032
N  N67  1  0.26654121  0.44107700  0.14108200  1  -1.414285  0.007033  -0.380012  -0.358275  -0.021418  3.384214  -0.047
N  N68  1  0.54417246  0.28451827  0.22299886  1  -0.609267  0.031452  -0.094033  0.339041  0.024228  3.962315  0.026
N  N69  1  0.92308472  0.76470707  0.31999737  1  -1.417442  0.002614  -0.379335  -0.360054  -0.023116  3.392085  -0.047
N  N70  1  0.18522073  0.86395685  0.49405853  1  -1.345145  -0.001439  -0.352031  -0.371374  -0.002976  3.058011  -0.001
N  N71  1  0.54337419  0.74467805  0.04470783  1  -1.392483  0.01739  -0.368234  -0.346025  -0.007903  3.372549  -0.032
N  N72  1  0.55878600  0.73351483  0.35881710  1  -1.41693  0.006981  -0.379789  -0.358423  -0.021458  3.38191  -0.047
N  N73  1  0.71522443  0.45571782  0.27704737  1  -0.610674  0.031482  -0.094583  0.338467  0.02424  3.960963  0.026
O  O74  1  0.84965549  0.72763199  0.01353678  1  -1.269194  0.072533  -0.561418  -0.758512  0.052901  2.107444  0.041
O  O75  1  0.92850580  0.79518641  0.63094289  1  -1.227878  0.002822  -0.566862  -0.723399  0.001759  1.990733  0.001
O  O76  1  0.53459448  0.79975914  0.80083672  1  -0.596895  0.060032  -0.197753  -0.429366  0.043594  2.068519  0.033
O  O77  1  0.27243047  0.15038544  0.48630789  1  -1.267273  0.072549  -0.560873  -0.757556  0.052926  2.108338  0.041
O  O78  1  0.20518026  0.07142246  0.86878312  1  -1.219079  0.00286  -0.566685  -0.722864  0.001798  1.990367  0.001
O  O79  1  0.20066156  0.46528938  0.69914535  1  -0.595331  0.060011  -0.197742  -0.429239  0.043591  2.068841  0.033
O  O80  1  0.15034097  0.27239120  0.98645332  1  -1.269031  0.072518  -0.561454  -0.758529  0.052907  2.107514  0.041
O  O81  1  0.07149660  0.20474898  0.36905873  1  -1.227157  0.00282  -0.566851  -0.72334  0.001759  1.990908  0.001
O  O82  1  0.46538933  0.20024389  0.19917436  1  -0.597131  0.060024  -0.197777  -0.429387  0.043595  2.068495  0.033
O  O83  1  0.72754382  0.84962748  0.51370637  1  -1.267628  0.072489  -0.560903  -0.757841  0.052921  2.10795  0.041
O  O84  1  0.79489317  0.92861286  0.13122010  1  -1.217941  0.002859  -0.566838  -0.723018  0.001798  1.990277  0.001
O  O85  1  0.79931457  0.53473185  0.30085098  1  -0.595169  0.060038  -0.197893  -0.429341  0.043603  2.068427  0.033
