# generated using pymatgen
data_CoH18C20(N4O3)2
_symmetry_space_group_name_H-M   'P 1'
_cell_length_a   8.02303475
_cell_length_b   8.20353399
_cell_length_c   10.09894018
_cell_angle_alpha   85.94989181
_cell_angle_beta   75.95446486
_cell_angle_gamma   62.87714312
_symmetry_Int_Tables_number   1
_chemical_formula_structural   CoH18C20(N4O3)2
_chemical_formula_sum   'Co1 H18 C20 N8 O6'
_cell_volume   573.28636763
_cell_formula_units_Z   1
loop_
 _symmetry_equiv_pos_site_id
 _symmetry_equiv_pos_as_xyz
  1  'x, y, z'
loop_
 _atom_site_type_symbol
 _atom_site_label
 _atom_site_symmetry_multiplicity
 _atom_site_fract_x
 _atom_site_fract_y
 _atom_site_fract_z
 _atom_site_occupancy
 _atom_site_hse06_10hf_ddec_charge
 _atom_site_hse06_10hf_ddec_spin_density
 _atom_site_hse06_10hf_ddec_sum_bond_order
 _atom_site_hse06_10hf_magmom
 _atom_site_hse06_ddec_charge
 _atom_site_hse06_ddec_spin_density
 _atom_site_hse06_ddec_sum_bond_order
 _atom_site_hse06_magmom
 _atom_site_pbe_cm5_charge
 _atom_site_pbe_ddec_charge
 _atom_site_pbe_ddec_spin_density
 _atom_site_pbe_ddec_sum_bond_order
 _atom_site_pbe_magmom
Co  Co0  1  0.00000288  0.99999678  0.99999828  1  0.94368  1.009622  3.202103  0.921  0.989495  1.018339  3.133206  0.943  0.817859  0.915398  0.993439  3.245602  0.891
H  H1  1  0.08292782  0.57813513  0.80751857  1  0.083926  -7e-05  1.004852  0.0  0.084008  -6.6e-05  1.005397  0.0  0.106227  0.083776  -6.9e-05  1.004669  0.0
H  H2  1  0.91707818  0.42186212  0.19248572  1  0.083892  -7e-05  1.004951  0.0  0.083974  -6.6e-05  1.005495  0.0  0.106223  0.083743  -6.8e-05  1.004767  0.0
H  H3  1  0.11235849  0.35583826  0.76566847  1  0.076156  -4.7e-05  0.998723  0.0  0.075934  -4.7e-05  0.999245  0.0  0.103826  0.076458  -4.6e-05  0.998177  0.0
H  H4  1  0.88764696  0.64415474  0.23433027  1  0.076152  -4.7e-05  0.998825  0.0  0.075929  -4.8e-05  0.999347  0.0  0.103829  0.076453  -4.6e-05  0.998281  0.0
H  H5  1  0.24140213  0.37852162  0.52436900  1  0.097556  -1.9e-05  1.028333  0.0  0.098148  -1.4e-05  1.029277  0.0  0.094959  0.097179  -2.3e-05  1.027606  0.0
H  H6  1  0.75859605  0.62148375  0.47563230  1  0.097558  -1.9e-05  1.02833  0.0  0.09815  -1.4e-05  1.029276  0.0  0.094946  0.09718  -2.3e-05  1.027606  0.0
H  H7  1  0.32198516  0.62558675  0.43570912  1  0.056467  -4e-06  0.996571  0.0  0.056357  -6e-06  0.99633  0.0  0.095269  0.056577  2e-06  0.996701  0.0
H  H8  1  0.67801441  0.37441304  0.56428832  1  0.056481  -4e-06  0.996543  0.0  0.056375  -6e-06  0.996297  0.0  0.095274  0.05659  2e-06  0.996678  0.0
H  H9  1  0.37737495  0.41003597  0.62505405  1  0.105323  -4e-06  0.998017  0.0  0.10566  -1e-06  0.998766  0.0  0.098382  0.105115  -6e-06  0.997391  0.0
H  H10  1  0.62261942  0.58996923  0.37494108  1  0.105248  -4e-06  0.998035  0.0  0.105588  -1e-06  0.998783  0.0  0.09833  0.105039  -6e-06  0.997408  0.0
H  H11  1  0.06823678  0.71379399  0.49752323  1  0.050595  8e-06  1.012604  0.0  0.051922  6e-06  1.010784  0.0  0.089068  0.049608  1.6e-05  1.013961  0.0
H  H12  1  0.93176214  0.28620712  0.50247128  1  0.050593  8e-06  1.012668  0.0  0.051918  6e-06  1.010852  0.0  0.089078  0.049606  1.6e-05  1.014026  0.0
H  H13  1  0.98959861  0.11079864  0.25564079  1  0.378398  0.000102  0.96482  0.0  0.389184  -4.1e-05  0.949501  0.0  0.286503  0.370791  0.000241  0.97549  0.0
H  H14  1  0.01040608  0.88920120  0.74435565  1  0.378369  0.000102  0.964861  0.0  0.389155  -4.1e-05  0.949542  0.0  0.286467  0.37076  0.000241  0.975534  0.0
H  H15  1  0.24117812  0.86919352  0.56489282  1  0.334258  -2.1e-05  1.020001  0.0  0.344458  -2.1e-05  1.005006  0.0  0.290383  0.327171  -2.1e-05  1.03042  0.0
H  H16  1  0.75882521  0.13081176  0.43510054  1  0.33413  -2.1e-05  1.020164  0.0  0.344328  -2.1e-05  1.005172  0.0  0.290361  0.327044  -2.1e-05  1.030582  0.0
H  H17  1  0.20947421  0.96309419  0.18519681  1  0.3789  2.1e-05  0.957471  0.0  0.387467  -0.000132  0.945207  0.0  0.289922  0.372968  0.00018  0.965884  0.0
H  H18  1  0.79052540  0.03690289  0.81480280  1  0.378919  2.1e-05  0.957434  0.0  0.387485  -0.000132  0.945171  0.0  0.289917  0.372987  0.000181  0.965847  0.0
C  C19  1  0.39856027  0.89617779  0.82421296  1  0.339263  -0.012352  4.032055  -0.008  0.358862  -0.011534  4.046652  -0.007  0.218016  0.325678  -0.012543  4.022923  -0.008
C  C20  1  0.60144641  0.10381793  0.17578338  1  0.339459  -0.012338  4.032544  -0.008  0.359051  -0.011519  4.047143  -0.007  0.218208  0.325875  -0.012531  4.023407  -0.008
C  C21  1  0.64374301  0.91269819  0.63669194  1  0.317748  -0.000354  4.097089  0.0  0.333829  -0.000353  4.111507  0.0  0.199405  0.306901  -0.00036  4.08783  0.0
C  C22  1  0.35626104  0.08730039  0.36331065  1  0.317527  -0.000355  4.097371  0.0  0.333603  -0.000353  4.111789  0.0  0.199314  0.306683  -0.00036  4.088111  0.0
C  C23  1  0.73632344  0.66363891  0.79190981  1  0.294338  -0.004356  4.076384  -0.003  0.32227  -0.003481  4.081444  -0.002  0.135333  0.275574  -0.005196  4.072721  -0.003
C  C24  1  0.26367483  0.33636099  0.20809383  1  0.294095  -0.004345  4.076337  -0.003  0.322022  -0.003498  4.081404  -0.002  0.13529  0.275334  -0.005192  4.072664  -0.003
C  C25  1  0.59141886  0.82421058  0.75207743  1  -0.224893  -0.000141  4.204611  0.001  -0.241156  -0.000101  4.218078  0.001  -0.030586  -0.2145  -0.000118  4.196397  0.001
C  C26  1  0.40858265  0.17578793  0.24792369  1  -0.224712  -0.000151  4.20431  0.001  -0.240966  -8.1e-05  4.217774  0.001  -0.030561  -0.214322  -0.000117  4.196093  0.001
C  C27  1  0.08683421  0.49175254  0.72744652  1  0.04232  -0.000168  3.81202  0.0  0.051699  -0.00015  3.81627  0.0  -0.062718  0.035937  -0.000177  3.809088  0.0
C  C28  1  0.91316981  0.50824867  0.27254995  1  0.042311  -0.000166  3.81222  0.0  0.051691  -0.000152  3.81647  0.0  -0.062746  0.035927  -0.000177  3.809284  0.0
C  C29  1  0.23713064  0.47384758  0.59754084  1  -0.218006  -1.9e-05  3.950724  0.0  -0.219907  -1.6e-05  3.962011  0.0  -0.170024  -0.21644  -2e-05  3.942678  0.0
C  C30  1  0.76287464  0.52615629  0.40245026  1  -0.217916  -1.9e-05  3.950425  0.0  -0.219821  -1.6e-05  3.961719  0.0  -0.169909  -0.216347  -2e-05  3.942378  0.0
C  C31  1  0.20604483  0.65299834  0.52869494  1  0.091593  1.9e-05  3.918748  0.0  0.099403  1e-05  3.924513  0.0  -0.080035  0.08619  1.9e-05  3.914804  0.0
C  C32  1  0.79395761  0.34698482  0.47129617  1  0.091489  1.9e-05  3.919088  0.0  0.0993  1.2e-05  3.924857  0.0  -0.08012  0.086086  1.9e-05  3.915143  0.0
C  C33  1  0.71393812  0.58768743  0.92214546  1  -0.241027  -0.000692  4.226541  0.001  -0.257911  -0.0005  4.241863  0.001  -0.039463  -0.229988  -0.00081  4.216859  0.001
C  C34  1  0.28605703  0.41230831  0.07785908  1  -0.240876  -0.000694  4.226641  0.001  -0.257765  -0.000503  4.241972  0.001  -0.039479  -0.22984  -0.00081  4.216957  0.001
C  C35  1  0.81888526  0.40057728  0.94036322  1  0.318435  -0.012569  4.071846  -0.008  0.338411  -0.011652  4.085407  -0.007  0.210433  0.304336  -0.012905  4.0638  -0.008
C  C36  1  0.18110458  0.59942939  0.05963962  1  0.318479  -0.012571  4.071577  -0.008  0.338457  -0.011652  4.085134  -0.007  0.210495  0.304382  -0.012907  4.063535  -0.008
C  C37  1  0.57818940  0.69142413  0.03948474  1  0.294407  -0.000623  4.09519  0.0  0.306906  -0.000506  4.114622  0.0  0.184948  0.286175  -0.00072  4.082366  0.0
C  C38  1  0.42179201  0.30858688  0.96053432  1  0.294393  -0.000623  4.094634  0.0  0.306899  -0.000505  4.114072  0.0  0.184966  0.286162  -0.000719  4.081804  0.0
N  N39  1  0.23946999  0.94961086  0.88731469  1  -0.375933  -0.002238  3.408458  0.0  -0.396311  -0.001891  3.411604  0.001  -0.344326  -0.363669  -0.001706  3.406543  0.0
N  N40  1  0.76051996  0.05039031  0.11268852  1  -0.37609  -0.002238  3.408982  0.0  -0.396468  -0.001902  3.412134  0.001  -0.344452  -0.363827  -0.001708  3.407064  0.0
N  N41  1  0.69186381  0.98260317  0.54032453  1  -0.401085  -1e-06  2.906449  0.0  -0.41445  2.9e-05  2.913869  0.0  -0.302862  -0.392473  1.8e-05  2.901727  0.0
N  N42  1  0.30814012  0.01740356  0.45967257  1  -0.400914  4e-06  2.906745  0.0  -0.414278  2.6e-05  2.914167  0.0  -0.302772  -0.392303  1.8e-05  2.902022  0.0
N  N43  1  0.90024070  0.24496597  0.96029728  1  -0.381988  -0.002705  3.440769  0.0  -0.401132  -0.002216  3.442063  0.0  -0.349409  -0.370703  -0.002376  3.440202  0.0
N  N44  1  0.09975630  0.75503386  0.03970364  1  -0.381976  -0.002704  3.440887  0.0  -0.401117  -0.002217  3.442175  0.0  -0.349412  -0.370694  -0.002376  3.440325  0.0
N  N45  1  0.46986444  0.77210585  0.14043194  1  -0.408819  -0.000618  2.879703  0.0  -0.420241  -0.00053  2.89113  0.0  -0.309276  -0.401711  -0.00067  2.872248  0.0
N  N46  1  0.53014618  0.22788443  0.85956499  1  -0.408973  -0.000617  2.878568  0.0  -0.420401  -0.000531  2.889998  0.0  -0.30935  -0.401859  -0.000672  2.871101  0.0
O  O47  1  0.09382576  0.07021245  0.16898502  1  -0.789034  0.03244  2.14318  0.057  -0.817387  0.024436  2.11532  0.045  -0.566305  -0.765775  0.040856  2.161014  0.07
O  O48  1  0.90617641  0.92978469  0.83101606  1  -0.78901  0.032443  2.143117  0.057  -0.817366  0.024438  2.115259  0.045  -0.566284  -0.765748  0.040861  2.160952  0.07
O  O49  1  0.89788465  0.58200676  0.69353806  1  -0.189636  -0.00068  2.563959  -0.001  -0.211113  -0.000512  2.566601  0.0  -0.151151  -0.175004  -0.000815  2.561945  -0.001
O  O50  1  0.10211230  0.41799586  0.30646466  1  -0.189546  -0.000679  2.563915  -0.001  -0.211024  -0.000512  2.56656  0.0  -0.151135  -0.17491  -0.000814  2.561894  -0.001
O  O51  1  0.20748220  0.77854720  0.62036303  1  -0.501128  0.000267  2.322328  0.001  -0.519678  0.000118  2.309265  0.0  -0.405453  -0.487902  0.000521  2.331029  0.001
O  O52  1  0.79251659  0.22145960  0.37964101  1  -0.500896  0.000267  2.322899  0.001  -0.519443  0.000117  2.309841  0.0  -0.405406  -0.487673  0.000521  2.331595  0.001
