# generated using pymatgen
data_ZnH21C22N3O4
_symmetry_space_group_name_H-M   'P 1'
_cell_length_a   13.78197723
_cell_length_b   15.97096713
_cell_length_c   17.12403084
_cell_angle_alpha   91.35183270
_cell_angle_beta   91.17652031
_cell_angle_gamma   94.74352175
_symmetry_Int_Tables_number   1
_chemical_formula_structural   ZnH21C22N3O4
_chemical_formula_sum   'Zn2 H42 C44 N6 O8'
_cell_volume   3754.28436037
_cell_formula_units_Z   2
loop_
 _symmetry_equiv_pos_site_id
 _symmetry_equiv_pos_as_xyz
  1  'x, y, z'
loop_
 _atom_site_type_symbol
 _atom_site_label
 _atom_site_symmetry_multiplicity
 _atom_site_fract_x
 _atom_site_fract_y
 _atom_site_fract_z
 _atom_site_occupancy
 _atom_site_pbe_bader_charge
 _atom_site_pbe_bader_spin_density
 _atom_site_pbe_cm5_charge
 _atom_site_pbe_ddec_charge
 _atom_site_pbe_ddec_spin_density
 _atom_site_pbe_ddec_sum_bond_order
 _atom_site_pbe_magmom
Zn  Zn0  1  0.50936727  0.41102872  0.50621913  1  1.29758  0  0.672445  0.832257  0  2.394081  0
Zn  Zn1  1  0.49170174  0.58984838  0.49238182  1  1.284773  0  0.672203  0.83133  0  2.39536  0
H  H2  1  0.42830158  0.40374917  0.89271835  1  0.095779  0  0.104944  0.105626  0  1.01689  0
H  H3  1  0.63773878  0.13019161  0.60460553  1  0.101274  0  0.117871  0.130116  0  0.985677  0
H  H4  1  0.88488016  0.36497822  0.42780365  1  0.04807  0  0.089584  0.120452  0  0.998028  0
H  H5  1  0.99120381  0.31036632  0.44186531  1  0.048747  0  0.085728  0.111942  0  1.005254  0
H  H6  1  0.88052304  0.27469109  0.48681108  1  0.032026  0  0.084065  0.108589  0  1.006536  0
H  H7  1  0.99278188  0.35179204  0.58597074  1  0.024257  0  0.094499  0.092043  0  0.969834  0
H  H8  1  0.88830013  0.40781343  0.56928521  1  0.069341  0  0.09461  0.094603  0  0.995932  0
H  H9  1  0.09363980  0.56427492  0.37164967  1  0.02747  0  0.087608  0.117104  0  1.002449  0
H  H10  1  0.98712235  0.61981179  0.36405733  1  0.047458  0  0.086884  0.114419  0  1.002399  0
H  H11  1  0.10344112  0.67609482  0.37729074  1  -0.003648  0  0.08304  0.105834  0  1.018412  0
H  H12  1  0.01739990  0.67319966  0.50434780  1  0.029219  0  0.094631  0.091897  0  0.971338  0
H  H13  1  0.57111914  0.59599393  0.10584538  1  0.095437  0  0.104935  0.105498  0  1.017772  0
H  H14  1  0.12073746  0.61366507  0.51028378  1  0.059514  0  0.096775  0.099633  0  0.985574  0
H  H15  1  0.42290372  0.39981236  0.74559319  1  0.088627  0  0.105123  0.109085  0  1.001442  0
H  H16  1  0.57671941  0.59994699  0.25293779  1  0.093136  0  0.105717  0.109556  0  1.000456  0
H  H17  1  0.45794833  0.22201822  0.17566245  1  0.01252  0  0.085448  0.111312  0  1.002222  0
H  H18  1  0.33872466  0.25635275  0.18059556  1  0.019516  0  0.085585  0.110913  0  1.004316  0
H  H19  1  0.36934462  0.19013172  0.10186967  1  0.031953  0  0.086651  0.112836  0  1.001452  0
H  H20  1  0.36709604  0.33625419  0.05607423  1  0.052362  0  0.09614  0.092656  0  0.970291  0
H  H21  1  0.48341697  0.30234966  0.04964971  1  0.051263  0  0.095918  0.091094  0  0.977854  0
H  H22  1  0.66085696  0.74375397  0.81810055  1  0.038301  0  0.085551  0.1111  0  1.003958  0
H  H23  1  0.54133222  0.77737628  0.82296819  1  -0.002551  0  0.085209  0.11103  0  1.003301  0
H  H24  1  0.45043936  0.34553894  0.25325459  1  0.064842  0  0.101483  0.107136  0  1.027238  0
H  H25  1  0.62966248  0.80972115  0.89680432  1  0.017678  0  0.086996  0.113427  0  1.001093  0
H  H26  1  0.51655256  0.69702014  0.94910548  1  0.067563  0  0.095747  0.089805  0  0.978265  0
H  H27  1  0.63304120  0.66355734  0.94243547  1  0.022419  0  0.095916  0.091761  0  0.969272  0
H  H28  1  0.38426280  0.77283683  0.27338640  1  -0.000559  0  0.081893  0.102236  0  1.013965  0
H  H29  1  0.45754335  0.68732592  0.28820351  1  0.064846  0  0.088357  0.121606  0  1.023268  0
H  H30  1  0.33574074  0.66765527  0.25316602  1  0.03993  0  0.093974  0.126554  0  0.98636  0
H  H31  1  0.34564746  0.63375206  0.39469326  1  0.10053  0  0.103964  0.121428  0  1.008374  0
H  H32  1  0.27462248  0.71959868  0.38106544  1  0.019581  0  0.098474  0.098736  0  0.978298  0
H  H33  1  0.54279288  0.31254997  0.71119571  1  0.06981  0  0.088524  0.122121  0  1.022712  0
H  H34  1  0.61666603  0.22746891  0.72603842  1  0.005706  0  0.081741  0.102059  0  1.014889  0
H  H35  1  0.55051836  0.65371953  0.74536727  1  0.08892  0  0.101895  0.107521  0  1.027667  0
H  H36  1  0.66443787  0.33282255  0.74648907  1  0.038989  0  0.094097  0.126477  0  0.986288  0
H  H37  1  0.72613086  0.28118988  0.61838503  1  0.017211  0  0.099848  0.102188  0  0.963745  0
H  H38  1  0.65482533  0.36694497  0.60498757  1  0.099138  0  0.103532  0.121138  0  1.014639  0
H  H39  1  0.42018572  0.26938178  0.42878646  1  0.126167  0  0.128351  0.10968  0  0.978819  0
H  H40  1  0.58021952  0.73145135  0.57088495  1  0.131548  0  0.128855  0.109774  0  0.977218  0
H  H41  1  0.41481290  0.11107957  0.42363762  1  0.0998  0  0.116319  0.125213  0  1.003299  0
H  H42  1  0.58512169  0.88977489  0.57626160  1  0.118195  0  0.116401  0.125586  0  1.003198  0
H  H43  1  0.36259483  0.87047046  0.39495312  1  0.098657  0  0.118096  0.131078  0  0.984533  0
C  C44  1  0.50872672  0.47821363  0.34832822  1  1.5387  0  0.216306  0.593453  0  4.165325  0
C  C45  1  0.46370428  0.14853734  0.46394981  1  0.107863  0  -0.077253  -0.194049  0  3.934094  0
C  C46  1  0.47387838  0.89072755  0.48462536  1  0.383474  0  0.102401  0.205407  0  4.058315  0
C  C47  1  0.52628448  0.11004003  0.51509317  1  0.277204  0  0.101963  0.204872  0  4.05833  0
C  C48  1  0.41178659  0.84065097  0.43422483  1  -0.005849  0  -0.069502  -0.234431  0  3.872822  0
C  C49  1  0.58856909  0.16007751  0.56537398  1  0.006978  0  -0.068768  -0.234086  0  3.874091  0
C  C50  1  0.41333411  0.75298198  0.43378549  1  0.496506  0  0.142474  0.295763  0  3.89046  0
C  C51  1  0.58727810  0.24776086  0.56572818  1  0.490904  0  0.141429  0.294932  0  3.891672  0
C  C52  1  0.31206443  0.46321175  0.49886749  1  1.663916  0  0.215903  0.662894  0  4.248325  0
C  C53  1  0.68888095  0.53965129  0.50518558  1  1.681085  0  0.215432  0.663024  0  4.251157  0
C  C54  1  0.79400596  0.54821924  0.50719167  1  0.192475  0  -0.046039  -0.189306  0  3.954154  0
C  C55  1  0.49220687  0.52122588  0.65035504  1  1.595691  0  0.216281  0.593  0  4.167501  0
C  C56  1  0.20763938  0.45475476  0.50684768  1  0.130576  0  -0.044858  -0.186405  0  3.948462  0
C  C57  1  0.98372248  0.54028474  0.50612969  1  0.096365  0  0.011011  0.083819  0  3.972409  0
C  C58  1  0.01937127  0.46411076  0.52187141  1  0.108044  0  0.011867  0.085675  0  3.97288  0
C  C59  1  0.11994013  0.45676690  0.51465516  1  -0.426244  0  -0.029682  -0.049396  0  4.136869  0
C  C60  1  0.88242934  0.54639308  0.50740199  1  -0.526827  0  -0.030686  -0.049781  0  4.144127  0
C  C61  1  0.51115822  0.47334347  0.26093719  1  -0.02405  0  -0.011984  -0.010918  0  3.966893  0
C  C62  1  0.48929032  0.52613428  0.73770785  1  -0.10866  0  -0.013687  -0.014404  0  3.965832  0
C  C63  1  0.54660946  0.54423359  0.22006367  1  0.065114  0  -0.088283  -0.100071  0  4.013947  0
C  C64  1  0.45322159  0.45541575  0.77852159  1  0.023586  0  -0.087384  -0.097749  0  4.01115  0
C  C65  1  0.54348212  0.54223875  0.13921925  1  -0.122973  0  -0.088253  -0.14358  0  4.000031  0
C  C66  1  0.47046086  0.39643708  0.13814886  1  0.073266  0  0.002686  0.069787  0  3.888071  0
C  C67  1  0.45623468  0.45741507  0.85936970  1  -0.08346  0  -0.087688  -0.143881  0  3.996342  0
C  C68  1  0.50352320  0.46977283  0.09808287  1  0.380271  0  0.085213  0.109004  0  4.028727  0
C  C69  1  0.49632676  0.52981897  0.90056704  1  0.389439  0  0.085499  0.110387  0  4.028071  0
C  C70  1  0.95442658  0.38734173  0.54248578  1  0.000893  0  -0.156872  -0.144723  0  3.981726  0
C  C71  1  0.92622088  0.33091382  0.47042236  1  -0.104821  0  -0.240227  -0.344086  0  3.960596  0
C  C72  1  0.04844470  0.61612257  0.48253247  1  0.009692  0  -0.15649  -0.14255  0  3.97217  0
C  C73  1  0.05863691  0.61927659  0.39353337  1  -0.060756  0  -0.239902  -0.34437  0  3.959093  0
C  C74  1  0.42899840  0.31904562  0.09230283  1  -0.01313  0  -0.158638  -0.141815  0  4.003607  0
C  C75  1  0.39717875  0.24292996  0.14056681  1  -0.070271  0  -0.245006  -0.350576  0  3.994485  0
C  C76  1  0.57092780  0.68057117  0.90632906  1  0.004622  0  -0.158657  -0.138755  0  4.001046  0
C  C77  1  0.52962608  0.60310232  0.86051418  1  -0.060697  0  0.00265  0.067654  0  3.889353  0
C  C78  1  0.60226399  0.75681319  0.85809185  1  -0.050377  0  -0.244869  -0.351255  0  3.995162  0
C  C79  1  0.34895613  0.69948565  0.37732107  1  0.014681  0  -0.157787  -0.191468  0  3.947397  0
C  C80  1  0.38381916  0.70772835  0.29300693  1  -0.054646  0  -0.238992  -0.339889  0  3.944159  0
C  C81  1  0.65171387  0.30118048  0.62223917  1  0.00633  0  -0.15777  -0.192378  0  3.948943  0
C  C82  1  0.61671502  0.29258437  0.70650393  1  -0.062966  0  -0.239102  -0.340316  0  3.944487  0
C  C83  1  0.47558545  0.39993751  0.21975863  1  -0.074806  0  -0.089265  -0.158199  0  3.947634  0
C  C84  1  0.52497687  0.59948148  0.77891738  1  0.017863  0  -0.089207  -0.155813  0  3.945552  0
C  C85  1  0.53378244  0.76554798  0.53288048  1  0.465884  0  0.057543  0.121159  0  3.909881  0
C  C86  1  0.46665506  0.23527354  0.46676655  1  0.422821  0  0.057679  0.119373  0  3.913742  0
C  C87  1  0.53645825  0.85227322  0.53582249  1  -0.028046  0  -0.077571  -0.195916  0  3.933933  0
N  N88  1  0.49618183  0.46461800  0.01599343  1  -0.566941  0  -0.148736  -0.129836  0  3.309568  0
N  N89  1  0.50358590  0.53496340  0.98265087  1  -0.492741  0  -0.149033  -0.131332  0  3.309613  0
N  N90  1  0.47439184  0.71690342  0.48300371  1  -1.231818  0  -0.307881  -0.246101  0  3.423502  0
N  N91  1  0.52628606  0.28390918  0.51646384  1  -1.210096  0  -0.306897  -0.245283  0  3.420337  0
N  N92  1  0.46764726  0.97868334  0.47991162  1  -0.495129  0  -0.131722  -0.115644  0  3.2356  0
N  N93  1  0.53244317  0.02207753  0.51981966  1  -0.43891  0  -0.131771  -0.11678  0  3.236946  0
O  O94  1  0.51056687  0.41023894  0.38546676  1  -1.157107  0  -0.317971  -0.54947  0  2.316541  0
O  O95  1  0.49770191  0.58963212  0.61343317  1  -1.166545  0  -0.317441  -0.54961  0  2.321957  0
O  O96  1  0.50370306  0.55152978  0.37847676  1  -1.168537  0  -0.313644  -0.547761  0  2.349331  0
O  O97  1  0.49028264  0.44737465  0.61986827  1  -1.165232  0  -0.314801  -0.54897  0  2.347495  0
O  O98  1  0.35719005  0.39699134  0.49619390  1  -1.16222  0  -0.31642  -0.546889  0  2.260301  0
O  O99  1  0.64389418  0.60544923  0.49804645  1  -1.140777  0  -0.314959  -0.544002  0  2.263302  0
O  O100  1  0.34913378  0.53914009  0.49566239  1  -1.148526  0  -0.313807  -0.552792  0  2.294693  0
O  O101  1  0.65111035  0.46416247  0.51063581  1  -1.154482  0  -0.312457  -0.552014  0  2.298977  0
