# generated using pymatgen
data_Zn3H22C28N3O13
_symmetry_space_group_name_H-M   'P 1'
_cell_length_a   11.51827688
_cell_length_b   11.69109292
_cell_length_c   14.12140460
_cell_angle_alpha   71.77032131
_cell_angle_beta   74.49767608
_cell_angle_gamma   70.93933131
_symmetry_Int_Tables_number   1
_chemical_formula_structural   Zn3H22C28N3O13
_chemical_formula_sum   'Zn6 H44 C56 N6 O26'
_cell_volume   1678.01459022
_cell_formula_units_Z   2
loop_
 _symmetry_equiv_pos_site_id
 _symmetry_equiv_pos_as_xyz
  1  'x, y, z'
loop_
 _atom_site_type_symbol
 _atom_site_label
 _atom_site_symmetry_multiplicity
 _atom_site_fract_x
 _atom_site_fract_y
 _atom_site_fract_z
 _atom_site_occupancy
 _atom_site_pbe_bader_charge
 _atom_site_pbe_bader_spin_density
 _atom_site_pbe_cm5_charge
 _atom_site_pbe_ddec_charge
 _atom_site_pbe_ddec_spin_density
 _atom_site_pbe_ddec_sum_bond_order
 _atom_site_pbe_magmom
Zn  Zn0  1  0.29933881  0.10978550  0.23312892  1  1.268218  0  0.680396  0.851385  0  2.389766  0
Zn  Zn1  1  0.70066436  0.89021452  0.76686929  1  1.268209  0  0.680375  0.851374  0  2.389762  0
Zn  Zn2  1  0.05412467  0.98021863  0.38982894  1  1.305903  0  0.665533  0.936674  0  2.29915  0
Zn  Zn3  1  0.94587732  0.01978232  0.61017070  1  1.305886  0  0.665509  0.936626  0  2.299205  0
Zn  Zn4  1  0.20399849  0.11862609  0.46282698  1  1.351504  0  0.667095  0.923403  0  2.34984  0
Zn  Zn5  1  0.79600033  0.88137670  0.53717074  1  1.351585  0  0.667088  0.923413  0  2.349835  0
H  H6  1  0.46265898  0.79585666  0.56157619  1  0.073551  0  0.101169  0.113019  0  1.045764  0
H  H7  1  0.53734466  0.20414805  0.43842427  1  0.073583  0  0.101171  0.113006  0  1.045795  0
H  H8  1  0.51223899  0.72943141  0.26965886  1  0.09933  0  0.100539  0.115954  0  1.035224  0
H  H9  1  0.48775668  0.27056948  0.73034425  1  0.099321  0  0.100567  0.115992  0  1.035269  0
H  H10  1  0.56622564  0.56515503  0.78827785  1  0.103143  0  0.124401  0.121378  0  0.940185  0
H  H11  1  0.43377274  0.43484588  0.21172469  1  0.103155  0  0.124381  0.121321  0  0.940238  0
H  H12  1  0.45514876  0.67929037  0.71870287  1  0.144712  0  0.11323  0.114142  0  1.003435  0
H  H13  1  0.54485003  0.32071242  0.28129697  1  0.144569  0  0.113244  0.114129  0  1.003442  0
H  H14  1  0.86196021  0.47743869  0.50679555  1  0.061433  0  0.108157  0.096645  0  0.967812  0
H  H15  1  0.13804302  0.52256134  0.49319769  1  0.061369  0  0.108181  0.096627  0  0.967881  0
H  H16  1  0.85880818  0.44173084  0.39300744  1  0.050252  0  0.105761  0.091657  0  0.992614  0
H  H17  1  0.14118667  0.55826350  0.60699044  1  0.050241  0  0.105701  0.0916  0  0.992572  0
H  H18  1  0.68527319  0.62499678  0.18087102  1  0.061477  0  0.086004  0.055499  0  1.071485  0
H  H19  1  0.31472635  0.37500321  0.81913009  1  0.061467  0  0.086008  0.055478  0  1.071493  0
H  H20  1  0.56150422  0.55460691  0.20601563  1  0.042928  0  0.099832  0.080971  0  0.996846  0
H  H21  1  0.43849986  0.44538657  0.79398195  1  0.042888  0  0.099794  0.080925  0  0.996858  0
H  H22  1  0.17300112  0.30556199  0.06285788  1  0.173151  0  0.134075  0.119482  0  0.960247  0
H  H23  1  0.82700217  0.69443429  0.93714127  1  0.173346  0  0.134104  0.119506  0  0.960268  0
H  H24  1  0.14603374  0.31097869  0.89701435  1  0.124404  0  0.12226  0.13326  0  0.986285  0
H  H25  1  0.85396660  0.68901850  0.10298518  1  0.124291  0  0.122248  0.13322  0  0.986294  0
H  H26  1  0.38916218  0.93323030  0.93064271  1  0.084011  0  0.118062  0.129616  0  0.990857  0
H  H27  1  0.61083355  0.06676405  0.06935640  1  0.083933  0  0.118021  0.129622  0  0.99074  0
H  H28  1  0.39472583  0.93849908  0.10323661  1  0.088571  0  0.123527  0.099823  0  0.990835  0
H  H29  1  0.60527351  0.06149530  0.89676173  1  0.088583  0  0.123507  0.099833  0  0.990878  0
H  H30  1  0.15409844  0.31841342  0.75107943  1  0.085713  0  0.114975  0.121912  0  0.996032  0
H  H31  1  0.84590137  0.68158564  0.24892116  1  0.085713  0  0.114986  0.121916  0  0.996028  0
H  H32  1  0.14153239  0.30990255  0.58109519  1  0.108199  0  0.121231  0.092449  0  1.006019  0
H  H33  1  0.85846409  0.69010210  0.41890467  1  0.108241  0  0.1212  0.09239  0  1.006061  0
H  H34  1  0.34516847  0.94020360  0.62548270  1  0.118759  0  0.122868  0.095518  0  1.005594  0
H  H35  1  0.65482025  0.05980006  0.37451338  1  0.118885  0  0.122862  0.095551  0  1.005521  0
H  H36  1  0.36619906  0.92869550  0.79730313  1  0.109476  0  0.113726  0.124476  0  1.009107  0
H  H37  1  0.63379220  0.07129881  0.20269551  1  0.109447  0  0.113727  0.124451  0  1.009142  0
H  H38  1  0.90732142  0.16370225  0.22981568  1  0.165204  0  0.117675  0.105869  0  1.032832  0
H  H39  1  0.09268133  0.83630245  0.77018497  1  0.165253  0  0.117705  0.105893  0  1.032851  0
H  H40  1  0.88441834  0.18396916  0.06213121  1  0.152426  0  0.114984  0.126852  0  1.00958  0
H  H41  1  0.11558159  0.81603270  0.93787006  1  0.15246  0  0.114981  0.126845  0  1.00958  0
H  H42  1  0.12917496  0.80715269  0.07888979  1  0.086276  0  0.116201  0.127051  0  0.990707  0
H  H43  1  0.87083076  0.19285110  0.92110906  1  0.085938  0  0.116184  0.126999  0  0.990691  0
H  H44  1  0.14494135  0.80358867  0.25189013  1  0.127431  0  0.125466  0.106479  0  0.982579  0
H  H45  1  0.85506616  0.19641513  0.74810834  1  0.127403  0  0.125437  0.106444  0  0.98265  0
H  H46  1  0.07895838  0.20855712  0.32131005  1  0.61756  0  0.307675  0.401064  0  0.895549  0
H  H47  1  0.92104314  0.79144570  0.67868638  1  0.617552  0  0.307688  0.401122  0  0.895467  0
H  H48  1  0.82628299  0.10505604  0.45055372  1  0.590929  0  0.307715  0.402803  0  0.888182  0
H  H49  1  0.17371863  0.89494304  0.54944506  1  0.590914  0  0.307726  0.402849  0  0.888117  0
C  C50  1  0.40648618  0.90196395  0.37618337  1  1.485835  0  0.213484  0.598491  0  4.147759  0
C  C51  1  0.59351260  0.09803884  0.62381718  1  1.486106  0  0.213452  0.598379  0  4.147722  0
C  C52  1  0.48206006  0.77276416  0.41264545  1  0.020093  0  -0.02959  -0.014473  0  4.039634  0
C  C53  1  0.51793675  0.22723580  0.58735907  1  0.020091  0  -0.029598  -0.014343  0  4.039598  0
C  C54  1  0.50258012  0.73193485  0.51257084  1  0.003113  0  -0.110452  -0.225297  0  3.986644  0
C  C55  1  0.49742082  0.26806327  0.48743187  1  0.002957  0  -0.110465  -0.225311  0  3.986594  0
C  C56  1  0.57652741  0.61163325  0.54610240  1  0.465626  0  0.078692  0.179609  0  4.072339  0
C  C57  1  0.42347486  0.38836677  0.45389601  1  0.46579  0  0.078723  0.179591  0  4.071963  0
C  C58  1  0.63242868  0.53475789  0.47808820  1  0.603537  0  0.065374  0.04179  0  4.025098  0
C  C59  1  0.36756905  0.46524208  0.52191542  1  0.603743  0  0.065359  0.041793  0  4.025  0
C  C60  1  0.61003340  0.57569300  0.37784631  1  0.414591  0  0.071375  0.157846  0  4.10051  0
C  C61  1  0.38996279  0.42430603  0.62215717  1  0.414617  0  0.071342  0.157804  0  4.100523  0
C  C62  1  0.53320110  0.69491824  0.34567951  1  0.031345  0  -0.115422  -0.233925  0  4.013545  0
C  C63  1  0.46679780  0.30508080  0.65432269  1  0.031244  0  -0.115467  -0.23404  0  4.013646  0
C  C64  1  0.55597934  0.63173027  0.71434203  1  0.390568  0  -0.061188  -0.127849  0  3.887341  0
C  C65  1  0.44401970  0.36827158  0.28565871  1  0.390474  0  -0.061145  -0.127674  0  3.887272  0
C  C66  1  0.63118565  0.72361805  0.69912011  1  1.577149  0  0.214343  0.610731  0  4.15044  0
C  C67  1  0.36881273  0.27638286  0.30088242  1  1.577845  0  0.214258  0.610591  0  4.150753  0
C  C68  1  0.83677542  0.41385755  0.47655003  1  0.467241  0  -0.067366  -0.123326  0  3.921185  0
C  C69  1  0.16322264  0.58614150  0.52344738  1  0.467284  0  -0.067312  -0.123221  0  3.9212  0
C  C70  1  0.91730063  0.28296937  0.51182280  1  1.586979  0  0.215932  0.616485  0  4.168367  0
C  C71  1  0.08269587  0.71702873  0.48817661  1  1.586983  0  0.215941  0.616477  0  4.168327  0
C  C72  1  0.65927780  0.53639758  0.21365097  1  0.35425  0  -0.081064  -0.115199  0  3.874949  0
C  C73  1  0.34072496  0.46360057  0.78634994  1  0.354251  0  -0.081023  -0.115058  0  3.874797  0
C  C74  1  0.74418593  0.43907247  0.15388156  1  1.642409  0  0.158979  0.580389  0  4.307752  0
C  C75  1  0.25582430  0.56092105  0.84612605  1  1.642788  0  0.158816  0.580239  0  4.307792  0
C  C76  1  0.21677587  0.22281965  0.03317059  1  0.459402  0  0.067203  0.118925  0  3.89602  0
C  C77  1  0.78322705  0.77717475  0.96682842  1  0.459042  0  0.067097  0.118812  0  3.896117  0
C  C78  1  0.20444518  0.22562468  0.93720333  1  -0.061826  0  -0.066523  -0.152042  0  3.908647  0
C  C79  1  0.79555697  0.77437252  0.06279441  1  -0.061749  0  -0.066482  -0.151962  0  3.908627  0
C  C80  1  0.26652082  0.12216888  0.89564533  1  0.047731  0  0.018685  0.10685  0  3.954591  0
C  C81  1  0.73347991  0.87783019  0.10435294  1  0.047857  0  0.018719  0.106899  0  3.954568  0
C  C82  1  0.33751536  0.01723052  0.95693087  1  0.015242  0  -0.077977  -0.171083  0  3.941756  0
C  C83  1  0.66248371  0.98276479  0.04306800  1  0.015523  0  -0.077952  -0.171117  0  3.941781  0
C  C84  1  0.34261980  0.01921101  0.05321423  1  0.440365  0  0.04512  0.083168  0  3.965385  0
C  C85  1  0.65738120  0.98078712  0.94678351  1  0.440285  0  0.045162  0.083166  0  3.965425  0
C  C86  1  0.25916369  0.12300849  0.79254484  1  0.024615  0  0.014427  0.096964  0  3.966462  0
C  C87  1  0.74083128  0.87698866  0.20745372  1  0.024618  0  0.014339  0.096892  0  3.966583  0
C  C88  1  0.19714478  0.23110338  0.72811407  1  0.029236  0  -0.074538  -0.164986  0  3.942547  0
C  C89  1  0.80285299  0.76889660  0.27188601  1  0.029317  0  -0.074532  -0.16496  0  3.942552  0
C  C90  1  0.19002014  0.22812348  0.63242341  1  0.477076  0  0.054537  0.102423  0  3.940209  0
C  C91  1  0.80997533  0.77187835  0.36757525  1  0.47689  0  0.054632  0.102586  0  3.940006  0
C  C92  1  0.30381246  0.02131604  0.65725516  1  0.510186  0  0.058269  0.114784  0  3.91022  0
C  C93  1  0.69617764  0.97868574  0.34274322  1  0.510184  0  0.058308  0.114861  0  3.910087  0
C  C94  1  0.31479509  0.01656867  0.75397529  1  -0.079522  0  -0.072729  -0.153619  0  3.903577  0
C  C95  1  0.68519759  0.98343033  0.24602185  1  -0.079777  0  -0.072715  -0.153651  0  3.903673  0
C  C96  1  0.95757922  0.08513595  0.19542999  1  0.460212  0  0.050036  0.098086  0  3.928201  0
C  C97  1  0.04242393  0.91486407  0.80456965  1  0.459961  0  0.049943  0.097953  0  3.928277  0
C  C98  1  0.94408658  0.09585334  0.09799591  1  -0.049525  0  -0.074395  -0.157661  0  3.908087  0
C  C99  1  0.05591386  0.90414666  0.90200501  1  -0.049589  0  -0.074335  -0.157557  0  3.908004  0
C  C100  1  0.00562823  0.99634195  0.05188873  1  -0.011294  0  0.00955  0.09408  0  3.976539  0
C  C101  1  0.99437505  0.00366088  0.94811016  1  -0.047543  0  0.009592  0.094159  0  3.976363  0
C  C102  1  0.07878612  0.88864623  0.10896928  1  -0.005228  0  -0.08053  -0.172599  0  3.945149  0
C  C103  1  0.92121935  0.11135849  0.89102867  1  -0.004988  0  -0.080543  -0.172594  0  3.945118  0
C  C104  1  0.08822812  0.88499606  0.20580435  1  0.455954  0  0.045281  0.089505  0  3.954169  0
C  C105  1  0.91177773  0.11501053  0.79419374  1  0.456115  0  0.045303  0.089569  0  3.954222  0
N  N106  1  0.28402195  0.12062982  0.09112143  1  -1.260357  0  -0.332796  -0.245786  0  3.580728  0
N  N107  1  0.71598084  0.87936832  0.90887664  1  -1.260341  0  -0.332766  -0.24572  0  3.580612  0
N  N108  1  0.24107655  0.12451349  0.59768724  1  -1.251113  0  -0.318427  -0.227145  0  3.539823  0
N  N109  1  0.75891751  0.87549020  0.40231124  1  -1.250926  0  -0.318479  -0.227313  0  3.539691  0
N  N110  1  0.02879950  0.98184683  0.24860672  1  -1.251158  0  -0.330121  -0.258733  0  3.580155  0
N  N111  1  0.97120457  0.01815976  0.75139033  1  -1.251022  0  -0.330075  -0.258718  0  3.5801  0
O  O112  1  0.38704072  0.93434279  0.28409965  1  -1.180592  0  -0.333958  -0.560913  0  2.316884  0
O  O113  1  0.61295830  0.06565906  0.71590252  1  -1.180627  0  -0.333924  -0.560889  0  2.316862  0
O  O114  1  0.36680767  0.97456231  0.43539325  1  -1.181517  0  -0.320223  -0.573936  0  2.333123  0
O  O115  1  0.63319241  0.02544237  0.56460513  1  -1.181756  0  -0.32022  -0.573884  0  2.333091  0
O  O116  1  0.60190089  0.55848029  0.64198440  1  -1.078228  0  -0.18026  -0.166801  0  2.593236  0
O  O117  1  0.39810149  0.44152253  0.35801539  1  -1.078202  0  -0.180276  -0.166794  0  2.593187  0
O  O118  1  0.71492908  0.73623081  0.62172262  1  -1.178446  0  -0.30563  -0.53791  0  2.37459  0
O  O119  1  0.28506865  0.26377571  0.37827933  1  -1.178545  0  -0.305624  -0.537883  0  2.374773  0
O  O120  1  0.60193475  0.77947676  0.77114070  1  -1.175845  0  -0.336049  -0.566181  0  2.303264  0
O  O121  1  0.39806591  0.22052230  0.22886395  1  -1.17625  0  -0.335991  -0.566169  0  2.303384  0
O  O122  1  0.70790792  0.41781018  0.51140427  1  -1.064971  0  -0.188446  -0.166327  0  2.606653  0
O  O123  1  0.29209289  0.58218513  0.48859848  1  -1.064999  0  -0.188427  -0.16634  0  2.606835  0
O  O124  1  0.86403825  0.20403161  0.57736871  1  -1.169659  0  -0.313582  -0.53744  0  2.351623  0
O  O125  1  0.13595738  0.79596648  0.42262875  1  -1.169565  0  -0.313595  -0.537461  0  2.351573  0
O  O126  1  0.03213298  0.26568025  0.47174095  1  -1.203724  0  -0.325571  -0.583955  0  2.325842  0
O  O127  1  0.96786425  0.73431504  0.52826185  1  -1.203881  0  -0.325601  -0.583937  0  2.32576  0
O  O128  1  0.66919936  0.49294102  0.31908343  1  -1.060414  0  -0.179269  -0.17095  0  2.605577  0
O  O129  1  0.33079648  0.50706268  0.68091609  1  -1.060465  0  -0.179254  -0.170983  0  2.605483  0
O  O130  1  0.78534081  0.48602213  0.06220673  1  -1.200778  0  -0.40088  -0.633208  0  2.009574  0
O  O131  1  0.21467111  0.51396859  0.93779982  1  -1.200883  0  -0.400858  -0.633146  0  2.009688  0
O  O132  1  0.76014917  0.32470358  0.20042887  1  -1.21674  0  -0.379802  -0.622125  0  2.111006  0
O  O133  1  0.23986114  0.67529274  0.79958225  1  -1.217009  0  -0.379673  -0.622058  0  2.110813  0
O  O134  1  0.13720520  0.12573132  0.32757829  1  -1.241119  0  -0.566257  -0.850735  0  2.297379  0
O  O135  1  0.86279743  0.87427057  0.67242169  1  -1.241155  0  -0.566244  -0.850803  0  2.297336  0
O  O136  1  0.88505896  0.02513192  0.47285005  1  -1.217084  0  -0.570798  -0.863289  0  2.260168  0
O  O137  1  0.11494293  0.97486622  0.52714821  1  -1.217095  0  -0.57081  -0.863329  0  2.260005  0
