# generated using pymatgen
data_CuH7C3SNO6
_symmetry_space_group_name_H-M   'P 1'
_cell_length_a   7.47353307
_cell_length_b   9.74152296
_cell_length_c   9.68312889
_cell_angle_alpha   89.99983248
_cell_angle_beta   90.00010434
_cell_angle_gamma   90.00005385
_symmetry_Int_Tables_number   1
_chemical_formula_structural   CuH7C3SNO6
_chemical_formula_sum   'Cu4 H28 C12 S4 N4 O24'
_cell_volume   704.96658416
_cell_formula_units_Z   4
loop_
 _symmetry_equiv_pos_site_id
 _symmetry_equiv_pos_as_xyz
  1  'x, y, z'
loop_
 _atom_site_type_symbol
 _atom_site_label
 _atom_site_symmetry_multiplicity
 _atom_site_fract_x
 _atom_site_fract_y
 _atom_site_fract_z
 _atom_site_occupancy
 _atom_site_hle17_ddec_charge
 _atom_site_hle17_ddec_spin_density
 _atom_site_hle17_ddec_sum_bond_order
 _atom_site_hle17_magmom
 _atom_site_hse06_10hf_ddec_charge
 _atom_site_hse06_10hf_ddec_spin_density
 _atom_site_hse06_10hf_ddec_sum_bond_order
 _atom_site_hse06_10hf_magmom
 _atom_site_hse06_ddec_charge
 _atom_site_hse06_ddec_spin_density
 _atom_site_hse06_ddec_sum_bond_order
 _atom_site_hse06_magmom
 _atom_site_pbe_cm5_charge
 _atom_site_pbe_ddec_charge
 _atom_site_pbe_ddec_spin_density
 _atom_site_pbe_ddec_sum_bond_order
 _atom_site_pbe_magmom
Cu  Cu0  1  0.06908021  0.05156539  0.33745908  1  0.992293  0.717545  1.662895  0.527  0.981638  0.810758  2.049197  0.649  1.063379  0.881689  1.990037  0.73  0.73647  0.925915  0.755874  2.099068  0.594
Cu  Cu1  1  0.43092496  0.94842968  0.83745343  1  0.992332  -0.717553  1.662949  -0.527  0.981704  -0.810758  2.049164  -0.649  1.063443  -0.881689  1.990013  -0.73  0.736492  0.925972  -0.755888  2.099076  -0.594
Cu  Cu2  1  0.93092437  0.55156682  0.16254441  1  0.992294  -0.717539  1.662974  -0.527  0.981657  -0.810758  2.049174  -0.649  1.063397  -0.881682  1.990002  -0.73  0.736468  0.925926  -0.755911  2.099115  -0.594
Cu  Cu3  1  0.56907730  0.44843527  0.66254075  1  0.992321  0.71755  1.662907  0.527  0.981687  0.81076  2.049165  0.649  1.063411  0.881686  1.990007  0.73  0.736487  0.925927  0.755908  2.099126  0.594
H  H4  1  0.14619798  0.93996072  0.11070571  1  0.325819  -0.000891  0.887257  -0.003  0.311788  0.000212  0.949712  -0.001  0.319214  4.6e-05  0.944802  -0.001  0.300305  0.30647  0.000274  0.953207  0.0
H  H5  1  0.35380932  0.06004528  0.61070049  1  0.325875  0.000894  0.887204  0.003  0.311823  -0.000211  0.949693  0.001  0.319248  -4.6e-05  0.944782  0.001  0.300264  0.306503  -0.000274  0.953203  0.0
H  H6  1  0.85380442  0.43995866  0.38929974  1  0.325839  0.000889  0.887244  0.003  0.311795  -0.000212  0.949711  0.001  0.319218  -4.5e-05  0.944802  0.001  0.300246  0.30648  -0.000275  0.953215  0.0
H  H7  1  0.64619511  0.56003969  0.88929380  1  0.325839  -0.000893  0.887228  -0.003  0.311804  0.000211  0.94969  -0.001  0.319229  4.6e-05  0.94478  -0.001  0.300318  0.306492  0.000274  0.953194  0.0
H  H8  1  0.92446579  0.95140783  0.13237176  1  0.328141  -0.001117  0.895674  -0.002  0.310465  -0.00012  0.965456  -0.001  0.318034  -0.000315  0.96013  -0.001  0.298414  0.305076  -6.6e-05  0.969339  -0.001
H  H9  1  0.57554383  0.04859229  0.63236515  1  0.328277  0.001122  0.895622  0.002  0.310584  0.000121  0.965432  0.001  0.318155  0.000315  0.9601  0.001  0.298445  0.305195  6.6e-05  0.969323  0.001
H  H10  1  0.07553795  0.45140735  0.36763676  1  0.328284  0.001119  0.895612  0.002  0.310576  0.000121  0.965452  0.001  0.318146  0.000316  0.960121  0.001  0.298447  0.30519  6.6e-05  0.969339  0.001
H  H11  1  0.42446193  0.54859072  0.86762814  1  0.32815  -0.001121  0.895635  -0.002  0.310475  -0.00012  0.965414  -0.001  0.318044  -0.000315  0.960087  -0.001  0.298398  0.305091  -6.5e-05  0.969295  -0.001
H  H12  1  0.18160899  0.14076345  0.01402018  1  0.093475  0.000253  0.924001  0.0  0.103987  0.000143  0.982281  0.0  0.105383  0.00013  0.982555  0.0  0.12575  0.103007  0.000123  0.982225  0.0
H  H13  1  0.31838872  0.85924283  0.51401464  1  0.093418  -0.000254  0.923996  0.0  0.103931  -0.000143  0.98229  0.0  0.105328  -0.00013  0.982557  0.0  0.125746  0.102948  -0.000123  0.982239  0.0
H  H14  1  0.81838901  0.64076078  0.48598614  1  0.093446  -0.000254  0.924011  0.0  0.103953  -0.000143  0.98231  0.0  0.10535  -0.000131  0.98258  0.0  0.125752  0.102969  -0.000123  0.98226  0.0
H  H15  1  0.68160673  0.35923729  0.98598187  1  0.093478  0.000258  0.923982  0.0  0.103976  0.000142  0.98227  0.0  0.105374  0.00013  0.982542  0.0  0.125729  0.102991  0.000123  0.98222  0.0
H  H16  1  0.93817456  0.21101946  0.86170529  1  0.152397  0.000915  0.917077  0.001  0.160861  0.000679  0.976734  0.001  0.163843  0.000454  0.975149  0.001  0.114626  0.158562  0.000755  0.978185  0.001
H  H17  1  0.56181285  0.78898513  0.36169328  1  0.152454  -0.000914  0.916999  -0.001  0.160903  -0.000679  0.976688  -0.001  0.163901  -0.000453  0.975109  -0.001  0.114637  0.158599  -0.000755  0.978143  -0.001
H  H18  1  0.06181936  0.71101625  0.63830611  1  0.152466  -0.000915  0.916989  -0.001  0.160874  -0.000679  0.976683  -0.001  0.163875  -0.000454  0.975106  -0.001  0.114637  0.158571  -0.000755  0.978143  -0.001
H  H19  1  0.43816794  0.28897838  0.13829403  1  0.152406  0.000913  0.917054  0.001  0.16087  0.000679  0.976688  0.001  0.163855  0.000453  0.975109  0.001  0.114622  0.158567  0.000755  0.978144  0.001
H  H20  1  0.77599431  0.12516101  0.96709376  1  0.134805  -7.5e-05  0.952874  0.0  0.14411  -3e-06  1.017598  0.0  0.146855  1.6e-05  1.0167  0.0  0.110307  0.142118  -2.7e-05  1.018365  0.0
H  H21  1  0.72400272  0.87483608  0.46707966  1  0.134813  7.2e-05  0.95291  0.0  0.144115  2e-06  1.017657  0.0  0.146875  -1.6e-05  1.016765  0.0  0.11031  0.142127  2.7e-05  1.018421  0.0
H  H22  1  0.22400485  0.62516130  0.53291893  1  0.134848  7.3e-05  0.952878  0.0  0.14411  2e-06  1.017628  0.0  0.146878  -1.6e-05  1.016733  0.0  0.11029  0.142116  2.7e-05  1.018397  0.0
H  H23  1  0.27599022  0.37483979  0.03290533  1  0.134831  -8e-05  0.952828  0.0  0.144107  -2e-06  1.01756  0.0  0.146867  1.6e-05  1.016649  0.0  0.11031  0.142112  -2.7e-05  1.01833  0.0
H  H24  1  0.11541741  0.21219809  0.54870671  1  0.440221  0.000118  0.853124  0.0  0.416069  0.000465  0.904491  0.0  0.427793  0.000353  0.887705  0.0  0.301406  0.408043  0.000552  0.915928  0.001
H  H25  1  0.38458974  0.78779783  0.04870032  1  0.440238  -0.000118  0.853096  0.0  0.416077  -0.000465  0.904483  0.0  0.427801  -0.000352  0.887696  0.0  0.301435  0.408052  -0.000552  0.915922  -0.001
H  H26  1  0.88458855  0.71220275  0.95130159  1  0.440223  -0.000118  0.853116  0.0  0.416062  -0.000465  0.904504  0.0  0.427786  -0.000352  0.887717  0.0  0.301431  0.408039  -0.000552  0.915937  -0.001
H  H27  1  0.61541246  0.28779952  0.45129629  1  0.440263  0.000119  0.853077  0.0  0.416117  0.000465  0.904431  0.0  0.427842  0.000353  0.887643  0.0  0.30144  0.408096  0.000552  0.915862  0.001
H  H28  1  0.00119296  0.07671199  0.59062200  1  0.426505  -9.6e-05  0.876143  -0.001  0.396038  0.000259  0.940014  0.0  0.407642  0.000118  0.92341  0.0  0.295137  0.387779  0.000261  0.951896  0.0
H  H29  1  0.49882099  0.92328175  0.09061434  1  0.426553  9.5e-05  0.876066  0.001  0.396039  -0.000259  0.940018  0.0  0.407646  -0.000118  0.923412  0.0  0.295112  0.387757  -0.000261  0.951923  0.0
H  H30  1  0.99882087  0.57671993  0.90938567  1  0.426525  9.6e-05  0.876073  0.001  0.396014  -0.000259  0.940023  0.0  0.407619  -0.000118  0.923418  0.0  0.295088  0.387732  -0.000261  0.951928  0.0
H  H31  1  0.50118540  0.42328452  0.40937774  1  0.42647  -9.5e-05  0.876183  -0.001  0.395993  0.000259  0.940069  0.0  0.407596  0.000118  0.923467  0.0  0.295099  0.387732  0.000261  0.951953  0.0
C  C32  1  0.00720308  0.25337496  0.14364639  1  0.643745  0.000416  3.783071  0.002  0.601018  0.001059  4.088183  0.002  0.63948  0.000883  4.083058  0.002  0.225868  0.57479  0.000958  4.090884  0.002
C  C33  1  0.49279895  0.74662376  0.64363419  1  0.6436  -0.000445  3.783235  -0.002  0.600765  -0.001062  4.088496  -0.002  0.639233  -0.000882  4.08336  -0.002  0.225731  0.574536  -0.000961  4.091208  -0.002
C  C34  1  0.99280175  0.75337792  0.35636994  1  0.643837  -0.000408  3.783089  -0.002  0.600972  -0.001059  4.088424  -0.002  0.639436  -0.000883  4.083291  -0.002  0.225769  0.574745  -0.00096  4.091121  -0.002
C  C35  1  0.50720037  0.24662258  0.85635646  1  0.643777  0.000433  3.78303  0.002  0.601058  0.00106  4.088123  0.002  0.639521  0.000885  4.082993  0.002  0.225887  0.57483  0.000959  4.090817  0.002
C  C36  1  0.04385089  0.12785058  0.05248081  1  0.092665  -0.007399  3.612056  -0.011  0.077857  -0.003135  3.850059  -0.006  0.078131  -0.002405  3.865307  -0.005  0.003593  0.077629  -0.003859  3.839954  -0.007
C  C37  1  0.45614825  0.87214943  0.55247542  1  0.09285  0.007413  3.611871  0.011  0.078069  0.003139  3.84988  0.007  0.078375  0.002406  3.86512  0.005  0.003655  0.077846  0.003859  3.839778  0.007
C  C38  1  0.95614710  0.62785017  0.44752245  1  0.092744  0.007389  3.611974  0.011  0.077939  0.003134  3.849981  0.006  0.078243  0.002408  3.865236  0.005  0.003614  0.077715  0.003859  3.839874  0.007
C  C39  1  0.54384989  0.37214903  0.94751795  1  0.092589  -0.007432  3.612146  -0.011  0.0778  -0.003137  3.850098  -0.006  0.078076  -0.002406  3.865354  -0.005  0.003596  0.077583  -0.003859  3.839983  -0.007
C  C40  1  0.91482954  0.12333388  0.93055608  1  -0.357214  0.003506  3.588897  0.004  -0.395572  0.00225  3.837397  0.002  -0.400847  0.001664  3.844022  0.002  -0.160918  -0.391193  0.002774  3.832309  0.003
C  C41  1  0.58516339  0.87666537  0.43054694  1  -0.357266  -0.003503  3.588794  -0.004  -0.395592  -0.002249  3.837202  -0.002  -0.400972  -0.001664  3.843962  -0.002  -0.160928  -0.391217  -0.002774  3.832115  -0.003
C  C42  1  0.08516427  0.62333808  0.56944938  1  -0.357391  -0.003498  3.588808  -0.004  -0.395573  -0.00225  3.837096  -0.002  -0.400944  -0.001663  3.84381  -0.002  -0.160908  -0.391194  -0.002775  3.832016  -0.003
C  C43  1  0.41482688  0.37666497  0.06944320  1  -0.357312  0.003527  3.588886  0.004  -0.395586  0.002249  3.837269  0.002  -0.400899  0.001666  3.843929  0.002  -0.160932  -0.391207  0.002774  3.832177  0.003
S  S44  1  0.92792015  0.96977150  0.82721635  1  1.348168  0.001147  5.575357  0.001  1.259418  0.001267  6.096887  0.001  1.30667  0.000965  6.071926  0.001  0.50869  1.226761  0.0012  6.112906  0.001
S  S45  1  0.57207521  0.03023627  0.32720864  1  1.348065  -0.001144  5.575538  -0.001  1.259286  -0.001267  6.09712  -0.001  1.306567  -0.000965  6.072168  -0.001  0.508692  1.226626  -0.0012  6.113128  -0.001
S  S46  1  0.07207544  0.46976645  0.67278913  1  1.348253  -0.001149  5.575367  -0.001  1.259452  -0.001268  6.0969  -0.001  1.306737  -0.000965  6.071952  -0.001  0.508745  1.226799  -0.0012  6.112894  -0.001
S  S47  1  0.42791863  0.53022910  0.17278458  1  1.348245  0.001144  5.575055  0.001  1.259451  0.001269  6.096601  0.001  1.306709  0.000966  6.071649  0.001  0.508727  1.226796  0.0012  6.112605  0.001
N  N48  1  0.04323808  0.00387498  0.13947147  1  -0.635089  0.109219  3.157289  0.135  -0.637903  0.067248  3.455499  0.087  -0.671783  0.053393  3.456026  0.073  -0.6445  -0.616055  0.074435  3.45601  0.093
N  N49  1  0.45676929  0.99612684  0.63946262  1  -0.635386  -0.109239  3.157348  -0.135  -0.638191  -0.067252  3.455521  -0.087  -0.672071  -0.053394  3.456036  -0.073  -0.644495  -0.616331  -0.074431  3.45604  -0.093
N  N50  1  0.95676510  0.50387379  0.36053732  1  -0.635345  -0.109203  3.157396  -0.135  -0.63815  -0.067242  3.455561  -0.087  -0.672026  -0.053393  3.456076  -0.073  -0.644472  -0.616302  -0.074424  3.45609  -0.093
N  N51  1  0.54323570  0.49612464  0.86052832  1  -0.635038  0.109233  3.157243  0.135  -0.63788  0.067244  3.455474  0.087  -0.67175  0.053389  3.455993  0.073  -0.644465  -0.616033  0.074422  3.45601  0.093
O  O52  1  0.03355489  0.24149984  0.27256859  1  -0.550309  0.078584  2.085566  0.107  -0.520772  0.054035  2.361884  0.079  -0.561178  0.042722  2.35479  0.066  -0.29923  -0.494527  0.059788  2.367173  0.085
O  O53  1  0.46644344  0.75850364  0.77256045  1  -0.550293  -0.07857  2.085741  -0.107  -0.52072  -0.054033  2.362086  -0.079  -0.561139  -0.042724  2.355007  -0.066  -0.299153  -0.494439  -0.059783  2.367311  -0.085
O  O54  1  0.96643789  0.74149802  0.22743847  1  -0.550358  -0.078605  2.085487  -0.107  -0.520777  -0.054041  2.361849  -0.079  -0.561196  -0.042728  2.354765  -0.066  -0.299152  -0.49449  -0.059792  2.367062  -0.085
O  O55  1  0.53355456  0.25850182  0.72743016  1  -0.550327  0.078584  2.085477  0.107  -0.520799  0.054038  2.361786  0.079  -0.561203  0.042725  2.354687  0.066  -0.299252  -0.494547  0.059788  2.367086  0.085
O  O56  1  0.95889352  0.36364561  0.08387282  1  -0.578059  -0.053076  2.082785  -0.073  -0.551528  -0.03831  2.368771  -0.057  -0.592708  -0.031505  2.358081  -0.049  -0.309369  -0.523842  -0.040759  2.376562  -0.059
O  O57  1  0.54111063  0.63635774  0.58386031  1  -0.578016  0.053094  2.082767  0.073  -0.551444  0.038313  2.368797  0.057  -0.592616  0.031507  2.358102  0.049  -0.309358  -0.523752  0.040771  2.37658  0.059
O  O58  1  0.04110208  0.86364157  0.41613182  1  -0.578035  0.053074  2.082951  0.073  -0.551491  0.038308  2.369056  0.057  -0.592663  0.031502  2.358358  0.049  -0.309379  -0.523808  0.040768  2.376824  0.059
O  O59  1  0.45889524  0.13635532  0.91612755  1  -0.578053  -0.053086  2.0828  -0.073  -0.551559  -0.038312  2.368815  -0.057  -0.592736  -0.031506  2.35812  -0.049  -0.309395  -0.523867  -0.040768  2.376591  -0.059
O  O60  1  0.11628524  0.93037699  0.81383277  1  -0.692447  0.001011  1.991614  0.0  -0.65075  0.000893  2.264683  0.0  -0.672621  0.000973  2.245781  0.0  -0.355376  -0.634911  0.000983  2.278038  0.0
O  O61  1  0.38370916  0.06962739  0.31382228  1  -0.692489  -0.001011  1.991792  0.0  -0.650752  -0.000893  2.264882  0.0  -0.672623  -0.000973  2.245972  0.0  -0.35535  -0.634913  -0.000981  2.278235  0.0
O  O62  1  0.88370762  0.43037349  0.68617592  1  -0.692523  -0.001011  1.991598  0.0  -0.650802  -0.000893  2.264706  0.0  -0.672673  -0.000973  2.245794  0.0  -0.355365  -0.63496  -0.000983  2.278063  0.0
O  O63  1  0.61628741  0.56962032  0.18616670  1  -0.692484  0.001011  1.991569  0.0  -0.650777  0.000893  2.264645  0.0  -0.672648  0.000972  2.245741  0.0  -0.355404  -0.634943  0.000985  2.278004  0.0
O  O64  1  0.84619632  0.00787382  0.69330438  1  -0.678665  0.000433  1.97002  0.0  -0.617579  0.000472  2.212668  0.0  -0.63866  0.000374  2.197687  0.0  -0.337732  -0.602511  0.000664  2.223107  0.001
O  O65  1  0.65381211  0.99213229  0.19329706  1  -0.678725  -0.000432  1.969962  0.0  -0.617614  -0.000472  2.212653  0.0  -0.638694  -0.000374  2.197664  0.0  -0.337792  -0.602538  -0.000664  2.223082  -0.001
O  O66  1  0.15380939  0.50786813  0.80670246  1  -0.678782  -0.000432  1.969988  0.0  -0.617696  -0.000471  2.212711  0.0  -0.638772  -0.000374  2.197708  0.0  -0.337802  -0.60262  -0.000664  2.223138  -0.001
O  O67  1  0.34619437  0.49212395  0.30669688  1  -0.678705  0.000431  1.969875  0.0  -0.6176  0.000472  2.212562  0.0  -0.638675  0.000374  2.197569  0.0  -0.33776  -0.602534  0.000664  2.222991  0.001
O  O68  1  0.81899311  0.86765693  0.90195880  1  -0.682013  -5.5e-05  1.97424  -0.001  -0.632096  0.000346  2.223908  -0.001  -0.65204  0.000533  2.205763  0.0  -0.33986  -0.617399  0.00063  2.236218  0.0
O  O69  1  0.68100243  0.13234548  0.40196023  1  -0.681918  5.2e-05  1.974338  0.001  -0.632025  -0.000346  2.224044  0.001  -0.651975  -0.000532  2.205899  0.0  -0.339839  -0.617323  -0.00063  2.236347  0.0
O  O70  1  0.18100101  0.36765423  0.59804182  1  -0.681975  5.1e-05  1.974345  0.001  -0.63206  -0.000346  2.22404  0.001  -0.652016  -0.000534  2.205894  0.0  -0.339865  -0.617359  -0.000631  2.236342  0.0
O  O71  1  0.31899288  0.63234360  0.09804096  1  -0.681992  -5.1e-05  1.974169  -0.001  -0.632076  0.000346  2.223858  -0.001  -0.652022  0.000534  2.205714  0.0  -0.339848  -0.617381  0.000631  2.236162  0.0
O  O72  1  0.10192438  0.11131142  0.53142214  1  -0.804403  0.046922  1.967577  0.061  -0.756988  0.035448  2.173771  0.049  -0.786522  0.029505  2.137376  0.043  -0.573582  -0.735673  0.039286  2.199298  0.053
O  O73  1  0.39808675  0.88868147  0.03141341  1  -0.804451  -0.04692  1.967524  -0.061  -0.757009  -0.035449  2.173679  -0.049  -0.786542  -0.029507  2.137278  -0.043  -0.573582  -0.735676  -0.039286  2.19926  -0.053
O  O74  1  0.89808547  0.61131912  0.96858645  1  -0.804385  -0.046922  1.967531  -0.061  -0.75694  -0.035449  2.173691  -0.049  -0.786475  -0.029507  2.137293  -0.043  -0.573547  -0.735607  -0.039282  2.199277  -0.053
O  O75  1  0.60191826  0.38868618  0.46857980  1  -0.804389  0.04692  1.967528  0.061  -0.756987  0.035449  2.173739  0.049  -0.786517  0.029507  2.137344  0.043  -0.573576  -0.735658  0.039287  2.199265  0.053
