# generated using pymatgen
data_ZnH4(C2O)3
_symmetry_space_group_name_H-M   'P 1'
_cell_length_a   6.17381016
_cell_length_b   7.87337718
_cell_length_c   11.96023918
_cell_angle_alpha   90.00022546
_cell_angle_beta   91.05596654
_cell_angle_gamma   90.00045460
_symmetry_Int_Tables_number   1
_chemical_formula_structural   ZnH4(C2O)3
_chemical_formula_sum   'Zn4 H16 C24 O12'
_cell_volume   581.27337501
_cell_formula_units_Z   4
loop_
 _symmetry_equiv_pos_site_id
 _symmetry_equiv_pos_as_xyz
  1  'x, y, z'
loop_
 _atom_site_type_symbol
 _atom_site_label
 _atom_site_symmetry_multiplicity
 _atom_site_fract_x
 _atom_site_fract_y
 _atom_site_fract_z
 _atom_site_occupancy
 _atom_site_hle17_bader_spin_density
 _atom_site_hle17_ddec_charge
 _atom_site_hle17_ddec_spin_density
 _atom_site_hle17_ddec_sum_bond_order
 _atom_site_hle17_magmom
 _atom_site_hse06_10hf_bader_spin_density
 _atom_site_hse06_10hf_ddec_charge
 _atom_site_hse06_10hf_ddec_spin_density
 _atom_site_hse06_10hf_ddec_sum_bond_order
 _atom_site_hse06_10hf_magmom
 _atom_site_hse06_bader_spin_density
 _atom_site_hse06_ddec_charge
 _atom_site_hse06_ddec_spin_density
 _atom_site_hse06_ddec_sum_bond_order
 _atom_site_hse06_magmom
 _atom_site_pbe_bader_spin_density
 _atom_site_pbe_cm5_charge
 _atom_site_pbe_ddec_charge
 _atom_site_pbe_ddec_spin_density
 _atom_site_pbe_ddec_sum_bond_order
 _atom_site_pbe_magmom
Zn  Zn0  1  0.75847643  0.66525094  0.52026244  1  0  1.209738  0  1.777306  0  0  1.050523  0  2.245751  0  0  1.095123  0  2.183816  0  0  0.666698  1.018752  0  2.288978  0
Zn  Zn1  1  0.25847977  0.83474333  0.52026388  1  0  1.209643  0  1.77729  0  0  1.050477  0  2.245681  0  0  1.095078  0  2.183748  0  0  0.666705  1.018705  0  2.288905  0
Zn  Zn2  1  0.24153250  0.33474298  0.47973928  1  0  1.209741  0  1.77735  0  0  1.050507  0  2.245772  0  0  1.095103  0  2.183833  0  0  0.666725  1.01875  0  2.288998  0
Zn  Zn3  1  0.74153239  0.16524931  0.47973537  1  0  1.209719  0  1.777435  0  0  1.050497  0  2.245887  0  0  1.095104  0  2.183952  0  0  0.666661  1.018725  0  2.289114  0
H  H4  1  0.28557036  0.36484823  0.84521795  1  0  0.10804  0  0.950509  0  0  0.115063  0  1.017768  0  0  0.117965  0  1.017047  0  0  0.104822  0.112895  0  1.018446  0
H  H5  1  0.78557647  0.13515676  0.84522237  1  0  0.108014  0  0.950458  0  0  0.115077  0  1.017694  0  0  0.117977  0  1.016977  0  0  0.104829  0.112908  0  1.018372  0
H  H6  1  0.71443045  0.63513426  0.15478120  1  0  0.108108  0  0.950423  0  0  0.115125  0  1.017665  0  0  0.117995  0  1.016981  0  0  0.104832  0.112953  0  1.018353  0
H  H7  1  0.21440815  0.86486764  0.15477831  1  0  0.108045  0  0.950343  0  0  0.11511  0  1.017573  0  0  0.118024  0  1.016839  0  0  0.104836  0.112938  0  1.018257  0
H  H8  1  0.67637291  0.59990334  0.75487273  1  0  0.104268  0  0.969566  0  0  0.113337  0  1.032497  0  0  0.116836  0  1.030355  0  0  0.102689  0.110776  0  1.034136  0
H  H9  1  0.17638659  0.90007917  0.75486606  1  0  0.104302  0  0.969711  0  0  0.11335  0  1.032668  0  0  0.116851  0  1.030521  0  0  0.102717  0.110786  0  1.034309  0
H  H10  1  0.32362953  0.40009312  0.24512810  1  0  0.104239  0  0.969886  0  0  0.113303  0  1.032806  0  0  0.116803  0  1.030662  0  0  0.102691  0.110743  0  1.034446  0
H  H11  1  0.82361746  0.09991856  0.24512977  1  0  0.104319  0  0.969531  0  0  0.113371  0  1.03249  0  0  0.116872  0  1.030342  0  0  0.102734  0.110808  0  1.034132  0
H  H12  1  0.60348688  0.65796394  0.95392099  1  0  0.095133  0  0.966291  0  0  0.105336  0  1.028757  0  0  0.107385  0  1.029801  0  0  0.099905  0.103848  0  1.02816  0
H  H13  1  0.10346919  0.84203585  0.95391307  1  0  0.09503  0  0.966247  0  0  0.105255  0  1.02872  0  0  0.1073  0  1.029765  0  0  0.099881  0.103766  0  1.028123  0
H  H14  1  0.39651882  0.34202871  0.04608489  1  0  0.095133  0  0.96636  0  0  0.105314  0  1.02887  0  0  0.107366  0  1.029919  0  0  0.099872  0.103826  0  1.028271  0
H  H15  1  0.89650894  0.15799618  0.04608589  1  0  0.095064  0  0.966132  0  0  0.105249  0  1.028633  0  0  0.107304  0  1.029683  0  0  0.099808  0.10376  0  1.028034  0
H  H16  1  0.91371212  0.91641079  0.61634085  1  0  0.412909  0  0.894415  0  0  0.387229  0  0.951048  0  0  0.396754  0  0.937165  0  0  0.281978  0.380368  0  0.961047  0
H  H17  1  0.41370322  0.58358506  0.61634238  1  0  0.412878  0  0.894473  0  0  0.387158  0  0.951183  0  0  0.396681  0  0.937302  0  0  0.281963  0.380302  0  0.961173  0
H  H18  1  0.08630814  0.08358694  0.38365679  1  0  0.412909  0  0.894422  0  0  0.387208  0  0.951095  0  0  0.396733  0  0.937215  0  0  0.281976  0.380344  0  0.961098  0
H  H19  1  0.58631056  0.41640250  0.38365687  1  0  0.412833  0  0.894535  0  0  0.387158  0  0.951152  0  0  0.396684  0  0.937267  0  0  0.281966  0.380297  0  0.961151  0
C  C20  1  0.13673103  0.42828948  0.86968217  1  0  -0.099184  0  3.673043  0  0  -0.131383  0  3.920038  0  0  -0.130415  0  3.938314  0  0  -0.074525  -0.131854  0  3.907683  0
C  C21  1  0.63670408  0.07170329  0.86968030  1  0  -0.099222  0  3.673869  0  0  -0.131489  0  3.920894  0  0  -0.130522  0  3.939177  0  0  -0.074549  -0.13196  0  3.90854  0
C  C22  1  0.86328277  0.57169047  0.13032378  1  0  -0.099329  0  3.673306  0  0  -0.131487  0  3.920293  0  0  -0.130494  0  3.938581  0  0  -0.074525  -0.131958  0  3.90794  0
C  C23  1  0.36326920  0.92832492  0.13031862  1  0  -0.099267  0  3.673397  0  0  -0.131529  0  3.920433  0  0  -0.13057  0  3.938706  0  0  -0.074575  -0.131995  0  3.908083  0
C  C24  1  0.98561749  0.47674126  0.78857971  1  0  -0.059637  0  3.751002  0  0  -0.037809  0  3.987629  0  0  -0.045985  0  4.010415  0  0  -0.015956  -0.03245  0  3.972231  0
C  C25  1  0.48563876  0.02326083  0.78858052  1  0  -0.05989  0  3.751393  0  0  -0.037985  0  3.987965  0  0  -0.046157  0  4.010742  0  0  -0.016031  -0.032635  0  3.97258  0
C  C26  1  0.01437847  0.52325265  0.21141772  1  0  -0.059591  0  3.751286  0  0  -0.037783  0  3.987859  0  0  -0.045951  0  4.010628  0  0  -0.01596  -0.032432  0  3.972472  0
C  C27  1  0.51436206  0.97675722  0.21141863  1  0  -0.059744  0  3.751009  0  0  -0.037895  0  3.987578  0  0  -0.046068  0  4.010355  0  0  -0.015984  -0.032545  0  3.972196  0
C  C28  1  0.79161274  0.55999219  0.81971371  1  0  -0.063791  0  3.72037  0  0  -0.087963  0  3.967667  0  0  -0.088738  0  3.988678  0  0  -0.084543  -0.087369  0  3.953509  0
C  C29  1  0.29160576  0.93999907  0.81970863  1  0  -0.063701  0  3.720179  0  0  -0.087868  0  3.967463  0  0  -0.08864  0  3.988466  0  0  -0.084546  -0.087273  0  3.953307  0
C  C30  1  0.20839947  0.43999792  0.18029891  1  0  -0.063793  0  3.719873  0  0  -0.087962  0  3.96718  0  0  -0.088739  0  3.988187  0  0  -0.084554  -0.087372  0  3.953029  0
C  C31  1  0.70838368  0.06001771  0.18028205  1  0  -0.063831  0  3.720557  0  0  -0.088002  0  3.967815  0  0  -0.088775  0  3.988818  0  0  -0.084646  -0.087408  0  3.95366  0
C  C32  1  0.75154416  0.59247275  0.93042417  1  0  -0.110704  0  3.73562  0  0  -0.128709  0  3.983788  0  0  -0.13195  0  4.005635  0  0  -0.086863  -0.126499  0  3.969023  0
C  C33  1  0.25154008  0.90753291  0.93041653  1  0  -0.110583  0  3.735508  0  0  -0.128636  0  3.983723  0  0  -0.131873  0  4.005569  0  0  -0.086875  -0.126423  0  3.968956  0
C  C34  1  0.24846151  0.40751101  0.06957084  1  0  -0.110627  0  3.735345  0  0  -0.128638  0  3.983494  0  0  -0.131886  0  4.005354  0  0  -0.08683  -0.126426  0  3.96873  0
C  C35  1  0.74843482  0.09249911  0.06958491  1  0  -0.110459  0  3.73612  0  0  -0.12842  0  3.984186  0  0  -0.131674  0  4.00605  0  0  -0.086692  -0.126208  0  3.969418  0
C  C36  1  0.09839609  0.45815618  0.98435296  1  0  0.046336  0  3.802913  0  0  0.063706  0  4.029549  0  0  0.063394  0  4.052546  0  0  -0.005843  0.063965  0  4.013869  0
C  C37  1  0.59839151  0.04185992  0.98434786  1  0  0.046504  0  3.802309  0  0  0.063835  0  4.029  0  0  0.063525  0  4.051993  0  0  -0.005851  0.064093  0  4.013321  0
C  C38  1  0.90160798  0.54182377  0.01564872  1  0  0.046615  0  3.802405  0  0  0.063896  0  4.029138  0  0  0.063589  0  4.05212  0  0  -0.00588  0.064156  0  4.013459  0
C  C39  1  0.40158177  0.95817846  0.01565189  1  0  0.046492  0  3.80214  0  0  0.063852  0  4.028858  0  0  0.063542  0  4.05185  0  0  -0.00581  0.064108  0  4.01318  0
C  C40  1  0.02343771  0.43945397  0.66840033  1  0  0.689013  0  3.827879  0  0  0.634199  0  4.115321  0  0  0.670312  0  4.105973  0  0  0.225453  0.609522  0  4.121095  0
C  C41  1  0.52342683  0.06053557  0.66839355  1  0  0.689222  0  3.827934  0  0  0.634447  0  4.115375  0  0  0.670573  0  4.106009  0  0  0.225578  0.609754  0  4.121166  0
C  C42  1  0.97657285  0.56053487  0.33160391  1  0  0.688983  0  3.827909  0  0  0.634324  0  4.115213  0  0  0.670448  0  4.105852  0  0  0.225529  0.609631  0  4.120999  0
C  C43  1  0.47655777  0.93945962  0.33159960  1  0  0.689011  0  3.828118  0  0  0.634316  0  4.11542  0  0  0.67044  0  4.10606  0  0  0.225538  0.609622  0  4.12121  0
O  O44  1  0.86452752  0.44018673  0.59907237  1  0  -0.686507  0  2.10809  0  0  -0.61988  0  2.389474  0  0  -0.646136  0  2.371385  0  0  -0.317755  -0.601341  0  2.401293  0
O  O45  1  0.36454917  0.05981089  0.59907578  1  0  -0.686339  0  2.108817  0  0  -0.619827  0  2.390328  0  0  -0.646086  0  2.372256  0  0  -0.317712  -0.601271  0  2.402106  0
O  O46  1  0.13546358  0.55980719  0.40092586  1  0  -0.686338  0  2.108458  0  0  -0.619865  0  2.389902  0  0  -0.646122  0  2.371825  0  0  -0.317727  -0.601317  0  2.401705  0
O  O47  1  0.63546299  0.94017922  0.40092430  1  0  -0.686401  0  2.108347  0  0  -0.6199  0  2.389821  0  0  -0.646158  0  2.371737  0  0  -0.317729  -0.601341  0  2.401603  0
O  O48  1  0.21877688  0.40499534  0.63967487  1  0  -0.646684  0  2.069899  0  0  -0.562791  0  2.321621  0  0  -0.592012  0  2.306807  0  0  -0.304523  -0.542653  0  2.331632  0
O  O49  1  0.71879875  0.09499907  0.63967013  1  0  -0.646948  0  2.0695  0  0  -0.563158  0  2.321315  0  0  -0.592429  0  2.306535  0  0  -0.304639  -0.542965  0  2.331293  0
O  O50  1  0.78121586  0.59499858  0.36033006  1  0  -0.646794  0  2.069687  0  0  -0.563025  0  2.321418  0  0  -0.592285  0  2.306631  0  0  -0.304604  -0.542829  0  2.331392  0
O  O51  1  0.28121341  0.90499485  0.36032828  1  0  -0.646676  0  2.069717  0  0  -0.562908  0  2.321483  0  0  -0.592162  0  2.306694  0  0  -0.304576  -0.542719  0  2.331464  0
O  O52  1  0.97702287  0.81298895  0.58522721  1  0  -0.999061  0  1.883698  0  0  -0.900859  0  2.17811  0  0  -0.932512  0  2.138437  0  0  -0.591538  -0.877996  0  2.205479  0
O  O53  1  0.47702310  0.68700585  0.58522574  1  0  -0.999012  0  1.883738  0  0  -0.900805  0  2.17814  0  0  -0.932459  0  2.138472  0  0  -0.591509  -0.877942  0  2.205498  0
O  O54  1  0.02298766  0.18700751  0.41477035  1  0  -0.999104  0  1.883819  0  0  -0.900855  0  2.178196  0  0  -0.932513  0  2.13852  0  0  -0.591508  -0.877991  0  2.205563  0
O  O55  1  0.52298906  0.31298553  0.41477434  1  0  -0.999023  0  1.883936  0  0  -0.90079  0  2.178331  0  0  -0.932452  0  2.138665  0  0  -0.591526  -0.877928  0  2.205694  0
