# generated using pymatgen
data_K4NiSn9H72(C2O)18
_symmetry_space_group_name_H-M   'P 1'
_cell_length_a   10.24643768
_cell_length_b   19.30883128
_cell_length_c   20.13351323
_cell_angle_alpha   73.22355764
_cell_angle_beta   79.84089746
_cell_angle_gamma   84.35807160
_symmetry_Int_Tables_number   1
_chemical_formula_structural   K4NiSn9H72(C2O)18
_chemical_formula_sum   'K8 Ni2 Sn18 H144 C72 O36'
_cell_volume   3749.26640936
_cell_formula_units_Z   2
loop_
 _symmetry_equiv_pos_site_id
 _symmetry_equiv_pos_as_xyz
  1  'x, y, z'
loop_
 _atom_site_type_symbol
 _atom_site_label
 _atom_site_symmetry_multiplicity
 _atom_site_fract_x
 _atom_site_fract_y
 _atom_site_fract_z
 _atom_site_occupancy
 _atom_site_pbe_bader_charge
 _atom_site_pbe_bader_spin_density
 _atom_site_pbe_cm5_charge
 _atom_site_pbe_ddec_charge
 _atom_site_pbe_ddec_spin_density
 _atom_site_pbe_ddec_sum_bond_order
 _atom_site_pbe_magmom
K  K0  1  0.01695150  0.79299505  0.30831187  1  0.769148  0  0.382908  0.658375  0  0.723348  0
K  K1  1  0.98333382  0.20687377  0.69168001  1  0.769431  0  0.382834  0.658481  0  0.723239  0
K  K2  1  0.72066519  0.06339159  0.29495890  1  0.848466  0  0.642708  0.780453  0  0.716042  0
K  K3  1  0.27930747  0.93659604  0.70504959  1  0.848403  0  0.642885  0.780349  0  0.71637  0
K  K4  1  0.20423976  0.66910886  0.54078911  1  0.857199  0  0.677837  0.788328  0  0.671615  0
K  K5  1  0.79577455  0.33089995  0.45920548  1  0.857175  0  0.677912  0.788343  0  0.671781  0
K  K6  1  0.33401134  0.79645655  0.06284813  1  0.849756  0  0.641559  0.782983  0  0.705449  0
K  K7  1  0.66603007  0.20353749  0.93716840  1  0.849712  0  0.641633  0.782921  0  0.705638  0
Ni  Ni8  1  0.51527482  0.81995600  0.29211340  1  -0.690153  0  0.155393  -0.068351  0  3.86381  0
Ni  Ni9  1  0.48485236  0.17997140  0.70785538  1  -0.689334  0  0.155386  -0.068195  0  3.8628  0
Sn  Sn10  1  0.72645035  0.89356244  0.22399331  1  -0.244375  0  -0.196092  -0.306859  0  2.955921  0
Sn  Sn11  1  0.27369666  0.10640084  0.77615028  1  -0.244084  0  -0.195781  -0.306288  0  2.954632  0
Sn  Sn12  1  0.63910312  0.85394225  0.38009093  1  -0.172512  0  -0.156913  -0.22321  0  2.963546  0
Sn  Sn13  1  0.36069837  0.14598755  0.61998863  1  -0.173056  0  -0.157125  -0.223886  0  2.962822  0
Sn  Sn14  1  0.71392720  0.72385874  0.29121334  1  -0.188789  0  -0.197814  -0.228398  0  2.82656  0
Sn  Sn15  1  0.28615676  0.27609630  0.70874537  1  -0.188725  0  -0.197735  -0.228062  0  2.825413  0
Sn  Sn16  1  0.32442219  0.87395548  0.21679047  1  -0.269237  0  -0.221115  -0.331969  0  2.995038  0
Sn  Sn17  1  0.67570855  0.12590331  0.78317367  1  -0.269297  0  -0.220661  -0.331796  0  2.99445  0
Sn  Sn18  1  0.29927295  0.83372218  0.37886908  1  -0.212348  0  -0.185549  -0.261369  0  2.902003  0
Sn  Sn19  1  0.70087045  0.16614013  0.62106169  1  -0.21163  0  -0.185103  -0.261324  0  2.901173  0
Sn  Sn20  1  0.38914656  0.70972223  0.28853439  1  -0.182366  0  -0.172239  -0.235272  0  2.746268  0
Sn  Sn21  1  0.61135820  0.29008652  0.71126098  1  -0.182161  0  -0.172338  -0.235115  0  2.749287  0
Sn  Sn22  1  0.58241128  0.79927046  0.16471674  1  -0.214223  0  -0.208109  -0.259849  0  2.975718  0
Sn  Sn23  1  0.41789871  0.20092742  0.83514884  1  -0.21532  0  -0.208603  -0.260473  0  2.975525  0
Sn  Sn24  1  0.46247593  0.95989379  0.28556045  1  -0.226214  0  -0.211933  -0.271115  0  2.936179  0
Sn  Sn25  1  0.53746626  0.04007071  0.71443514  1  -0.226636  0  -0.212251  -0.271225  0  2.938107  0
Sn  Sn26  1  0.50433529  0.71284460  0.41827366  1  -0.20105  0  -0.187814  -0.257181  0  2.963576  0
Sn  Sn27  1  0.49578059  0.28704630  0.58166376  1  -0.200859  0  -0.187898  -0.25725  0  2.962629  0
H  H28  1  0.90651445  0.89071324  0.10392793  1  0.080574  0  0.084705  0.063622  0  1.064503  0
H  H29  1  0.09346083  0.10928841  0.89608398  1  0.08104  0  0.084636  0.063432  0  1.064736  0
H  H30  1  0.96618612  0.89114485  0.01448503  1  -0.00749  0  0.089262  0.040097  0  1.028061  0
H  H31  1  0.03379117  0.10886709  0.98552492  1  -0.006567  0  0.089224  0.04009  0  1.027809  0
H  H32  1  0.75291272  0.82186095  0.91109009  1  0.033257  0  0.092424  0.053492  0  0.995764  0
H  H33  1  0.24708057  0.17813983  0.08889563  1  0.033281  0  0.092402  0.053452  0  0.995845  0
H  H34  1  0.69128971  0.83449084  0.99666146  1  0.043289  0  0.094609  0.060342  0  1.026697  0
H  H35  1  0.30872116  0.16551262  0.00332644  1  0.043156  0  0.094664  0.060411  0  1.026514  0
H  H36  1  0.04226049  0.99333735  0.05047148  1  0.036021  0  0.098088  0.064632  0  1.016041  0
H  H37  1  0.95772736  0.00666752  0.94954441  1  0.036175  0  0.098033  0.064582  0  1.016195  0
H  H38  1  0.13179082  0.92861575  0.11172943  1  0.0686  0  0.089158  0.050787  0  1.053466  0
H  H39  1  0.86817002  0.07138095  0.88829505  1  0.068931  0  0.089197  0.050913  0  1.053554  0
H  H40  1  0.94209454  0.76399510  0.04131175  1  -0.003591  0  0.090695  0.051088  0  0.988489  0
H  H41  1  0.05792629  0.23601872  0.95866402  1  -0.003458  0  0.090733  0.051217  0  0.98826  0
H  H42  1  0.87424784  0.76477099  0.12946915  1  0.094564  0  0.08711  0.064802  0  1.055516  0
H  H43  1  0.12573678  0.23523799  0.87050419  1  0.09387  0  0.087152  0.064863  0  1.055214  0
H  H44  1  0.65095825  0.70466111  0.05249685  1  0.082431  0  0.094786  0.056849  0  1.036249  0
H  H45  1  0.34904450  0.29534384  0.94750776  1  0.082015  0  0.094801  0.056948  0  1.036143  0
H  H46  1  0.73956712  0.69435703  0.97010372  1  0.024751  0  0.09581  0.06063  0  0.96712  0
H  H47  1  0.26043697  0.30564411  0.02990478  1  0.024706  0  0.095781  0.060546  0  0.967169  0
H  H48  1  0.38258811  0.54503487  0.05953335  1  0.015416  0  0.09639  0.056025  0  0.977288  0
H  H49  1  0.61739837  0.45497440  0.94047204  1  0.014831  0  0.096446  0.056102  0  0.977291  0
H  H50  1  0.31015779  0.61080247  0.99123379  1  0.013563  0  0.096472  0.055487  0  0.982794  0
H  H51  1  0.68985113  0.38921061  0.00876758  1  0.013431  0  0.096476  0.055572  0  0.982694  0
H  H52  1  0.53911228  0.64508212  0.94837874  1  0.013504  0  0.094779  0.051395  0  0.994092  0
H  H53  1  0.46088586  0.35491903  0.05162879  1  0.013556  0  0.094807  0.05144  0  0.994129  0
H  H54  1  0.60264199  0.59042612  0.02542722  1  0.033295  0  0.096937  0.059036  0  0.971155  0
H  H55  1  0.39735933  0.40957285  0.97458111  1  0.033428  0  0.096946  0.059019  0  0.971068  0
H  H56  1  0.33267407  0.98351056  0.04449590  1  0.061691  0  0.095935  0.056839  0  1.039203  0
H  H57  1  0.66730923  0.01648997  0.95552057  1  0.061903  0  0.09593  0.056829  0  1.038906  0
H  H58  1  0.24934964  0.04435762  0.97727280  1  0.041115  0  0.095021  0.061638  0  1.009098  0
H  H59  1  0.75063721  0.95563702  0.02273750  1  0.041007  0  0.095021  0.061657  0  1.009247  0
H  H60  1  0.14939255  0.56244030  0.10236970  1  0.024765  0  0.096399  0.059564  0  0.966359  0
H  H61  1  0.85060251  0.43757283  0.89762693  1  0.024808  0  0.096429  0.059589  0  0.966597  0
H  H62  1  0.24403252  0.60069611  0.14879209  1  0.064468  0  0.104729  0.064022  0  0.983168  0
H  H63  1  0.75594641  0.39931969  0.85120773  1  0.064368  0  0.104846  0.064123  0  0.983032  0
H  H64  1  0.65206237  0.94402283  0.89372929  1  0.030876  0  0.092907  0.055659  0  1.028291  0
H  H65  1  0.34791301  0.05597844  0.10626335  1  0.030408  0  0.09293  0.055602  0  1.02815  0
H  H66  1  0.54576229  0.89254090  0.86822439  1  0.056267  0  0.098779  0.06822  0  1.009973  0
H  H67  1  0.45419980  0.10745380  0.13177915  1  0.05657  0  0.098752  0.068197  0  1.010267  0
H  H68  1  0.06156086  0.68081651  0.17365862  1  0.04237  0  0.104424  0.053042  0  1.004816  0
H  H69  1  0.93841327  0.31918744  0.82633689  1  0.042692  0  0.104371  0.053036  0  1.004666  0
H  H70  1  0.96140324  0.64331744  0.12960742  1  0.036536  0  0.098097  0.061995  0  0.975601  0
H  H71  1  0.03858466  0.35669848  0.87037667  1  0.036598  0  0.0981  0.061965  0  0.975586  0
H  H72  1  0.36877011  0.97877254  0.89078104  1  0.041369  0  0.087753  0.054949  0  1.043202  0
H  H73  1  0.63119599  0.02121065  0.10924215  1  0.041172  0  0.087748  0.055023  0  1.043191  0
H  H74  1  0.47173853  0.02558475  0.92309483  1  0.092666  0  0.092923  0.064417  0  1.0325  0
H  H75  1  0.52824045  0.97440936  0.07691432  1  0.093608  0  0.09293  0.064481  0  1.032402  0
H  H76  1  0.32337401  0.21429891  0.27007872  1  0.032791  0  0.094236  0.058908  0  0.970386  0
H  H77  1  0.67660547  0.78570065  0.72992445  1  0.032873  0  0.094306  0.059008  0  0.970404  0
H  H78  1  0.38965819  0.12892259  0.25579948  1  0.057526  0  0.091292  0.05337  0  1.041499  0
H  H79  1  0.61033714  0.87107695  0.74420575  1  0.057536  0  0.091268  0.053417  0  1.041477  0
H  H80  1  0.38153090  0.08253209  0.38058997  1  0.036787  0  0.094442  0.052806  0  1.037614  0
H  H81  1  0.61845891  0.91747339  0.61941714  1  0.036756  0  0.094469  0.052864  0  1.037443  0
H  H82  1  0.32688668  0.16945301  0.39452075  1  0.03927  0  0.095236  0.062191  0  0.993994  0
H  H83  1  0.67307632  0.83055307  0.60547964  1  0.039072  0  0.095266  0.062297  0  0.994112  0
H  H84  1  0.54286813  0.17299694  0.43801930  1  0.045129  0  0.098508  0.058471  0  1.008177  0
H  H85  1  0.45709638  0.82701394  0.56198760  1  0.045374  0  0.098493  0.058395  0  1.008269  0
H  H86  1  0.43965534  0.10337288  0.49140889  1  0.074267  0  0.088608  0.061979  0  1.051061  0
H  H87  1  0.56031261  0.89664338  0.50860123  1  0.074664  0  0.088595  0.061904  0  1.05119  0
H  H88  1  0.11623033  0.05999196  0.33987989  1  0.01003  0  0.090337  0.050081  0  0.99926  0
H  H89  1  0.88379354  0.94000975  0.66012372  1  0.010655  0  0.090275  0.050014  0  0.999285  0
H  H90  1  0.15288018  0.97553738  0.31919068  1  0.088703  0  0.085128  0.063297  0  1.063053  0
H  H91  1  0.84710935  0.02446052  0.68081651  1  0.08853  0  0.085075  0.063239  0  1.063163  0
H  H92  1  0.77729621  0.11274143  0.09930170  1  0.080268  0  0.109531  0.076862  0  1.01323  0
H  H93  1  0.22270141  0.88727599  0.90069752  1  0.080793  0  0.109566  0.076913  0  1.013098  0
H  H94  1  0.88031024  0.18684833  0.05526385  1  0.060099  0  0.102193  0.068118  0  0.99525  0
H  H95  1  0.11967532  0.81317070  0.94473750  1  0.059343  0  0.102183  0.068116  0  0.995439  0
H  H96  1  0.93232248  0.93197038  0.38623465  1  0.049037  0  0.09535  0.038813  0  1.050079  0
H  H97  1  0.06765109  0.06804977  0.61376299  1  0.050098  0  0.095275  0.038674  0  1.050216  0
H  H98  1  0.03924969  0.95166891  0.43911444  1  0.046967  0  0.095562  0.062987  0  1.008499  0
H  H99  1  0.96073829  0.04833498  0.56088779  1  0.043845  0  0.095592  0.062955  0  1.008574  0
H  H100  1  0.74653640  0.26026461  0.13184591  1  0.026648  0  0.09512  0.054684  0  0.981586  0
H  H101  1  0.25343777  0.73974898  0.86815940  1  0.026643  0  0.09518  0.054609  0  0.981592  0
H  H102  1  0.65498869  0.23529762  0.07499956  1  0.053131  0  0.102708  0.06316  0  1.01287  0
H  H103  1  0.34499252  0.76471492  0.92500343  1  0.05163  0  0.102674  0.063087  0  1.012915  0
H  H104  1  0.83582140  0.97471717  0.52226668  1  0.060335  0  0.094954  0.062513  0  0.993622  0
H  H105  1  0.16415443  0.02529963  0.47774358  1  0.060193  0  0.09492  0.06246  0  0.993503  0
H  H106  1  0.74549609  0.94820129  0.46546056  1  0.04613  0  0.091375  0.049293  0  1.054476  0
H  H107  1  0.25451189  0.05181127  0.53453955  1  0.045789  0  0.091382  0.049305  0  1.054668  0
H  H108  1  0.44408413  0.23493587  0.14957159  1  0.079611  0  0.097829  0.064516  0  1.027003  0
H  H109  1  0.55589398  0.76506744  0.85043615  1  0.079736  0  0.097893  0.064597  0  1.026917  0
H  H110  1  0.52955103  0.27338752  0.19992218  1  0.01803  0  0.090161  0.044063  0  1.013854  0
H  H111  1  0.47042794  0.72661745  0.80008057  1  0.018175  0  0.09011  0.043974  0  1.013846  0
H  H112  1  0.61216091  0.02856259  0.53696605  1  0.069145  0  0.095372  0.060093  0  1.03316  0
H  H113  1  0.38781788  0.97144394  0.46304424  1  0.069334  0  0.095364  0.060047  0  1.033326  0
H  H114  1  0.72027307  0.09902538  0.49160088  1  0.042993  0  0.091438  0.057951  0  1.026798  0
H  H115  1  0.27970825  0.90098608  0.50840189  1  0.043131  0  0.091372  0.057794  0  1.02665  0
H  H116  1  0.08891195  0.84411506  0.66595528  1  0.067557  0  0.105772  0.069658  0  1.01232  0
H  H117  1  0.91108728  0.15589590  0.33404206  1  0.068425  0  0.105877  0.069709  0  1.012242  0
H  H118  1  0.99935844  0.76268683  0.69383738  1  0.033263  0  0.095823  0.054642  0  0.978663  0
H  H119  1  0.00063865  0.23732573  0.30616270  1  0.033454  0  0.095797  0.054647  0  0.978586  0
H  H120  1  0.48190415  0.46696932  0.63702023  1  0.049516  0  0.095102  0.061524  0  1.026384  0
H  H121  1  0.51806666  0.53302753  0.36298494  1  0.04969  0  0.095002  0.061442  0  1.026423  0
H  H122  1  0.31762453  0.48275021  0.67756878  1  0.066901  0  0.097654  0.061771  0  0.982433  0
H  H123  1  0.68235067  0.51725258  0.32243688  1  0.066891  0  0.097677  0.061872  0  0.982523  0
H  H124  1  0.82589652  0.67339642  0.54068650  1  0.006805  0  0.097929  0.063039  0  0.972812  0
H  H125  1  0.17410681  0.32661285  0.45931938  1  0.007119  0  0.097937  0.062967  0  0.973033  0
H  H126  1  0.79405414  0.72769291  0.45618605  1  0.070965  0  0.083069  0.052858  0  1.074328  0
H  H127  1  0.20592575  0.27231255  0.54382195  1  0.071135  0  0.083042  0.052749  0  1.074267  0
H  H128  1  0.96834384  0.81314061  0.46340128  1  0.0537  0  0.096058  0.046556  0  1.040638  0
H  H129  1  0.03165184  0.18686605  0.53659207  1  0.05381  0  0.096024  0.046615  0  1.040762  0
H  H130  1  0.81015667  0.81305089  0.51752399  1  0.0524  0  0.09207  0.056096  0  1.024708  0
H  H131  1  0.18984954  0.18695952  0.48247387  1  0.052  0  0.092093  0.056218  0  1.024688  0
H  H132  1  0.90411959  0.63059941  0.40120103  1  0.066818  0  0.089886  0.04805  0  1.043456  0
H  H133  1  0.09584734  0.36939633  0.59880727  1  0.067165  0  0.089863  0.048048  0  1.043408  0
H  H134  1  0.90524719  0.58185800  0.49129078  1  0.036085  0  0.102315  0.066993  0  1.015068  0
H  H135  1  0.09473504  0.41814368  0.50871704  1  0.035955  0  0.102312  0.067027  0  1.014993  0
H  H136  1  0.35060626  0.55767961  0.43869352  1  0.050366  0  0.093857  0.05521  0  1.042964  0
H  H137  1  0.64936643  0.44232853  0.56131787  1  0.050306  0  0.093894  0.055227  0  1.042935  0
H  H138  1  0.27463737  0.47501145  0.44737117  1  0.008267  0  0.095341  0.055864  0  0.991841  0
H  H139  1  0.72533931  0.52499681  0.55262642  1  0.007925  0  0.095361  0.055933  0  0.991904  0
H  H140  1  0.49221859  0.54955452  0.70674045  1  0.020674  0  0.095296  0.058226  0  0.973959  0
H  H141  1  0.50777278  0.45044505  0.29326216  1  0.020584  0  0.095306  0.058239  0  0.974064  0
H  H142  1  0.52304012  0.59980970  0.61559296  1  0.026113  0  0.09834  0.055955  0  1.001105  0
H  H143  1  0.47694062  0.40018722  0.38440286  1  0.025977  0  0.098366  0.056048  0  1.001055  0
H  H144  1  0.92320775  0.85873030  0.59144602  1  0.029855  0  0.095065  0.055565  0  1.009528  0
H  H145  1  0.07678485  0.14127741  0.40855179  1  0.030075  0  0.095064  0.055638  0  1.009422  0
H  H146  1  0.08167598  0.84965070  0.54017586  1  0.050388  0  0.099741  0.059222  0  1.02945  0
H  H147  1  0.91832596  0.15036294  0.45982399  1  0.050374  0  0.099711  0.059236  0  1.029501  0
H  H148  1  0.07368726  0.53364728  0.40617261  1  0.021274  0  0.099395  0.063339  0  0.974972  0
H  H149  1  0.92629284  0.46635606  0.59383147  1  0.021157  0  0.099361  0.063309  0  0.975004  0
H  H150  1  0.15987684  0.61592988  0.38402393  1  0.064587  0  0.091223  0.04853  0  1.054925  0
H  H151  1  0.84010565  0.38406913  0.61598060  1  0.064283  0  0.091186  0.048562  0  1.055139  0
H  H152  1  0.25756276  0.44649289  0.57984940  1  0.051069  0  0.094928  0.060504  0  1.013896  0
H  H153  1  0.74241425  0.55350126  0.42015396  1  0.051471  0  0.094964  0.060581  0  1.013919  0
H  H154  1  0.42162522  0.44732865  0.53322638  1  0.075179  0  0.092493  0.070053  0  1.033241  0
H  H155  1  0.57835014  0.55267256  0.46677323  1  0.074849  0  0.092458  0.070034  0  1.033316  0
H  H156  1  0.44134865  0.71331482  0.63873543  1  0.046363  0  0.103117  0.064565  0  1.002463  0
H  H157  1  0.55865268  0.28668418  0.36127041  1  0.046452  0  0.103103  0.064548  0  1.002458  0
H  H158  1  0.42666547  0.66550218  0.72975705  1  0.034497  0  0.093296  0.052366  0  0.998401  0
H  H159  1  0.57331990  0.33449790  0.27024843  1  0.034375  0  0.093272  0.052333  0  0.998358  0
H  H160  1  0.18018045  0.69396636  0.74310194  1  0.041262  0  0.096811  0.055265  0  0.977085  0
H  H161  1  0.81980958  0.30603701  0.25689777  1  0.041324  0  0.096786  0.055218  0  0.977182  0
H  H162  1  0.27872253  0.77194766  0.71753378  1  0.060347  0  0.105327  0.067078  0  1.008691  0
H  H163  1  0.72126983  0.22805190  0.28246973  1  0.06042  0  0.105324  0.067081  0  1.008693  0
H  H164  1  0.05777398  0.10275758  0.10059038  1  0.022978  0  0.094257  0.056261  0  1.002593  0
H  H165  1  0.94221006  0.89725659  0.89941042  1  0.023459  0  0.09414  0.056115  0  1.002638  0
H  H166  1  0.94503528  0.03563118  0.15357144  1  0.087222  0  0.100361  0.0621  0  1.015386  0
H  H167  1  0.05494866  0.96438407  0.84643007  1  0.088173  0  0.100377  0.062079  0  1.015496  0
H  H168  1  0.15900125  0.02825026  0.20025316  1  0.049512  0  0.092921  0.062152  0  1.029231  0
H  H169  1  0.84099277  0.97176342  0.79974192  1  0.049231  0  0.093023  0.062459  0  1.02935  0
H  H170  1  0.12273800  0.11785949  0.21031829  1  0.004578  0  0.091747  0.053208  0  0.98008  0
H  H171  1  0.87726270  0.88215691  0.78967497  1  0.004687  0  0.091721  0.053192  0  0.980131  0
C  C172  1  0.99632921  0.88388512  0.06634288  1  0.41783  0  -0.080606  -0.001597  0  3.938658  0
C  C173  1  0.00364844  0.11612305  0.93366508  1  0.416483  0  -0.080472  -0.00137  0  3.938291  0
C  C174  1  0.66230794  0.83029161  0.94759551  1  0.401143  0  -0.076772  -0.00748  0  3.939785  0
C  C175  1  0.33768659  0.16970643  0.05239531  1  0.401328  0  -0.076715  -0.007383  0  3.939668  0
C  C176  1  0.09357170  0.93916265  0.06135208  1  0.397535  0  -0.083425  -0.013358  0  3.942624  0
C  C177  1  0.90641522  0.06084168  0.93866254  1  0.396587  0  -0.083405  -0.013324  0  3.942623  0
C  C178  1  0.96756403  0.75866265  0.09392681  1  0.416344  0  -0.077373  -0.006459  0  3.95784  0
C  C179  1  0.03243538  0.24134679  0.90605751  1  0.416968  0  -0.07738  -0.006763  0  3.957555  0
C  C180  1  0.63992146  0.70354273  0.99906923  1  0.415744  0  -0.07577  -0.010496  0  3.9586  0
C  C181  1  0.36008279  0.29645680  0.00093720  1  0.416615  0  -0.075807  -0.010514  0  3.958637  0
C  C182  1  0.33724251  0.60071984  0.04425473  1  0.46711  0  -0.070197  6.7e-05  0  3.979569  0
C  C183  1  0.66275284  0.39928999  0.95574873  1  0.467536  0  -0.070201  -6.3e-05  0  3.979794  0
C  C184  1  0.55353489  0.64342637  0.00208179  1  0.454844  0  -0.07076  0.001875  0  3.974183  0
C  C185  1  0.44647040  0.35657261  0.99792620  1  0.454418  0  -0.070737  0.001956  0  3.974023  0
C  C186  1  0.29544182  0.98929940  0.99482750  1  0.389781  0  -0.079137  -0.000943  0  3.922693  0
C  C187  1  0.70454229  0.01069243  0.00519721  1  0.389812  0  -0.079116  -0.000817  0  3.922365  0
C  C188  1  0.21511940  0.60670531  0.09690318  1  0.451746  0  -0.071124  -0.003634  0  3.975495  0
C  C189  1  0.78487148  0.39330996  0.90309572  1  0.451923  0  -0.07123  -0.003805  0  3.976064  0
C  C190  1  0.58569038  0.89820972  0.91383256  1  0.46212  0  -0.076411  -0.002827  0  3.93342  0
C  C191  1  0.41429600  0.10179043  0.08616437  1  0.462589  0  -0.07647  -0.002946  0  3.933851  0
C  C192  1  0.03283735  0.68536276  0.12203061  1  0.436305  0  -0.072019  -0.00803  0  3.96856  0
C  C193  1  0.96715283  0.31464992  0.87795416  1  0.436468  0  -0.071822  -0.007894  0  3.968418  0
C  C194  1  0.40715855  0.97915902  0.93864530  1  0.387266  0  -0.080883  -0.006455  0  3.917061  0
C  C195  1  0.59283063  0.02083178  0.06137228  1  0.38597  0  -0.08085  -0.006571  0  3.916885  0
C  C196  1  0.41612646  0.18146795  0.26043175  1  0.419467  0  -0.077462  -0.007127  0  3.96111  0
C  C197  1  0.58386272  0.81853375  0.73957395  1  0.419222  0  -0.077554  -0.007354  0  3.961205  0
C  C198  1  0.41514468  0.13445862  0.38286367  1  0.415024  0  -0.078047  -0.009616  0  3.947734  0
C  C199  1  0.58482891  0.86555068  0.61713938  1  0.415155  0  -0.078119  -0.009682  0  3.947533  0
C  C200  1  0.50065622  0.12203583  0.43912578  1  0.400129  0  -0.077217  -0.000141  0  3.925491  0
C  C201  1  0.49932133  0.87797344  0.56088090  1  0.399176  0  -0.07717  2e-05  0  3.925641  0
C  C202  1  0.07112902  0.01394438  0.33147440  1  0.394811  0  -0.078762  -0.005109  0  3.944151  0
C  C203  1  0.92887729  0.98606492  0.66852673  1  0.394879  0  -0.078757  -0.005076  0  3.944059  0
C  C204  1  0.81775739  0.16103789  0.10548727  1  0.420974  0  -0.074543  -0.014059  0  3.940497  0
C  C205  1  0.18222540  0.83897897  0.89451540  1  0.421489  0  -0.074569  -0.014213  0  3.940851  0
C  C206  1  0.98030369  0.97615093  0.39631602  1  0.404514  0  -0.078462  -0.013822  0  3.964456  0
C  C207  1  0.01969057  0.02386001  0.60368376  1  0.407581  0  -0.078483  -0.013623  0  3.964556  0
C  C208  1  0.70665766  0.21395297  0.12108810  1  0.42221  0  -0.069476  0.001978  0  3.950522  0
C  C209  1  0.29332037  0.78606171  0.87891707  1  0.423539  0  -0.069403  0.00233  0  3.950392  0
C  C210  1  0.78691808  0.99471242  0.47496626  1  0.383004  0  -0.079291  -0.007699  0  3.935695  0
C  C211  1  0.21307451  0.00530548  0.52504122  1  0.382964  0  -0.07921  -0.007496  0  3.935598  0
C  C212  1  0.50041989  0.22197654  0.19399121  1  0.4191  0  -0.076699  -0.007521  0  3.962098  0
C  C213  1  0.49956481  0.77803060  0.80601094  1  0.417772  0  -0.076702  -0.007523  0  3.962062  0
C  C214  1  0.67845828  0.05022524  0.48692490  1  0.407874  0  -0.078146  -0.001402  0  3.919016  0
C  C215  1  0.32151961  0.94979108  0.51307736  1  0.408971  0  -0.078031  -0.001243  0  3.919141  0
C  C216  1  0.06929197  0.79599479  0.65080539  1  0.433788  0  -0.070159  -0.000186  0  3.939028  0
C  C217  1  0.93071445  0.20401344  0.34919403  1  0.432051  0  -0.070202  -6.8e-05  0  3.938737  0
C  C218  1  0.40076282  0.50894456  0.63829412  1  0.416367  0  -0.073242  -0.000189  0  3.941536  0
C  C219  1  0.59921665  0.49105497  0.36171254  1  0.419013  0  -0.073211  -6e-05  0  3.941109  0
C  C220  1  0.86898095  0.71325928  0.49201448  1  0.43064  0  -0.082891  -0.009469  0  3.938599  0
C  C221  1  0.13100647  0.28675056  0.50798719  1  0.430558  0  -0.082922  -0.00921  0  3.938733  0
C  C222  1  0.90226460  0.77990988  0.50847653  1  0.363699  0  -0.080623  -0.00796  0  3.958183  0
C  C223  1  0.09773588  0.22009840  0.49151844  1  0.363602  0  -0.080619  -0.008226  0  3.958266  0
C  C224  1  0.96317779  0.61746579  0.44472465  1  0.403022  0  -0.077407  -0.002769  0  3.929989  0
C  C225  1  0.03678937  0.38253806  0.55528243  1  0.403081  0  -0.077498  -0.00291  0  3.930117  0
C  C226  1  0.28173487  0.51712873  0.47385728  1  0.436885  0  -0.079225  -0.006524  0  3.942867  0
C  C227  1  0.71823512  0.48287678  0.52614562  1  0.43797  0  -0.079282  -0.006458  0  3.943383  0
C  C228  1  0.44729168  0.57071185  0.65820278  1  0.453434  0  -0.074756  -0.003233  0  3.966378  0
C  C229  1  0.55268690  0.42928662  0.34180126  1  0.450436  0  -0.074839  -0.003452  0  3.966508  0
C  C230  1  0.00890380  0.82058888  0.58430722  1  0.436699  0  -0.077301  -0.006644  0  3.963347  0
C  C231  1  0.99110038  0.17942208  0.41569018  1  0.43694  0  -0.077509  -0.007045  0  3.964004  0
C  C232  1  0.09313281  0.57906144  0.42572585  1  0.418813  0  -0.075468  -0.004493  0  3.94789  0
C  C233  1  0.90684199  0.42094571  0.57427568  1  0.418987  0  -0.075434  -0.004318  0  3.947653  0
C  C234  1  0.33173605  0.48205030  0.54232369  1  0.405055  0  -0.079202  -0.004289  0  3.916312  0
C  C235  1  0.66824270  0.51794659  0.45767579  1  0.40468  0  -0.079411  -0.004739  0  3.917103  0
C  C236  1  0.37359137  0.68153438  0.68380831  1  0.436357  0  -0.07422  -0.004932  0  3.974844  0
C  C237  1  0.62640470  0.31846789  0.31619414  1  0.436507  0  -0.07419  -0.004851  0  3.974565  0
C  C238  1  0.25051093  0.72702299  0.70012085  1  0.432363  0  -0.070114  -0.001176  0  3.954712  0
C  C239  1  0.74948505  0.27298041  0.29987584  1  0.432068  0  -0.070137  -0.001119  0  3.954527  0
C  C240  1  0.99363906  0.08489515  0.15216180  1  0.402563  0  -0.077546  -0.011979  0  3.959249  0
C  C241  1  0.00635265  0.91512171  0.84784107  1  0.400937  0  -0.077405  -0.011775  0  3.959576  0
C  C242  1  0.07766258  0.06821157  0.20959795  1  0.450012  0  -0.07466  0.004839  0  3.946401  0
C  C243  1  0.92232804  0.93180638  0.79040373  1  0.449913  0  -0.074762  0.004518  0  3.946615  0
O  O244  1  0.57906587  0.77034059  0.96331437  1  -1.057011  0  -0.255411  -0.245378  0  2.548692  0
O  O245  1  0.42093291  0.22965412  0.03668739  1  -1.057305  0  -0.255403  -0.245384  0  2.548628  0
O  O246  1  0.42838181  0.65212447  0.04355610  1  -1.055549  0  -0.255455  -0.241156  0  2.541303  0
O  O247  1  0.57162729  0.34787613  0.95645160  1  -1.05555  0  -0.255497  -0.241288  0  2.541373  0
O  O248  1  0.47999896  0.91239417  0.96532317  1  -1.066683  0  -0.277697  -0.255463  0  2.525433  0
O  O249  1  0.51999380  0.08760102  0.03468496  1  -1.066579  0  -0.27757  -0.255322  0  2.525405  0
O  O250  1  0.20049316  0.93568450  0.00598865  1  -1.071185  0  -0.274639  -0.258997  0  2.533705  0
O  O251  1  0.79949287  0.06430785  0.99403773  1  -1.070397  0  -0.274757  -0.259275  0  2.5334  0
O  O252  1  0.05672050  0.81285224  0.08922148  1  -1.072226  0  -0.28475  -0.268643  0  2.55001  0
O  O253  1  0.94326370  0.18716032  0.91077775  1  -1.072735  0  -0.284851  -0.268566  0  2.549801  0
O  O254  1  0.14825284  0.67532612  0.07314892  1  -1.054371  0  -0.255608  -0.247479  0  2.502039  0
O  O255  1  0.85174813  0.32468758  0.92684405  1  -1.054546  0  -0.255746  -0.247373  0  2.502163  0
O  O256  1  0.61630851  0.17757643  0.18057515  1  -1.063461  0  -0.258046  -0.244393  0  2.538968  0
O  O257  1  0.38367385  0.82243449  0.81942618  1  -1.06266  0  -0.258229  -0.244576  0  2.539022  0
O  O258  1  0.49031858  0.16934574  0.31668847  1  -1.051359  0  -0.255284  -0.242417  0  2.535696  0
O  O259  1  0.50966110  0.83066189  0.68331946  1  -1.051309  0  -0.255167  -0.242284  0  2.535415  0
O  O260  1  0.60473098  0.06928660  0.42953954  1  -1.062333  0  -0.28765  -0.25543  0  2.517106  0
O  O261  1  0.39523263  0.93072318  0.57047022  1  -1.062576  0  -0.287841  -0.255587  0  2.516933  0
O  O262  1  0.89510314  0.14065359  0.16137607  1  -1.063001  0  -0.265646  -0.256824  0  2.494088  0
O  O263  1  0.10487841  0.85936599  0.83862449  1  -1.062523  0  -0.265713  -0.256767  0  2.494493  0
O  O264  1  0.88083386  0.02746861  0.41515599  1  -1.057134  0  -0.25706  -0.242629  0  2.521025  0
O  O265  1  0.11916160  0.97255035  0.58485393  1  -1.058353  0  -0.257136  -0.242773  0  2.521171  0
O  O266  1  0.99565575  0.03934274  0.27502681  1  -1.062282  0  -0.286134  -0.264663  0  2.563995  0
O  O267  1  0.00434260  0.96067739  0.72497160  1  -1.062889  0  -0.28613  -0.264581  0  2.563889  0
O  O268  1  0.33583998  0.61911946  0.66909602  1  -1.063145  0  -0.263092  -0.250365  0  2.509682  0
O  O269  1  0.66414691  0.38088550  0.33090801  1  -1.06294  0  -0.26311  -0.250398  0  2.509788  0
O  O270  1  0.96731079  0.75897184  0.56922606  1  -1.051894  0  -0.27827  -0.264843  0  2.505076  0
O  O271  1  0.03269440  0.24103917  0.43076478  1  -1.051993  0  -0.278037  -0.264521  0  2.505275  0
O  O272  1  0.98831717  0.68247602  0.46013294  1  -1.06892  0  -0.287967  -0.275224  0  2.528819  0
O  O273  1  0.01166676  0.31752900  0.53986388  1  -1.068776  0  -0.287868  -0.275268  0  2.528875  0
O  O274  1  0.35994330  0.53763626  0.57097266  1  -1.072607  0  -0.283447  -0.260318  0  2.542265  0
O  O275  1  0.64003333  0.46236160  0.42904065  1  -1.07257  0  -0.283338  -0.260126  0  2.542474  0
O  O276  1  0.15387695  0.55189520  0.48764319  1  -1.061246  0  -0.276006  -0.256101  0  2.515196  0
O  O277  1  0.84608585  0.44811304  0.51235713  1  -1.061668  0  -0.276006  -0.256267  0  2.515371  0
O  O278  1  0.18961066  0.75426651  0.63854472  1  -1.059269  0  -0.267939  -0.242833  0  2.515272  0
O  O279  1  0.81038797  0.24574008  0.36145733  1  -1.058852  0  -0.267885  -0.242927  0  2.515121  0
