# generated using pymatgen
data_MnPH16C26(NO3)2
_symmetry_space_group_name_H-M   'P 1'
_cell_length_a   9.63439580
_cell_length_b   11.01997352
_cell_length_c   11.58250000
_cell_angle_alpha   87.98674169
_cell_angle_beta   79.22570974
_cell_angle_gamma   67.68911487
_symmetry_Int_Tables_number   1
_chemical_formula_structural   MnPH16C26(NO3)2
_chemical_formula_sum   'Mn2 P2 H32 C52 N4 O12'
_cell_volume   1116.73827125
_cell_formula_units_Z   2
loop_
 _symmetry_equiv_pos_site_id
 _symmetry_equiv_pos_as_xyz
  1  'x, y, z'
loop_
 _atom_site_type_symbol
 _atom_site_label
 _atom_site_symmetry_multiplicity
 _atom_site_fract_x
 _atom_site_fract_y
 _atom_site_fract_z
 _atom_site_occupancy
 _atom_site_hle17_ddec_charge
 _atom_site_hle17_ddec_spin_density
 _atom_site_hle17_ddec_sum_bond_order
 _atom_site_hle17_magmom
 _atom_site_hse06_10hf_ddec_charge
 _atom_site_hse06_10hf_ddec_spin_density
 _atom_site_hse06_10hf_ddec_sum_bond_order
 _atom_site_hse06_10hf_magmom
 _atom_site_hse06_ddec_charge
 _atom_site_hse06_ddec_spin_density
 _atom_site_hse06_ddec_sum_bond_order
 _atom_site_hse06_magmom
 _atom_site_pbe_bader_charge
 _atom_site_pbe_bader_spin_density
 _atom_site_pbe_cm5_charge
 _atom_site_pbe_ddec_charge
 _atom_site_pbe_ddec_spin_density
 _atom_site_pbe_ddec_sum_bond_order
 _atom_site_pbe_magmom
Mn  Mn0  1  0.06457081  0.30104066  0.35451149  1  1.323322  4.128491  2.275594  4.044  1.246215  3.837732  2.79103  3.715  1.365512  3.90676  2.694705  3.8  1.736113  3.646405  0.805531  1.160424  3.765693  2.860882  3.628
Mn  Mn1  1  0.93543009  0.69896204  0.64548923  1  1.323328  4.128555  2.275573  4.044  1.246192  3.837765  2.791027  3.715  1.36549  3.906786  2.694703  3.8  1.735852  3.646467  0.805451  1.160326  3.765631  2.860841  3.628
P  P2  1  0.17340493  0.35474603  0.59262259  1  1.176622  0.007968  4.691669  0.008  1.055713  0.011844  5.149501  0.009  1.10254  0.008402  5.126128  0.007  3.031514  0.010178  0.310116  1.02224  0.014931  5.164901  0.01
P  P3  1  0.82658782  0.64524881  0.40737794  1  1.176674  0.007969  4.691685  0.008  1.055705  0.011846  5.149542  0.009  1.102529  0.008405  5.126174  0.007  3.031802  0.010177  0.310058  1.022238  0.014932  5.164944  0.01
H  H4  1  0.19576228  0.46306970  0.80494347  1  0.098459  -0.000437  0.947062  0.0  0.109232  -0.000318  1.006025  0.0  0.112745  -0.000323  1.003762  0.0  0.090329  -3.1e-05  0.104987  0.106706  -0.000288  1.007688  0.0
H  H5  1  0.80424315  0.53692514  0.19504558  1  0.098364  -0.000433  0.947261  0.0  0.109194  -0.000318  1.006153  0.0  0.112705  -0.000324  1.003893  0.0  0.090493  -3.1e-05  0.104998  0.106661  -0.000288  1.007834  0.0
H  H6  1  0.14458265  0.41546619  0.01655640  1  0.099849  -0.0007  0.950631  0.0  0.108623  -0.000324  1.011951  0.0  0.111614  -0.000322  1.011123  0.0  0.089084  -0.000102  0.100504  0.106538  -0.000286  1.012511  0.0
H  H7  1  0.85542738  0.58453259  0.98343439  1  0.099825  -0.000683  0.950683  0.0  0.1086  -0.000324  1.011995  0.0  0.111592  -0.000325  1.011165  0.0  0.089429  -0.000102  0.100469  0.106515  -0.000286  1.012558  0.0
H  H8  1  0.00942013  0.10624358  0.92625190  1  0.11068  -5.6e-05  0.94612  0.0  0.118812  -8e-06  1.009118  0.0  0.123185  -9e-06  1.005724  0.0  0.109591  -3e-06  0.107318  0.115799  6e-06  1.011417  0.0
H  H9  1  0.99058356  0.89375519  0.07375283  1  0.11072  -5.3e-05  0.946035  0.0  0.118852  -8e-06  1.009036  0.0  0.123227  -9e-06  1.005639  0.0  0.109579  -3e-06  0.107334  0.115835  6e-06  1.011343  0.0
H  H10  1  0.06449603  0.14950139  0.71475509  1  0.124646  -0.000593  0.955639  0.0  0.132477  -0.000125  1.017091  0.0  0.136841  -0.000159  1.013789  0.0  0.146472  -2.2e-05  0.108904  0.128976  -7.4e-05  1.020265  0.0
H  H11  1  0.93550076  0.85049149  0.28525091  1  0.124618  -0.000594  0.955661  0.0  0.132457  -0.000125  1.017097  0.0  0.136818  -0.000159  1.0138  0.0  0.146361  -2.2e-05  0.108916  0.128952  -7.4e-05  1.020283  0.0
H  H12  1  0.38480265  0.10995024  0.47096582  1  0.092881  -0.000667  0.983434  0.0  0.100632  -0.00039  1.049878  0.0  0.102988  -0.000414  1.049494  0.0  0.090077  -9.7e-05  0.10353  0.099072  -0.00037  1.049886  0.0
H  H13  1  0.61520135  0.89004068  0.52903568  1  0.092791  -0.000667  0.983538  0.0  0.100546  -0.00039  1.04997  0.0  0.1029  -0.000414  1.049585  0.0  0.089434  -9.7e-05  0.103522  0.098984  -0.00037  1.049973  0.0
H  H14  1  0.66761263  0.02223801  0.39533702  1  0.101292  9e-06  0.950789  0.0  0.110491  2.8e-05  1.014582  0.0  0.11355  2.2e-05  1.013304  0.0  0.090334  0.00012  0.105985  0.108091  5.3e-05  1.015828  0.0
H  H15  1  0.33239112  0.97775586  0.60466441  1  0.101324  9e-06  0.950685  0.0  0.110448  2.8e-05  1.014554  0.0  0.113553  2.2e-05  1.013223  0.0  0.090328  0.00012  0.105964  0.108043  5.3e-05  1.015804  0.0
H  H16  1  0.68902671  0.37205819  0.52636941  1  0.105092  -0.000325  0.96803  0.0  0.111437  -5.1e-05  1.035414  0.0  0.114421  -0.000151  1.034038  0.0  0.118693  0.000392  0.105154  0.109378  4.5e-05  1.036329  0.0
H  H17  1  0.31096791  0.62793961  0.47362641  1  0.105108  -0.000304  0.96799  0.0  0.111457  -5.1e-05  1.035375  0.0  0.114435  -0.000153  1.033999  0.0  0.118902  0.000392  0.105178  0.109388  4.5e-05  1.036299  0.0
H  H18  1  0.40781601  0.45911174  0.60618164  1  0.094363  -0.000141  0.956165  0.0  0.104314  -3.9e-05  1.018077  0.0  0.107101  -5.5e-05  1.017197  0.0  0.087528  0.000149  0.102993  0.102351  -1.8e-05  1.018603  0.0
H  H19  1  0.59217650  0.54088605  0.39381278  1  0.094352  -0.000139  0.956107  0.0  0.104305  -3.9e-05  1.018038  0.0  0.107091  -5.5e-05  1.01716  0.0  0.087436  0.000149  0.102996  0.102327  -1.8e-05  1.01859  0.0
H  H20  1  0.11670969  0.56568712  0.36360102  1  0.096084  -0.001127  0.973052  -0.001  0.103062  -0.000634  1.037376  0.0  0.105746  -0.000799  1.034365  -0.001  0.166224  -0.00013  0.132774  0.100774  -0.000413  1.03994  0.0
H  H21  1  0.88328736  0.43431951  0.63640534  1  0.096074  -0.001122  0.973114  -0.001  0.103042  -0.000634  1.037475  0.0  0.105721  -0.0008  1.034459  -0.001  0.166259  -0.000131  0.132789  0.100748  -0.000413  1.040034  0.0
H  H22  1  0.29527962  0.65666231  0.24575297  1  0.110824  -0.000191  0.94078  0.0  0.124696  -0.000175  0.99224  0.0  0.127718  -0.000197  0.991969  0.0  0.111582  -4.3e-05  0.115438  0.121724  -9.6e-05  0.994321  0.0
H  H23  1  0.70471389  0.34334039  0.75424286  1  0.110723  -0.000188  0.940705  0.0  0.124594  -0.000175  0.992192  0.0  0.127617  -0.000197  0.991923  0.0  0.111647  -4.3e-05  0.115404  0.121609  -9.6e-05  0.994281  0.0
H  H24  1  0.53340014  0.50346898  0.11449617  1  0.098497  -0.000456  0.931782  0.0  0.112668  -8.9e-05  0.986298  0.0  0.115522  -8.6e-05  0.984228  0.0  0.078875  -3.5e-05  0.11188  0.110616  -6.3e-05  0.987921  0.0
H  H25  1  0.46658783  0.49653666  0.88549869  1  0.098467  -0.000459  0.931776  0.0  0.112646  -8.9e-05  0.986282  0.0  0.115498  -8.6e-05  0.984216  0.0  0.078906  -3.5e-05  0.111849  0.11058  -6.3e-05  0.987916  0.0
H  H26  1  0.69645874  0.27028106  0.03859012  1  0.101386  -0.000275  0.942101  0.0  0.114161  -0.000132  0.998516  0.0  0.116599  -0.000128  0.998723  0.0  0.078849  -0.000156  0.107196  0.112163  -0.000134  0.998942  0.0
H  H27  1  0.30353179  0.72972361  0.96140351  1  0.101439  -0.000283  0.942028  0.0  0.11418  -0.000133  0.998482  0.0  0.116616  -0.000128  0.998686  0.0  0.078739  -0.000156  0.107217  0.112162  -0.000134  0.998915  0.0
H  H28  1  0.73276389  0.03642758  0.03100595  1  0.112844  0.000182  0.952028  0.0  0.122377  0.000174  1.013945  0.0  0.12545  0.000125  1.012824  0.0  0.122847  0.000352  0.110462  0.120014  0.000232  1.015201  0.0
H  H29  1  0.26723024  0.96357610  0.96899406  1  0.112833  0.000181  0.952116  0.0  0.122371  0.000174  1.014018  0.0  0.125457  0.000125  1.012883  0.0  0.122771  0.000352  0.110481  0.119994  0.000231  1.015285  0.0
H  H30  1  0.63775078  0.85532802  0.10596689  1  0.092919  4.8e-05  0.984597  0.0  0.102982  -1.2e-05  1.048129  0.0  0.104352  -2.3e-05  1.049425  0.0  0.101636  -7e-06  0.103076  0.102066  -5e-06  1.046983  0.0
H  H31  1  0.36223962  0.14466977  0.89404253  1  0.09297  2.8e-05  0.984659  0.0  0.103038  -1.3e-05  1.048171  0.0  0.104406  -2e-05  1.049468  0.0  0.101453  -7e-06  0.103115  0.102105  -5e-06  1.047046  0.0
H  H32  1  0.43396495  0.79447927  0.22954102  1  0.09387  0.000361  0.957528  0.0  0.105724  0.000549  1.015373  0.0  0.108149  0.000436  1.015857  0.0  0.070814  0.001167  0.103579  0.10353  0.00069  1.016327  0.0
H  H33  1  0.56602191  0.20553128  0.77047889  1  0.093847  0.000363  0.957562  0.0  0.105677  0.000549  1.015409  0.0  0.108098  0.000435  1.015899  0.0  0.070672  0.001167  0.103593  0.103472  0.00069  1.016365  0.0
H  H34  1  0.19451900  0.97463229  0.33651894  1  0.101471  0.00019  0.94112  0.001  0.10595  0.000731  1.006687  0.001  0.109572  0.000544  1.002836  0.001  0.170888  0.001832  0.126525  0.103221  0.000933  1.009638  0.001
H  H35  1  0.80547204  0.02538318  0.66349756  1  0.101527  0.000188  0.941142  0.001  0.106007  0.000731  1.006666  0.001  0.109631  0.000543  1.002813  0.001  0.171129  0.001832  0.126541  0.103261  0.000933  1.009627  0.001
C  C36  1  0.13553408  0.30899879  0.74488403  1  -0.206886  -0.003694  3.746759  -0.002  -0.175959  -0.000572  3.997431  0.0  -0.185621  -0.001121  4.022342  0.0  -0.569203  0.001365  -0.02558  -0.168727  0.000304  3.979712  0.001
C  C37  1  0.86447035  0.69099115  0.25511397  1  -0.20703  -0.003695  3.746801  -0.002  -0.176137  -0.000569  3.997565  0.0  -0.185801  -0.001114  4.022476  0.0  -0.568919  0.001365  -0.025698  -0.168914  0.000304  3.979879  0.001
C  C38  1  0.15829651  0.38274036  0.83110076  1  -0.051476  -0.002693  3.747119  -0.002  -0.074046  -0.000996  4.000622  -0.001  -0.074733  -0.001085  4.021372  -0.001  -0.037738  -0.0006  -0.082436  -0.073894  -0.000934  3.986276  -0.001
C  C39  1  0.84170917  0.61725154  0.16889612  1  -0.051246  -0.002691  3.747284  -0.002  -0.073843  -0.001  4.000745  -0.001  -0.074526  -0.00109  4.021495  -0.001  -0.038199  -0.0006  -0.082454  -0.073703  -0.000934  3.986435  -0.001
C  C40  1  0.12744137  0.35765757  0.95011500  1  -0.085378  0.00088  3.744506  0.001  -0.106103  0.000884  3.995497  0.001  -0.106562  0.000645  4.013971  0.001  -0.068974  0.001686  -0.089977  -0.105426  0.001219  3.982887  0.001
C  C41  1  0.87256574  0.64233826  0.04988239  1  -0.085613  0.000838  3.74436  0.001  -0.10631  0.000882  3.995378  0.001  -0.106781  0.000647  4.013848  0.001  -0.069414  0.001685  -0.089984  -0.105644  0.001218  3.982777  0.001
C  C42  1  0.07236753  0.25864276  0.98597806  1  -0.066624  -0.020997  3.742401  -0.016  -0.046179  -0.007945  3.976117  -0.006  -0.05168  -0.007463  3.996265  -0.005  -0.040009  -0.006455  -0.020151  -0.043079  -0.007752  3.962925  -0.005
C  C43  1  0.92764294  0.74135503  0.01401616  1  -0.066326  -0.021031  3.741929  -0.016  -0.045967  -0.007948  3.975714  -0.006  -0.051444  -0.007465  3.995826  -0.005  -0.039491  -0.006459  -0.020138  -0.04286  -0.007757  3.962505  -0.005
C  C44  1  0.04976443  0.18499248  0.89965321  1  -0.083906  -0.000783  3.716284  -0.001  -0.105946  -0.000522  3.966209  0.0  -0.107559  -0.000561  3.986058  0.0  -0.024666  -9.8e-05  -0.084201  -0.104625  -0.000301  3.953227  0.0
C  C45  1  0.95024056  0.81500334  0.10034883  1  -0.083999  -0.00077  3.71619  -0.001  -0.106011  -0.000525  3.966115  0.0  -0.107634  -0.000561  3.98596  0.0  -0.024922  -9.7e-05  -0.084192  -0.104703  -0.000301  3.95316  0.0
C  C46  1  0.08146707  0.20917414  0.78010648  1  -0.052791  -0.001638  3.710965  -0.001  -0.073052  -0.000113  3.959434  0.0  -0.073699  -0.000216  3.980066  0.0  -0.059379  0.000187  -0.08196  -0.072682  4.3e-05  3.946164  0.0
C  C47  1  0.91853562  0.79081973  0.21989684  1  -0.052851  -0.001659  3.710896  -0.001  -0.073113  -0.000113  3.959379  0.0  -0.073758  -0.00022  3.980017  0.0  -0.059483  0.000188  -0.082016  -0.072758  4.3e-05  3.946153  0.0
C  C48  1  0.04791281  0.22256171  0.11389024  1  0.622822  0.003548  3.87827  0.009  0.582989  0.0027  4.18197  0.005  0.61933  0.001262  4.174425  0.004  1.543692  0.005374  0.211598  0.558347  0.004202  4.185809  0.006
C  C49  1  0.95211027  0.77742431  0.88609637  1  0.622664  0.003547  3.878659  0.009  0.582903  0.002696  4.182325  0.005  0.619237  0.001258  4.174783  0.004  1.543777  0.005369  0.211414  0.558252  0.004198  4.186153  0.006
C  C50  1  0.37860739  0.28908922  0.54429853  1  -0.212687  0.004933  3.774766  0.004  -0.180931  0.004253  4.02401  0.004  -0.190239  0.003363  4.048  0.003  -0.515294  0.008104  -0.030082  -0.173873  0.005479  4.007323  0.005
C  C51  1  0.62139660  0.71090170  0.45569606  1  -0.212566  0.004974  3.774706  0.004  -0.180706  0.004256  4.023797  0.004  -0.190014  0.003376  4.047777  0.003  -0.515529  0.008102  -0.02993  -0.173655  0.005477  4.007126  0.005
C  C52  1  0.45225711  0.16588982  0.48526965  1  -0.053266  -0.003364  3.75522  -0.002  -0.077619  -0.000573  4.010119  0.0  -0.078305  -0.000815  4.032312  0.0  -0.097291  0.000785  -0.085968  -0.077011  0.00027  3.994439  0.0
C  C53  1  0.54774669  0.83409913  0.51472849  1  -0.053148  -0.003398  3.755014  -0.002  -0.077528  -0.000576  4.009879  0.0  -0.078217  -0.000822  4.032092  0.0  -0.096712  0.000785  -0.085967  -0.076919  0.00027  3.994186  0.0
C  C54  1  0.60914428  0.11705828  0.44270125  1  -0.078637  0.000392  3.732277  0.0  -0.101464  0.000332  3.983477  0.0  -0.102922  6e-05  4.00376  0.0  -0.018099  0.001121  -0.084705  -0.099894  0.000681  3.969052  0.001
C  C55  1  0.39085798  0.88293657  0.55729779  1  -0.078692  0.000419  3.732248  0.0  -0.101507  0.00033  3.983417  0.0  -0.103002  5.8e-05  4.003685  0.0  -0.017966  0.00112  -0.084748  -0.099941  0.00068  3.968981  0.001
C  C56  1  0.69450642  0.19123275  0.45817044  1  -0.044981  -0.027156  3.736352  -0.02  -0.025231  -0.008765  3.96442  -0.006  -0.030508  -0.008365  3.984054  -0.006  -0.108872  -0.006866  -0.008188  -0.02163  -0.008274  3.951036  -0.006
C  C57  1  0.30549454  0.80876504  0.54182612  1  -0.045146  -0.027173  3.736371  -0.02  -0.025227  -0.008765  3.964308  -0.006  -0.0305  -0.008361  3.983938  -0.006  -0.108816  -0.006864  -0.008183  -0.021624  -0.008273  3.950914  -0.006
C  C58  1  0.62130064  0.31430749  0.51761450  1  -0.088078  0.003016  3.73395  0.003  -0.109246  0.001903  3.981399  0.002  -0.110103  0.00151  4.001275  0.001  0.06462  0.002952  -0.08774  -0.108096  0.002431  3.967099  0.002
C  C59  1  0.37869864  0.68568932  0.48237977  1  -0.087999  0.00298  3.73382  0.003  -0.109225  0.001904  3.981283  0.002  -0.110079  0.00151  4.00116  0.001  0.064296  0.002952  -0.087755  -0.10808  0.002431  3.966993  0.002
C  C60  1  0.46476064  0.36257852  0.56153249  1  -0.059162  -0.001165  3.769456  -0.001  -0.079721  0.000455  4.020267  0.0  -0.081161  0.000145  4.042758  0.0  -0.147362  0.000775  -0.085932  -0.078862  0.000444  4.004532  0.0
C  C61  1  0.53523821  0.63741928  0.43846354  1  -0.059206  -0.001188  3.76932  -0.001  -0.079805  0.000451  4.020113  0.0  -0.081244  0.000141  4.0426  0.0  -0.147408  0.000776  -0.08598  -0.078963  0.000444  4.004426  0.0
C  C62  1  0.86376924  0.13951225  0.40964816  1  0.66076  0.003272  3.86509  0.007  0.618418  0.002531  4.165054  0.002  0.656911  -1.4e-05  4.15558  0.0  1.604859  0.004831  0.232491  0.591413  0.004662  4.171071  0.004
C  C63  1  0.13623085  0.86048751  0.59034760  1  0.661016  0.003267  3.864403  0.007  0.618483  0.00253  4.164594  0.002  0.656977  -1.5e-05  4.155121  0.0  1.604713  0.004832  0.232495  0.591466  0.004663  4.170624  0.004
C  C64  1  0.21586986  0.50250894  0.30191361  1  0.166207  0.008271  3.629695  0.008  0.13341  0.006089  3.884382  0.006  0.144955  0.006151  3.900047  0.006  0.469657  0.008761  0.076123  0.125978  0.00676  3.873647  0.006
C  C65  1  0.78413061  0.49749474  0.69808715  1  0.166225  0.008278  3.629806  0.008  0.133413  0.006086  3.884527  0.006  0.144969  0.006152  3.900184  0.006  0.469748  0.008757  0.076106  0.125965  0.006757  3.873813  0.006
C  C66  1  0.32003380  0.55210224  0.23717068  1  -0.113288  -0.009687  3.730006  -0.007  -0.126378  -0.004836  3.982614  -0.003  -0.133303  -0.005915  4.001551  -0.004  -0.035618  -0.003436  -0.076432  -0.122038  -0.004021  3.971057  -0.003
C  C67  1  0.67996704  0.44790537  0.76282557  1  -0.113182  -0.009754  3.72968  -0.007  -0.126268  -0.004837  3.982309  -0.003  -0.133194  -0.005919  4.001243  -0.004  -0.035831  -0.003437  -0.076424  -0.12195  -0.004022  3.970792  -0.003
C  C68  1  0.45010830  0.46768831  0.16524650  1  -0.052046  0.008661  3.702521  0.007  -0.07524  0.00585  3.947068  0.005  -0.070913  0.006149  3.962311  0.005  -0.023916  0.008025  -0.060431  -0.078187  0.006288  3.936812  0.005
C  C69  1  0.54988279  0.53232225  0.83475203  1  -0.051955  0.008712  3.702312  0.007  -0.075127  0.005851  3.946876  0.005  -0.070798  0.006154  3.962118  0.005  -0.023911  0.008024  -0.060364  -0.078098  0.006287  3.936647  0.005
C  C70  1  0.47680882  0.33262091  0.15824807  1  0.029791  -0.007406  3.796598  -0.006  0.046967  -0.003987  4.026166  -0.003  0.044824  -0.00473  4.049535  -0.003  -0.028949  -0.002836  0.001862  0.048222  -0.003379  4.010356  -0.003
C  C71  1  0.52318699  0.66738375  0.84174905  1  0.02978  -0.00743  3.796727  -0.006  0.046854  -0.003987  4.026365  -0.003  0.044708  -0.004732  4.049734  -0.003  -0.029193  -0.002835  0.001745  0.048101  -0.003378  4.010541  -0.003
C  C72  1  0.61010823  0.23739621  0.08842077  1  -0.105657  0.002052  3.736557  0.002  -0.126532  0.000695  3.983859  0.001  -0.130824  0.001039  4.006864  0.001  -0.060679  0.000632  -0.083288  -0.12343  0.000381  3.968665  0.0
C  C73  1  0.38988633  0.76260649  0.91157403  1  -0.105737  0.00209  3.73658  0.002  -0.126553  0.000696  3.983878  0.001  -0.130841  0.001038  4.006883  0.001  -0.060541  0.000633  -0.0833  -0.123465  0.000381  3.968693  0.0
C  C74  1  0.63066546  0.10770131  0.08476744  1  -0.076774  -0.003455  3.709559  -0.002  -0.097932  -0.001205  3.95801  -0.001  -0.099366  -0.001852  3.979567  -0.001  0.020508  -0.000426  -0.07289  -0.097299  -0.000573  3.944326  0.0
C  C75  1  0.36932954  0.89230041  0.91523164  1  -0.076739  -0.003493  3.709434  -0.002  -0.097846  -0.001207  3.957887  -0.001  -0.099293  -0.001857  3.979434  -0.001  0.020736  -0.000426  -0.072917  -0.097232  -0.000573  3.944226  0.0
C  C76  1  0.51933348  0.06314087  0.15171642  1  0.029007  0.002818  3.777653  0.003  0.046066  0.00209  4.006472  0.002  0.043534  0.002081  4.029305  0.002  -0.007943  0.00293  0.002047  0.048037  0.002247  3.991014  0.002
C  C77  1  0.48066208  0.93686674  0.84828670  1  0.029127  0.002827  3.777311  0.003  0.046005  0.002094  4.00632  0.002  0.043478  0.002078  4.029153  0.002  -0.008014  0.002931  0.001972  0.047965  0.002248  3.990871  0.002
C  C78  1  0.53554236  0.93013369  0.15573448  1  -0.04539  -0.002567  3.685753  -0.002  -0.069624  0.000359  3.931382  0.0  -0.066795  -0.000462  3.950333  0.0  -0.059127  0.001634  -0.062941  -0.071064  0.001149  3.917889  0.001
C  C79  1  0.46444729  0.06987294  0.84427390  1  -0.045477  -0.002491  3.68606  -0.002  -0.069682  0.000355  3.931707  0.0  -0.066855  -0.000463  3.950658  0.0  -0.059072  0.001631  -0.062997  -0.071146  0.001146  3.918261  0.001
C  C80  1  0.42218817  0.89662943  0.22337950  1  -0.106168  0.003881  3.718533  0.004  -0.118871  0.002907  3.969675  0.003  -0.12594  0.002781  3.990061  0.003  0.005478  0.003979  -0.077939  -0.114879  0.003099  3.956814  0.003
C  C81  1  0.57779913  0.10338015  0.77663605  1  -0.106037  0.003866  3.718885  0.004  -0.118738  0.002908  3.969946  0.003  -0.125804  0.002779  3.990328  0.003  0.005206  0.003981  -0.077905  -0.114764  0.003101  3.957114  0.003
C  C82  1  0.29042165  0.99528593  0.28614276  1  0.172495  -0.002134  3.639359  -0.001  0.143318  0.002123  3.897466  0.002  0.154833  0.000773  3.910624  0.001  0.502381  0.003891  0.076352  0.135891  0.003458  3.888891  0.002
C  C83  1  0.70956963  0.00472658  0.71386949  1  0.172439  -0.00215  3.639524  -0.001  0.143367  0.002122  3.897484  0.002  0.154882  0.000776  3.91064  0.001  0.502601  0.00389  0.076346  0.135927  0.003456  3.88891  0.002
C  C84  1  0.38511722  0.15511046  0.22039471  1  0.124687  -0.003625  3.772659  -0.003  0.120084  -0.000299  4.011158  0.0  0.124472  -0.001548  4.034346  -0.001  0.527107  0.001257  0.122469  0.116988  0.000864  3.995603  0.0
C  C85  1  0.61487920  0.84489518  0.77960834  1  0.124575  -0.003654  3.772622  -0.003  0.120096  -0.000304  4.011012  0.0  0.124477  -0.001547  4.0342  -0.001  0.526846  0.001258  0.122537  0.116998  0.000864  3.995433  0.0
C  C86  1  0.36367454  0.29127631  0.22403419  1  0.14184  0.003119  3.71997  0.004  0.134088  0.0022  3.958206  0.003  0.140125  0.002399  3.980657  0.004  0.468184  0.004526  0.128413  0.130049  0.002628  3.943453  0.003
C  C87  1  0.63632618  0.70872442  0.77596663  1  0.141788  0.003145  3.720131  0.004  0.134139  0.0022  3.958215  0.003  0.140182  0.002398  3.980667  0.004  0.468838  0.004529  0.128427  0.130098  0.00263  3.943435  0.003
N  N88  1  0.23494765  0.37670231  0.29295479  1  -0.331824  -0.04051  3.27354  -0.046  -0.275531  -0.02561  3.548314  -0.033  -0.304671  -0.031481  3.57158  -0.037  -1.213684  -0.008841  -0.308478  -0.256011  -0.020357  3.533031  -0.029
N  N89  1  0.76505157  0.62329941  0.70704795  1  -0.331802  -0.04056  3.273648  -0.046  -0.275566  -0.025622  3.548445  -0.033  -0.304711  -0.031496  3.571716  -0.038  -1.214207  -0.008853  -0.308488  -0.25604  -0.020373  3.533142  -0.029
N  N90  1  0.27437058  0.12055978  0.28524920  1  -0.354446  0.049377  3.257337  0.043  -0.304943  0.056234  3.533329  0.048  -0.331251  0.051273  3.553956  0.045  -1.264605  0.074354  -0.307441  -0.286975  0.060292  3.519779  0.051
N  N91  1  0.72562580  0.87945077  0.71475887  1  -0.354546  0.049387  3.257204  0.043  -0.305157  0.056233  3.533211  0.048  -0.331467  0.051271  3.553845  0.045  -1.26446  0.074343  -0.307577  -0.287181  0.060299  3.519628  0.051
O  O92  1  0.10759777  0.28542968  0.51663793  1  -0.752449  -0.001572  2.029787  -0.012  -0.690238  0.023423  2.323904  0.012  -0.728294  0.014714  2.305878  0.004  -1.392827  0.04909  -0.347145  -0.661883  0.032762  2.336322  0.02
O  O93  1  0.89240306  0.71456124  0.48335888  1  -0.752471  -0.001589  2.029774  -0.012  -0.690216  0.023417  2.323909  0.012  -0.728246  0.014705  2.305805  0.004  -1.392638  0.049061  -0.347086  -0.66187  0.032749  2.336325  0.02
O  O94  1  0.11474059  0.50319314  0.59276920  1  -0.786712  0.037754  2.00763  0.03  -0.723244  0.047093  2.293893  0.039  -0.756933  0.0418  2.274977  0.035  -1.438104  0.066077  -0.347859  -0.698386  0.051718  2.306688  0.042
O  O95  1  0.88525999  0.49680072  0.40722669  1  -0.786716  0.037758  2.007608  0.03  -0.723262  0.047096  2.293889  0.039  -0.75695  0.041798  2.274972  0.035  -1.438131  0.066092  -0.347881  -0.698417  0.05173  2.306683  0.042
O  O96  1  0.03917180  0.31315799  0.18967263  1  -0.6078  -0.085152  2.048176  -0.088  -0.583364  -0.009181  2.338741  -0.02  -0.627864  -0.019193  2.332452  -0.029  -1.112817  0.013436  -0.312134  -0.551804  0.001731  2.342168  -0.01
O  O97  1  0.96083495  0.68685060  0.81033043  1  -0.607603  -0.085063  2.048823  -0.088  -0.583183  -0.009163  2.339365  -0.02  -0.627675  -0.01917  2.333074  -0.029  -1.113043  0.013452  -0.312017  -0.551643  0.001747  2.342781  -0.01
O  O98  1  0.04183258  0.11415067  0.13764600  1  -0.544845  -0.005918  1.904195  -0.004  -0.514834  0.007054  2.11992  0.008  -0.537613  0.005566  2.114262  0.007  -1.137212  0.011785  -0.295284  -0.498532  0.008439  2.123145  0.01
O  O99  1  0.95821032  0.88583829  0.86235815  1  -0.544906  -0.005957  1.904052  -0.005  -0.51493  0.007047  2.119769  0.008  -0.537713  0.005563  2.114113  0.007  -1.137245  0.011775  -0.2953  -0.498644  0.008431  2.122987  0.01
O  O100  1  0.91337435  0.23541330  0.40277842  1  -0.593709  -0.028959  2.126703  -0.039  -0.552603  0.033624  2.42483  0.022  -0.600977  0.018522  2.413254  0.008  -1.104573  0.072528  -0.318873  -0.517474  0.04919  2.433024  0.038
O  O101  1  0.08661853  0.76458842  0.59720891  1  -0.593811  -0.028954  2.126629  -0.039  -0.552602  0.033626  2.424802  0.022  -0.600979  0.018522  2.413222  0.008  -1.104646  0.07252  -0.318909  -0.517487  0.04918  2.432991  0.038
O  O102  1  0.93836199  0.02247655  0.38289170  1  -0.527705  -0.011761  1.920758  -0.008  -0.500037  0.013039  2.140087  0.015  -0.524727  0.01096  2.132056  0.013  -1.130667  0.019623  -0.278976  -0.482507  0.014185  2.145613  0.016
O  O103  1  0.06163823  0.97753008  0.61711331  1  -0.527823  -0.011779  1.920308  -0.008  -0.500102  0.013044  2.13971  0.015  -0.524799  0.010965  2.131688  0.013  -1.130489  0.019631  -0.278985  -0.482606  0.014192  2.145256  0.016
