# generated using pymatgen
data_CdH6C12(NO2)2
_symmetry_space_group_name_H-M   'P 1'
_cell_length_a   6.77294347
_cell_length_b   9.43592765
_cell_length_c   9.49694760
_cell_angle_alpha   105.48644711
_cell_angle_beta   91.03910514
_cell_angle_gamma   102.99907617
_symmetry_Int_Tables_number   1
_chemical_formula_structural   CdH6C12(NO2)2
_chemical_formula_sum   'Cd2 H12 C24 N4 O8'
_cell_volume   567.93618561
_cell_formula_units_Z   2
loop_
 _symmetry_equiv_pos_site_id
 _symmetry_equiv_pos_as_xyz
  1  'x, y, z'
loop_
 _atom_site_type_symbol
 _atom_site_label
 _atom_site_symmetry_multiplicity
 _atom_site_fract_x
 _atom_site_fract_y
 _atom_site_fract_z
 _atom_site_occupancy
 _atom_site_pbe_bader_spin_density
 _atom_site_pbe_cm5_charge
 _atom_site_pbe_ddec_charge
 _atom_site_pbe_ddec_spin_density
 _atom_site_pbe_ddec_sum_bond_order
 _atom_site_pbe_magmom
Cd  Cd0  1  0.27069636  0.52958035  0.13205796  1  0  0.787576  0.932102  0  2.118628  0
Cd  Cd1  1  0.72931272  0.47043381  0.86795131  1  0  0.787617  0.932166  0  2.118727  0
H  H2  1  0.27976441  0.93608902  0.96020316  1  0  0.110543  0.120932  0  1.002983  0
H  H3  1  0.72028494  0.06392575  0.03979447  1  0  0.11055  0.12101  0  1.003034  0
H  H4  1  0.19732174  0.10424638  0.41709151  1  0  0.113751  0.128609  0  0.997828  0
H  H5  1  0.80268054  0.89575409  0.58290567  1  0  0.113738  0.128591  0  0.997884  0
H  H6  1  0.23954510  0.76183943  0.72054693  1  0  0.112608  0.123683  0  0.989447  0
H  H7  1  0.76043283  0.23815392  0.27945633  1  0  0.112596  0.123645  0  0.989525  0
H  H8  1  0.29500027  0.19776815  0.93546779  1  0  0.121179  0.106951  0  0.997332  0
H  H9  1  0.70503084  0.80224522  0.06453542  1  0  0.121178  0.106984  0  0.997301  0
H  H10  1  0.24762314  0.29142097  0.58959298  1  0  0.117767  0.138597  0  0.993965  0
H  H11  1  0.75235321  0.70856668  0.41040352  1  0  0.117773  0.13859  0  0.993972  0
H  H12  1  0.26223972  0.76161454  0.45573129  1  0  0.117616  0.094852  0  1.007696  0
H  H13  1  0.73772604  0.23837745  0.54426821  1  0  0.11764  0.094807  0  1.007749  0
C  C14  1  0.21529754  0.84642606  0.21227334  1  0  0.195038  0.56219  0  4.259507  0
C  C15  1  0.78471976  0.15358030  0.78772461  1  0  0.194854  0.561814  0  4.259436  0
C  C16  1  0.22721170  0.51987341  0.82780409  1  0  0.208976  0.583065  0  4.200246  0
C  C17  1  0.77278812  0.48011921  0.17220260  1  0  0.208991  0.583051  0  4.199887  0
C  C18  1  0.27801528  0.17277316  0.04078547  1  0  0.056653  0.116327  0  3.924776  0
C  C19  1  0.72200088  0.82722416  0.95921014  1  0  0.05665  0.116253  0  3.924894  0
C  C20  1  0.26766780  0.02807166  0.05465984  1  0  -0.076598  -0.146437  0  3.932902  0
C  C21  1  0.73234931  0.97192907  0.94533877  1  0  -0.076644  -0.14664  0  3.933202  0
C  C22  1  0.23854903  0.00232223  0.19188337  1  0  0.009554  0.04238  0  3.941691  0
C  C23  1  0.76146709  0.99768524  0.80811696  1  0  0.009665  0.04249  0  3.941593  0
C  C24  1  0.22591101  0.12383406  0.31061463  1  0  -0.078647  -0.187419  0  3.918696  0
C  C25  1  0.77409682  0.87616984  0.68937617  1  0  -0.07867  -0.187356  0  3.918396  0
C  C26  1  0.25040183  0.26809623  0.29074986  1  0  0.115568  0.161912  0  4.019309  0
C  C27  1  0.74959502  0.73191089  0.70924787  1  0  0.115504  0.161772  0  4.019153  0
C  C28  1  0.25512777  0.40349649  0.41558686  1  0  0.119523  0.166435  0  3.99895  0
C  C29  1  0.74484991  0.59649569  0.58440978  1  0  0.119495  0.166321  0  3.998885  0
C  C30  1  0.25097305  0.39584588  0.56071198  1  0  -0.069705  -0.162951  0  3.880633  0
C  C31  1  0.74900643  0.60414746  0.43928605  1  0  -0.069705  -0.162898  0  3.880541  0
C  C32  1  0.24358406  0.52484571  0.67198189  1  0  0.008495  0.033228  0  3.941816  0
C  C33  1  0.75639579  0.47514432  0.32802477  1  0  0.008522  0.033399  0  3.941521  0
C  C34  1  0.24780511  0.65977995  0.63625552  1  0  -0.078312  -0.143584  0  3.936456  0
C  C35  1  0.75217291  0.34020893  0.36375186  1  0  -0.07836  -0.143789  0  3.936493  0
C  C36  1  0.26077622  0.66028462  0.49050725  1  0  0.047907  0.101744  0  3.969134  0
C  C37  1  0.73919983  0.33970759  0.50949989  1  0  0.047893  0.101953  0  3.969027  0
N  N38  1  0.27186634  0.28961045  0.15623528  1  0  -0.325936  -0.276211  0  3.49764  0
N  N39  1  0.72813811  0.71039229  0.84376042  1  0  -0.325924  -0.276039  0  3.497742  0
N  N40  1  0.26255227  0.53537411  0.38328377  1  0  -0.323426  -0.289333  0  3.517461  0
N  N41  1  0.73741381  0.46461903  0.61671708  1  0  -0.323313  -0.289252  0  3.517315  0
O  O42  1  0.09891518  0.58231222  0.89940169  1  0  -0.317929  -0.55765  0  2.27533  0
O  O43  1  0.90109395  0.41767722  0.10061070  1  0  -0.317821  -0.557553  0  2.27509  0
O  O44  1  0.35932625  0.78167276  0.16679759  1  0  -0.337259  -0.560395  0  2.238043  0
O  O45  1  0.64069566  0.21834373  0.83319149  1  0  -0.337226  -0.560298  0  2.238114  0
O  O46  1  0.34689486  0.45767444  0.88205284  1  0  -0.309983  -0.536868  0  2.286067  0
O  O47  1  0.65310596  0.54232157  0.11795369  1  0  -0.310139  -0.537064  0  2.285986  0
O  O48  1  0.06173859  0.79454529  0.27079646  1  0  -0.324972  -0.552183  0  2.117192  0
O  O49  1  0.93827995  0.20544979  0.72919336  1  0  -0.324849  -0.551931  0  2.116869  0
