# generated using pymatgen
data_CdH11C9N(ClO)2
_symmetry_space_group_name_H-M   'P 1'
_cell_length_a   6.93428595
_cell_length_b   11.85568294
_cell_length_c   13.87978527
_cell_angle_alpha   110.65463460
_cell_angle_beta   89.99985478
_cell_angle_gamma   89.99991153
_symmetry_Int_Tables_number   1
_chemical_formula_structural   CdH11C9N(ClO)2
_chemical_formula_sum   'Cd4 H44 C36 N4 Cl8 O8'
_cell_volume   1067.72314843
_cell_formula_units_Z   4
loop_
 _symmetry_equiv_pos_site_id
 _symmetry_equiv_pos_as_xyz
  1  'x, y, z'
loop_
 _atom_site_type_symbol
 _atom_site_label
 _atom_site_symmetry_multiplicity
 _atom_site_fract_x
 _atom_site_fract_y
 _atom_site_fract_z
 _atom_site_occupancy
 _atom_site_hle17_bader_spin_density
 _atom_site_hle17_ddec_charge
 _atom_site_hle17_ddec_spin_density
 _atom_site_hle17_ddec_sum_bond_order
 _atom_site_hle17_magmom
 _atom_site_hse06_10hf_bader_spin_density
 _atom_site_hse06_10hf_ddec_charge
 _atom_site_hse06_10hf_ddec_spin_density
 _atom_site_hse06_10hf_ddec_sum_bond_order
 _atom_site_hse06_10hf_magmom
 _atom_site_hse06_bader_spin_density
 _atom_site_hse06_ddec_charge
 _atom_site_hse06_ddec_spin_density
 _atom_site_hse06_ddec_sum_bond_order
 _atom_site_hse06_magmom
 _atom_site_pbe_bader_spin_density
 _atom_site_pbe_cm5_charge
 _atom_site_pbe_ddec_charge
 _atom_site_pbe_ddec_spin_density
 _atom_site_pbe_ddec_sum_bond_order
 _atom_site_pbe_magmom
Cd  Cd0  1  0.89528052  0.47633295  0.25551833  1  0  1.025917  0  1.904239  0  0  0.876225  0  2.358078  0  0  0.92557  0  2.310043  0  0  0.588236  0.84117  0  2.390849  0
Cd  Cd1  1  0.39527804  0.52366831  0.24448126  1  0  1.025958  0  1.904246  0  0  0.876271  0  2.358064  0  0  0.925612  0  2.310034  0  0  0.588261  0.84121  0  2.390857  0
Cd  Cd2  1  0.10472342  0.52367100  0.74448136  1  0  1.025938  0  1.904262  0  0  0.87624  0  2.358088  0  0  0.925583  0  2.310057  0  0  0.58827  0.841181  0  2.390873  0
Cd  Cd3  1  0.60472015  0.47633474  0.75551961  1  0  1.025876  0  1.904277  0  0  0.876183  0  2.358097  0  0  0.925525  0  2.310068  0  0  0.588224  0.841126  0  2.390883  0
H  H4  1  0.75227887  0.65719401  0.98031715  1  0  0.322375  0  0.8863  0  0  0.301017  0  0.955098  0  0  0.308533  0  0.949436  0  0  0.283636  0.295653  0  0.95919  0
H  H5  1  0.25227800  0.34280610  0.51968413  1  0  0.322377  0  0.886305  0  0  0.301004  0  0.955116  0  0  0.308522  0  0.949453  0  0  0.283621  0.295643  0  0.959201  0
H  H6  1  0.24772508  0.34280274  0.01968185  1  0  0.322361  0  0.886363  0  0  0.300987  0  0.955173  0  0  0.308504  0  0.94951  0  0  0.283616  0.295623  0  0.959265  0
H  H7  1  0.74772019  0.65719516  0.48031765  1  0  0.322356  0  0.886335  0  0  0.300988  0  0.955147  0  0  0.308505  0  0.949483  0  0  0.283611  0.295625  0  0.959228  0
H  H8  1  0.58714952  0.66403681  0.07193263  1  0  0.343287  0  0.835605  0  0  0.321903  0  0.901494  0  0  0.329226  0  0.895644  0  0  0.313885  0.316633  0  0.90586  0
H  H9  1  0.08714804  0.33596406  0.42806868  1  0  0.343296  0  0.83559  0  0  0.321896  0  0.901474  0  0  0.329219  0  0.895624  0  0  0.31387  0.316629  0  0.905833  0
H  H10  1  0.41285299  0.33596083  0.92806591  1  0  0.343266  0  0.835624  0  0  0.321875  0  0.901512  0  0  0.329199  0  0.89566  0  0  0.313847  0.316606  0  0.905875  0
H  H11  1  0.91284726  0.66403900  0.57193363  1  0  0.343222  0  0.835726  0  0  0.321869  0  0.901553  0  0  0.32919  0  0.895704  0  0  0.313863  0.3166  0  0.90591  0
H  H12  1  0.79627282  0.58860917  0.06795076  1  0  0.342232  0  0.866747  0  0  0.319856  0  0.932096  0  0  0.328658  0  0.924816  0  0  0.30256  0.313529  0  0.937387  0
H  H13  1  0.29627256  0.41139046  0.43204919  1  0  0.342241  0  0.866736  0  0  0.319856  0  0.932088  0  0  0.328658  0  0.924807  0  0  0.302548  0.313528  0  0.93738  0
H  H14  1  0.20373113  0.41138848  0.93204850  1  0  0.34226  0  0.86666  0  0  0.319883  0  0.931998  0  0  0.328682  0  0.924721  0  0  0.302559  0.313556  0  0.937288  0
H  H15  1  0.70372562  0.58861080  0.56795114  1  0  0.342253  0  0.866703  0  0  0.319873  0  0.932053  0  0  0.328676  0  0.924772  0  0  0.302574  0.313542  0  0.937348  0
H  H16  1  0.08917467  0.74144796  0.02966759  1  0  0.126016  0  0.938435  0  0  0.136607  0  1.004547  0  0  0.139278  0  1.003321  0  0  0.097649  0.134654  0  1.005578  0
H  H17  1  0.58917521  0.25855381  0.47033397  1  0  0.126022  0  0.938472  0  0  0.136619  0  1.004596  0  0  0.13929  0  1.003373  0  0  0.097641  0.134667  0  1.005622  0
H  H18  1  0.91082639  0.25855420  0.97033301  1  0  0.126026  0  0.938424  0  0  0.136622  0  1.004548  0  0  0.139292  0  1.003324  0  0  0.097648  0.134673  0  1.00557  0
H  H19  1  0.41082297  0.74144834  0.52966662  1  0  0.125977  0  0.938453  0  0  0.136593  0  1.004573  0  0  0.139265  0  1.003346  0  0  0.097641  0.134645  0  1.005594  0
H  H20  1  0.12545193  0.83951937  0.15807577  1  0  0.125198  0  0.941508  0  0  0.139764  0  1.000214  0  0  0.141491  0  1.000921  0  0  0.109044  0.138525  0  0.999786  0
H  H21  1  0.62545482  0.16048594  0.34192536  1  0  0.125249  0  0.941523  0  0  0.139857  0  1.000177  0  0  0.141588  0  1.000884  0  0  0.109072  0.138616  0  0.999751  0
H  H22  1  0.87454625  0.16048458  0.84192392  1  0  0.125205  0  0.941583  0  0  0.139825  0  1.000217  0  0  0.141555  0  1.000925  0  0  0.10907  0.138584  0  0.999794  0
H  H23  1  0.37454337  0.83952160  0.65807396  1  0  0.125243  0  0.941364  0  0  0.139819  0  1.00008  0  0  0.14155  0  1.000787  0  0  0.109041  0.138577  0  0.999659  0
H  H24  1  0.80339481  0.76916543  0.20566726  1  0  0.058673  0  0.943795  0  0  0.070616  0  1.007668  0  0  0.07137  0  1.007746  0  0  0.105624  0.069939  0  1.00783  0
H  H25  1  0.30339861  0.23083508  0.29433366  1  0  0.058659  0  0.943846  0  0  0.070586  0  1.007764  0  0  0.071333  0  1.007842  0  0  0.105611  0.069911  0  1.007927  0
H  H26  1  0.19660481  0.23083491  0.79433208  1  0  0.05869  0  0.943791  0  0  0.070642  0  1.007675  0  0  0.071396  0  1.007752  0  0  0.105629  0.069964  0  1.007842  0
H  H27  1  0.69659813  0.76916617  0.70566739  1  0  0.058621  0  0.943836  0  0  0.07056  0  1.007773  0  0  0.071308  0  1.007852  0  0  0.105627  0.069882  0  1.007935  0
H  H28  1  0.00945732  0.96015415  0.08329136  1  0  0.083313  0  0.985162  0  0  0.095109  0  1.05058  0  0  0.097448  0  1.049892  0  0  0.097198  0.093396  0  1.051181  0
H  H29  1  0.50946303  0.03984504  0.41670882  1  0  0.083311  0  0.985159  0  0  0.095113  0  1.050571  0  0  0.097457  0  1.049873  0  0  0.097195  0.093396  0  1.051186  0
H  H30  1  0.99054086  0.03984437  0.91670455  1  0  0.083321  0  0.985154  0  0  0.095123  0  1.050568  0  0  0.097463  0  1.049879  0  0  0.097208  0.09341  0  1.051168  0
H  H31  1  0.49054380  0.96015892  0.58329231  1  0  0.083309  0  0.985218  0  0  0.095105  0  1.05063  0  0  0.09744  0  1.049955  0  0  0.097191  0.093393  0  1.051231  0
H  H32  1  0.85686503  0.14943617  0.08694194  1  0  0.08241  0  0.975686  0  0  0.089234  0  1.045818  0  0  0.091992  0  1.044509  0  0  0.087669  0.087241  0  1.046865  0
H  H33  1  0.35687380  0.85056064  0.41305493  1  0  0.082388  0  0.975677  0  0  0.089214  0  1.04581  0  0  0.091973  0  1.0445  0  0  0.087647  0.087219  0  1.046858  0
H  H34  1  0.14312883  0.85055964  0.91305173  1  0  0.082419  0  0.975654  0  0  0.089244  0  1.045794  0  0  0.092002  0  1.044484  0  0  0.08766  0.087251  0  1.046841  0
H  H35  1  0.64313592  0.14943973  0.58694730  1  0  0.0824  0  0.975694  0  0  0.089243  0  1.04582  0  0  0.092002  0  1.044509  0  0  0.087658  0.087249  0  1.046869  0
H  H36  1  0.50573430  0.18188426  0.11904703  1  0  0.087986  0  0.983892  0  0  0.09309  0  1.055692  0  0  0.095876  0  1.054767  0  0  0.081842  0.091024  0  1.056513  0
H  H37  1  0.00574332  0.81811221  0.38095019  1  0  0.087907  0  0.983957  0  0  0.093039  0  1.055728  0  0  0.095824  0  1.054805  0  0  0.081831  0.090973  0  1.056544  0
H  H38  1  0.49426244  0.81811156  0.88094953  1  0  0.08797  0  0.983878  0  0  0.093043  0  1.055714  0  0  0.095828  0  1.054791  0  0  0.081841  0.09098  0  1.056528  0
H  H39  1  0.99426640  0.18188634  0.61905078  1  0  0.087988  0  0.983887  0  0  0.093054  0  1.055728  0  0  0.09584  0  1.054804  0  0  0.081828  0.090987  0  1.056552  0
H  H40  1  0.30948205  0.02654458  0.15744880  1  0  0.08069  0  0.96393  0  0  0.092696  0  1.024992  0  0  0.095029  0  1.024428  0  0  0.096131  0.090985  0  1.025515  0
H  H41  1  0.80948999  0.97345049  0.34254617  1  0  0.080748  0  0.963803  0  0  0.092661  0  1.024976  0  0  0.094989  0  1.024411  0  0  0.096115  0.090952  0  1.025494  0
H  H42  1  0.69051614  0.97345125  0.84254775  1  0  0.080719  0  0.963849  0  0  0.09264  0  1.025013  0  0  0.094968  0  1.024448  0  0  0.096118  0.090928  0  1.02554  0
H  H43  1  0.19051540  0.02654536  0.65745400  1  0  0.080705  0  0.963823  0  0  0.092633  0  1.024986  0  0  0.094967  0  1.024423  0  0  0.096088  0.090925  0  1.025512  0
H  H44  1  0.46471395  0.84116947  0.16404312  1  0  0.095483  0  0.979475  0  0  0.105062  0  1.045111  0  0  0.108498  0  1.043288  0  0  0.096156  0.102504  0  1.046629  0
H  H45  1  0.96472120  0.15882626  0.33595329  1  0  0.095486  0  0.979482  0  0  0.105104  0  1.045075  0  0  0.108542  0  1.043247  0  0  0.096173  0.102526  0  1.046617  0
H  H46  1  0.53528567  0.15882636  0.83595344  1  0  0.095464  0  0.979521  0  0  0.105081  0  1.045108  0  0  0.108518  0  1.043282  0  0  0.096166  0.102509  0  1.046646  0
H  H47  1  0.03528131  0.84116959  0.66404688  1  0  0.095442  0  0.979436  0  0  0.105051  0  1.045055  0  0  0.108489  0  1.043231  0  0  0.096152  0.102475  0  1.046595  0
C  C48  1  0.13445388  0.65222979  0.13764925  1  0  0.727502  0  3.810779  0  0  0.679406  0  4.109993  0  0  0.714385  0  4.101865  0  0  0.207313  0.655626  0  4.114655  0
C  C49  1  0.63445040  0.34777371  0.36235278  1  0  0.727637  0  3.81063  0  0  0.679527  0  4.109894  0  0  0.71451  0  4.101756  0  0  0.207311  0.655747  0  4.114561  0
C  C50  1  0.86555152  0.34777417  0.86235189  1  0  0.727618  0  3.810619  0  0  0.6795  0  4.109893  0  0  0.714482  0  4.101755  0  0  0.207274  0.655726  0  4.114553  0
C  C51  1  0.36554202  0.65223205  0.63764961  1  0  0.727513  0  3.81077  0  0  0.679474  0  4.10993  0  0  0.714443  0  4.101818  0  0  0.207367  0.655691  0  4.114598  0
C  C52  1  0.05231413  0.75669596  0.11052896  1  0  -0.334286  0  3.625212  0  0  -0.373398  0  3.865101  0  0  -0.380425  0  3.872093  0  0  -0.164897  -0.368462  0  3.860145  0
C  C53  1  0.55231512  0.24330677  0.38947294  1  0  -0.334351  0  3.625336  0  0  -0.373501  0  3.865258  0  0  -0.380537  0  3.872253  0  0  -0.164911  -0.368563  0  3.860304  0
C  C54  1  0.94768694  0.24330619  0.88947092  1  0  -0.33433  0  3.625317  0  0  -0.37347  0  3.865223  0  0  -0.380503  0  3.872218  0  0  -0.164904  -0.368533  0  3.860265  0
C  C55  1  0.44768162  0.75669719  0.61052891  1  0  -0.334195  0  3.624936  0  0  -0.373399  0  3.865016  0  0  -0.380429  0  3.872015  0  0  -0.164885  -0.368467  0  3.860065  0
C  C56  1  0.83512285  0.77238611  0.12898592  1  0  0.184986  0  3.538014  0  0  0.155196  0  3.775871  0  0  0.160213  0  3.789232  0  0  0.013234  0.151862  0  3.766685  0
C  C57  1  0.33512483  0.22761345  0.37101395  1  0  0.184951  0  3.538141  0  0  0.155118  0  3.776121  0  0  0.160141  0  3.789472  0  0  0.013197  0.151781  0  3.766944  0
C  C58  1  0.16487821  0.22761243  0.87101288  1  0  0.184937  0  3.538031  0  0  0.155092  0  3.776004  0  0  0.16011  0  3.789362  0  0  0.013169  0.15176  0  3.766821  0
C  C59  1  0.66487046  0.77238780  0.62898638  1  0  0.184999  0  3.537906  0  0  0.155104  0  3.776008  0  0  0.160124  0  3.789361  0  0  0.01317  0.151768  0  3.766826  0
C  C60  1  0.74733286  0.88613749  0.12196627  1  0  0.01342  0  3.740948  0  0  0.035918  0  3.975738  0  0  0.034397  0  4.000747  0  0  -0.020256  0.036947  0  3.958687  0
C  C61  1  0.24733655  0.11386221  0.37803304  1  0  0.013466  0  3.740863  0  0  0.035947  0  3.975725  0  0  0.034428  0  4.000732  0  0  -0.020249  0.036973  0  3.958678  0
C  C62  1  0.25266532  0.11386104  0.87803037  1  0  0.013521  0  3.740746  0  0  0.035979  0  3.975649  0  0  0.034458  0  4.000658  0  0  -0.020225  0.037006  0  3.958602  0
C  C63  1  0.75266885  0.88613815  0.62196847  1  0  0.013371  0  3.74098  0  0  0.035887  0  3.975811  0  0  0.03437  0  4.000816  0  0  -0.020282  0.036921  0  3.958751  0
C  C64  1  0.85595682  0.97356687  0.09998805  1  0  -0.111077  0  3.750609  0  0  -0.133168  0  3.993943  0  0  -0.135807  0  4.016494  0  0  -0.094597  -0.131259  0  3.978655  0
C  C65  1  0.35596495  0.02643177  0.40001297  1  0  -0.111111  0  3.750693  0  0  -0.133218  0  3.994038  0  0  -0.135856  0  4.016589  0  0  -0.09459  -0.131311  0  3.978754  0
C  C66  1  0.14403848  0.02643077  0.90000977  1  0  -0.111127  0  3.750617  0  0  -0.133217  0  3.993979  0  0  -0.135858  0  4.016531  0  0  -0.094608  -0.131305  0  3.978691  0
C  C67  1  0.64403611  0.97356859  0.59998782  1  0  -0.111059  0  3.750539  0  0  -0.133147  0  3.993875  0  0  -0.135788  0  4.016423  0  0  -0.094571  -0.131239  0  3.978589  0
C  C68  1  0.76945017  0.08019082  0.10066084  1  0  -0.063871  0  3.766721  0  0  -0.074565  0  4.014526  0  0  -0.076604  0  4.036267  0  0  -0.094441  -0.073141  0  3.999765  0
C  C69  1  0.26945739  0.91980884  0.39933843  1  0  -0.06376  0  3.766755  0  0  -0.074442  0  4.014527  0  0  -0.076482  0  4.036268  0  0  -0.094402  -0.073016  0  3.999759  0
C  C70  1  0.23054801  0.91980771  0.89933580  1  0  -0.063903  0  3.766819  0  0  -0.0746  0  4.014596  0  0  -0.076638  0  4.036336  0  0  -0.094463  -0.073178  0  3.999834  0
C  C71  1  0.73054800  0.08019691  0.60066252  1  0  -0.063908  0  3.766601  0  0  -0.074622  0  4.0144  0  0  -0.076662  0  4.036139  0  0  -0.094447  -0.073197  0  3.999642  0
C  C72  1  0.57270165  0.09928703  0.12022296  1  0  -0.06503  0  3.756288  0  0  -0.07918  0  4.002045  0  0  -0.081444  0  4.024394  0  0  -0.095431  -0.077529  0  3.986883  0
C  C73  1  0.07271046  0.90071115  0.37977685  1  0  -0.065057  0  3.756346  0  0  -0.079218  0  4.00206  0  0  -0.081482  0  4.024409  0  0  -0.095446  -0.077566  0  3.986888  0
C  C74  1  0.42729365  0.90070970  0.87977459  1  0  -0.065046  0  3.756274  0  0  -0.079141  0  4.00196  0  0  -0.081404  0  4.024305  0  0  -0.095413  -0.077487  0  3.98679  0
C  C75  1  0.92730070  0.09928831  0.62022512  1  0  -0.065034  0  3.756213  0  0  -0.079135  0  4.00194  0  0  -0.0814  0  4.024288  0  0  -0.095409  -0.077482  0  3.986781  0
C  C76  1  0.46317060  0.01196142  0.14135371  1  0  -0.0651  0  3.782145  0  0  -0.075216  0  4.028484  0  0  -0.077363  0  4.051271  0  0  -0.093336  -0.073699  0  4.012968  0
C  C77  1  0.96317843  0.98803612  0.35864468  1  0  -0.065057  0  3.781852  0  0  -0.075106  0  4.028194  0  0  -0.077246  0  4.050973  0  0  -0.093291  -0.073587  0  4.012676  0
C  C78  1  0.53682613  0.98803621  0.85864411  1  0  -0.065006  0  3.781949  0  0  -0.075069  0  4.028272  0  0  -0.077206  0  4.051048  0  0  -0.093318  -0.073548  0  4.012759  0
C  C79  1  0.03682407  0.01195974  0.64135621  1  0  -0.065016  0  3.782058  0  0  -0.075073  0  4.028361  0  0  -0.077221  0  4.051148  0  0  -0.093241  -0.073559  0  4.012854  0
C  C80  1  0.55015891  0.90699383  0.14379506  1  0  -0.12312  0  3.73663  0  0  -0.145389  0  3.984456  0  0  -0.148184  0  4.0058  0  0  -0.098947  -0.14331  0  3.969925  0
C  C81  1  0.05016709  0.09300348  0.35620379  1  0  -0.123166  0  3.736524  0  0  -0.145456  0  3.984341  0  0  -0.148251  0  4.005683  0  0  -0.098979  -0.143362  0  3.969824  0
C  C82  1  0.44983927  0.09300200  0.85620222  1  0  -0.123193  0  3.736656  0  0  -0.145459  0  3.984456  0  0  -0.148254  0  4.005797  0  0  -0.098947  -0.14337  0  3.969942  0
C  C83  1  0.94983398  0.90699867  0.64379680  1  0  -0.123103  0  3.736772  0  0  -0.145381  0  3.984567  0  0  -0.148175  0  4.005907  0  0  -0.098959  -0.143285  0  3.970043  0
N  N84  1  0.73289348  0.66275174  0.05642027  1  0  -0.518128  0  3.15678  0  0  -0.467998  0  3.354505  0  0  -0.482947  0  3.350491  0  0  -0.605316  -0.457779  0  3.357701  0
N  N85  1  0.23289192  0.33724799  0.44358051  1  0  -0.518168  0  3.156775  0  0  -0.467974  0  3.354517  0  0  -0.482922  0  3.350507  0  0  -0.605275  -0.457754  0  3.35771  0
N  N86  1  0.26711047  0.33724590  0.94357899  1  0  -0.518106  0  3.156706  0  0  -0.467949  0  3.354477  0  0  -0.482897  0  3.350467  0  0  -0.605237  -0.457728  0  3.357668  0
N  N87  1  0.76710482  0.66275327  0.55642126  1  0  -0.518076  0  3.15681  0  0  -0.46791  0  3.354547  0  0  -0.482855  0  3.350535  0  0  -0.605275  -0.457689  0  3.357736  0
Cl  Cl88  1  0.14467786  0.59944432  0.39303938  1  0  -0.545099  0  1.030983  0  0  -0.478037  0  1.3141  0  0  -0.497535  0  1.292703  0  0  -0.275121  -0.464222  0  1.328708  0
Cl  Cl89  1  0.64467553  0.40055647  0.10696255  1  0  -0.545069  0  1.030966  0  0  -0.478017  0  1.314104  0  0  -0.497516  0  1.292706  0  0  -0.275107  -0.464201  0  1.328721  0
Cl  Cl90  1  0.85532177  0.40055786  0.60696411  1  0  -0.545062  0  1.030976  0  0  -0.478004  0  1.314101  0  0  -0.497502  0  1.292701  0  0  -0.275103  -0.464183  0  1.328712  0
Cl  Cl91  1  0.35532265  0.59944480  0.89303995  1  0  -0.545084  0  1.030996  0  0  -0.478003  0  1.314091  0  0  -0.497502  0  1.292694  0  0  -0.275103  -0.464183  0  1.328707  0
Cl  Cl92  1  0.17357578  0.32303518  0.16693671  1  0  -0.547863  0  1.009159  0  0  -0.485478  0  1.27997  0  0  -0.504472  0  1.259386  0  0  -0.264027  -0.471756  0  1.294052  0
Cl  Cl93  1  0.67357303  0.67696464  0.33306345  1  0  -0.54785  0  1.00914  0  0  -0.485477  0  1.27996  0  0  -0.504476  0  1.259379  0  0  -0.264035  -0.471757  0  1.294036  0
Cl  Cl94  1  0.82642384  0.67696518  0.83306480  1  0  -0.547843  0  1.009158  0  0  -0.485472  0  1.279979  0  0  -0.504466  0  1.259396  0  0  -0.264038  -0.471749  0  1.294062  0
Cl  Cl95  1  0.32642948  0.32303751  0.66693714  1  0  -0.547825  0  1.009121  0  0  -0.485452  0  1.27994  0  0  -0.50445  0  1.259358  0  0  -0.264023  -0.471727  0  1.294023  0
O  O96  1  0.02033121  0.56725533  0.13500223  1  0  -0.679648  0  2.067406  0  0  -0.615336  0  2.315196  0  0  -0.644162  0  2.306686  0  0  -0.341259  -0.59505  0  2.320185  0
O  O97  1  0.52032173  0.43274654  0.36499729  1  0  -0.679683  0  2.06734  0  0  -0.615361  0  2.315149  0  0  -0.644196  0  2.306658  0  0  -0.341213  -0.595072  0  2.320136  0
O  O98  1  0.97967851  0.43274591  0.86499665  1  0  -0.679679  0  2.067371  0  0  -0.615358  0  2.315185  0  0  -0.64419  0  2.306685  0  0  -0.34121  -0.595071  0  2.320174  0
O  O99  1  0.47966203  0.56725560  0.63500114  1  0  -0.679673  0  2.067476  0  0  -0.615353  0  2.315199  0  0  -0.64417  0  2.306689  0  0  -0.341269  -0.595063  0  2.320181  0
O  O100  1  0.31297400  0.65521836  0.16096187  1  0  -0.646311  0  1.998693  0  0  -0.583951  0  2.253253  0  0  -0.613031  0  2.24284  0  0  -0.332558  -0.563504  0  2.259475  0
O  O101  1  0.81297064  0.34478938  0.33904406  1  0  -0.646376  0  1.998652  0  0  -0.584026  0  2.253234  0  0  -0.613107  0  2.242822  0  0  -0.332594  -0.56358  0  2.259451  0
O  O102  1  0.68703140  0.34479012  0.83904277  1  0  -0.646402  0  1.998625  0  0  -0.584042  0  2.253198  0  0  -0.613127  0  2.242794  0  0  -0.332586  -0.563597  0  2.259418  0
O  O103  1  0.18702033  0.65522182  0.66096282  1  0  -0.646317  0  1.998632  0  0  -0.583957  0  2.253152  0  0  -0.613042  0  2.242765  0  0  -0.332583  -0.563506  0  2.259368  0
