# generated using pymatgen
data_Zn2H47C70N9O22
_symmetry_space_group_name_H-M   'P 1'
_cell_length_a   14.58985491
_cell_length_b   15.94616594
_cell_length_c   16.86585446
_cell_angle_alpha   87.89220305
_cell_angle_beta   82.19841313
_cell_angle_gamma   88.89111258
_symmetry_Int_Tables_number   1
_chemical_formula_structural   Zn2H47C70N9O22
_chemical_formula_sum   'Zn2 H47 C70 N9 O22'
_cell_volume   3884.52086434
_cell_formula_units_Z   1
loop_
 _symmetry_equiv_pos_site_id
 _symmetry_equiv_pos_as_xyz
  1  'x, y, z'
loop_
 _atom_site_type_symbol
 _atom_site_label
 _atom_site_symmetry_multiplicity
 _atom_site_fract_x
 _atom_site_fract_y
 _atom_site_fract_z
 _atom_site_occupancy
 _atom_site_pbe_bader_charge
 _atom_site_pbe_bader_spin_density
 _atom_site_pbe_cm5_charge
 _atom_site_pbe_ddec_charge
 _atom_site_pbe_ddec_spin_density
 _atom_site_pbe_ddec_sum_bond_order
 _atom_site_pbe_magmom
Zn  Zn0  1  0.40732909  0.51291158  0.50167076  1  1.32287  0  0.698653  0.894799  0  2.471899  0
Zn  Zn1  1  0.60081741  0.50340136  0.49286855  1  1.318348  0  0.690835  0.884578  0  2.4197  0
H  H2  1  0.59858554  0.39532671  0.72327698  1  0.128803  0  0.11878  0.130434  0  0.974725  0
H  H3  1  0.66165852  0.40118186  0.25181117  1  0.104798  0  0.112115  0.121254  0  1.004588  0
H  H4  1  0.58895471  0.37808621  0.98575410  1  0.084063  0  0.106503  0.10484  0  1.009796  0
H  H5  1  0.38200948  0.44952989  0.11856979  1  0.084125  0  0.115608  0.128308  0  0.988686  0
H  H6  1  0.37587266  0.37644805  0.01914853  1  0.097016  0  0.106896  0.111374  0  1.024586  0
H  H7  1  0.58124481  0.33646180  0.86308050  1  0.071782  0  0.114584  0.119425  0  0.980882  0
H  H8  1  0.44626747  0.93659174  0.37742182  1  0.042095  0  0.096437  0.099575  0  1.007599  0
H  H9  1  0.60467792  0.95438945  0.38164684  1  0.003595  0  0.099012  0.072362  0  1.015861  0
H  H10  1  0.64080405  0.06846851  0.51214445  1  0.039404  0  0.101688  0.073495  0  1.005345  0
H  H11  1  0.41741293  0.92989981  0.59677991  1  0.105371  0  0.112495  0.127179  0  0.970517  0
H  H12  1  0.53574991  0.92846299  0.61069930  1  0.054406  0  0.102915  0.114224  0  0.982668  0
H  H13  1  0.36702982  0.93704953  0.46586179  1  0.020761  0  0.103617  0.1162  0  0.963911  0
H  H14  1  0.36309937  0.07816241  0.46699013  1  0.045901  0  0.104266  0.084932  0  0.994025  0
H  H15  1  0.53490188  0.07529516  0.60908790  1  0.090081  0  0.122678  0.090539  0  0.968428  0
H  H16  1  0.09000154  0.57785686  0.38528103  1  0.139431  0  0.136605  0.116511  0  0.968694  0
H  H17  1  0.93927428  0.40334921  0.41688327  1  0.111306  0  0.134416  0.111802  0  0.963876  0
H  H18  1  0.09951777  0.42075092  0.40344929  1  0.073804  0  0.119476  0.138589  0  0.951268  0
H  H19  1  0.09843564  0.37425097  0.50097815  1  0.1089  0  0.127607  0.150486  0  0.954962  0
H  H20  1  0.91581411  0.58188124  0.60354055  1  0.138794  0  0.142847  0.126088  0  0.929335  0
H  H21  1  0.07187403  0.56851405  0.61689693  1  0.089731  0  0.121632  0.146027  0  0.952446  0
H  H22  1  0.91496891  0.62689065  0.47770409  1  0.104722  0  0.122101  0.104988  0  0.985906  0
H  H23  1  0.06819210  0.45785185  0.62091970  1  0.122469  0  0.12553  0.149971  0  0.953718  0
H  H24  1  0.59980119  0.22956010  0.07360216  1  0.042187  0  0.101622  0.100288  0  1.020143  0
H  H25  1  0.73548619  0.14902462  0.00999240  1  0.073119  0  0.104266  0.100098  0  0.988019  0
H  H26  1  0.89454811  0.20428657  0.00763718  1  0.069814  0  0.107497  0.103776  0  0.9853  0
H  H27  1  0.91640575  0.34098273  0.06899329  1  0.054752  0  0.104482  0.100339  0  0.989627  0
H  H28  1  0.78025181  0.42142536  0.13270669  1  0.082467  0  0.096801  0.090063  0  1.038359  0
H  H29  1  0.36527465  0.21279194  0.39926507  1  0.064576  0  0.098132  0.101469  0  1.01179  0
H  H30  1  0.37048843  0.28790665  0.26818951  1  0.061121  0  0.092741  0.090661  0  1.020254  0
H  H31  1  0.44104288  0.21866353  0.14358356  1  0.041429  0  0.092109  0.084816  0  1.024492  0
H  H32  1  0.50732812  0.07361485  0.15324304  1  0.044942  0  0.096946  0.091491  0  0.997108  0
H  H33  1  0.50386981  0.99991548  0.28363893  1  0.034731  0  0.095466  0.08777  0  1.030805  0
H  H34  1  0.71839519  0.85779380  0.35692765  1  0.073007  0  0.099194  0.096292  0  1.000918  0
H  H35  1  0.85982521  0.78441223  0.39047547  1  0.049129  0  0.092972  0.085095  0  1.017186  0
H  H36  1  0.91187400  0.80247950  0.52421625  1  0.053658  0  0.090369  0.0911  0  1.048502  0
H  H37  1  0.82051335  0.89475562  0.62246743  1  0.05152  0  0.101049  0.095937  0  0.99147  0
H  H38  1  0.68267354  0.97088853  0.58749598  1  0.046628  0  0.096942  0.091122  0  1.020861  0
H  H39  1  0.67871321  0.21182639  0.47241940  1  0.066463  0  0.098895  0.104341  0  1.010523  0
H  H40  1  0.76800370  0.30138667  0.36989073  1  0.072904  0  0.092252  0.090033  0  1.010274  0
H  H41  1  0.80754008  0.25201061  0.22948271  1  0.037616  0  0.088341  0.08217  0  1.046616  0
H  H42  1  0.75420760  0.11225874  0.19574662  1  0.063141  0  0.092399  0.085313  0  1.016126  0
H  H43  1  0.66239347  0.02392632  0.29746837  1  0.049162  0  0.092991  0.085085  0  1.041364  0
H  H44  1  0.79013777  0.63868028  0.40412865  1  0.091631  0  0.107937  0.111479  0  1.007944  0
H  H45  1  0.73071037  0.63198909  0.27485945  1  0.111044  0  0.115196  0.117378  0  0.967061  0
H  H46  1  0.82239164  0.55934962  0.16088943  1  0.046216  0  0.108082  0.102651  0  0.988604  0
H  H47  1  0.97312131  0.49017307  0.17982904  1  0.06464  0  0.109732  0.108125  0  0.980494  0
H  H48  1  0.03262919  0.49509651  0.30863358  1  0.035545  0  0.100152  0.096356  0  1.022405  0
C  C49  1  0.51297129  0.66936785  0.48768284  1  1.60164  0  0.225088  0.683976  0  4.220473  0
C  C50  1  0.48218025  0.49406160  0.65242895  1  1.605528  0  0.216122  0.597796  0  4.197637  0
C  C51  1  0.48942523  0.34594031  0.50465674  1  1.64756  0  0.222171  0.671472  0  4.236134  0
C  C52  1  0.52936836  0.48604391  0.34353158  1  1.612315  0  0.216871  0.597475  0  4.193237  0
C  C53  1  0.46925381  0.46225590  0.73801085  1  0.102686  0  0.000478  -0.053958  0  3.921172  0
C  C54  1  0.53711285  0.40930662  0.76527593  1  0.017507  0  -0.062363  -0.057427  0  3.943367  0
C  C55  1  0.52674907  0.37632291  0.84307182  1  -0.025229  0  -0.076062  -0.117737  0  3.945453  0
C  C56  1  0.44765756  0.39407402  0.89783802  1  -0.019668  0  0.009398  0.09907  0  4.000217  0
C  C57  1  0.37668715  0.44216709  0.86793973  1  0.304224  0  0.087733  -0.022637  0  3.865397  0
C  C58  1  0.38860542  0.47772968  0.79053181  1  0.184249  0  0.095899  0.027549  0  3.902331  0
C  C59  1  0.44299991  0.43542744  0.14764354  1  0.07474  0  -0.077705  -0.174561  0  3.939569  0
C  C60  1  0.44701636  0.46583889  0.22270063  1  0.115193  0  0.085797  0.065028  0  3.94424  0
C  C61  1  0.60150869  0.41218682  0.22068648  1  0.014829  0  -0.068998  -0.116365  0  3.917271  0
C  C62  1  0.59973067  0.37962748  0.14479733  1  -0.018938  0  0.005803  0.030887  0  3.938809  0
C  C63  1  0.51977977  0.39356904  0.10623103  1  0.000358  0  0.000908  0.081623  0  3.987986  0
C  C64  1  0.44419879  0.37795932  0.98381572  1  -0.007046  0  -0.093823  -0.140535  0  3.971461  0
C  C65  1  0.52051111  0.37871079  0.02127916  1  -0.097401  0  -0.076119  -0.106032  0  3.97724  0
C  C66  1  0.52676630  0.45658477  0.26053745  1  0.049823  0  -0.004623  -0.061673  0  3.944138  0
C  C67  1  0.43386789  0.96155367  0.43769056  1  -0.020884  0  -0.152734  -0.229123  0  3.839119  0
C  C68  1  0.60467291  0.96433142  0.44575721  1  0.032477  0  -0.073245  -0.095357  0  3.790667  0
C  C69  1  0.60528648  0.05960133  0.45951394  1  -0.00076  0  -0.066635  -0.073609  0  3.76104  0
C  C70  1  0.49077447  0.25577477  0.50293088  1  0.183647  0  -0.040509  -0.175784  0  3.951516  0
C  C71  1  0.51029331  0.92683923  0.48590351  1  0.15812  0  0.006111  0.161772  0  3.879104  0
C  C72  1  0.43034573  0.05859730  0.43516190  1  0.023736  0  -0.07333  -0.057512  0  3.781014  0
C  C73  1  0.50282222  0.09079356  0.48765925  1  0.137654  0  0.016537  0.09465  0  3.809341  0
C  C74  1  0.48337646  0.05059857  0.57486101  1  0.214136  0  0.018758  -0.022091  0  3.697711  0
C  C75  1  0.48575330  0.95457480  0.57310208  1  -0.069154  0  -0.15063  -0.241147  0  3.845648  0
C  C76  1  0.49711886  0.18068762  0.49427971  1  -0.453636  0  -0.025476  -0.047694  0  4.08006  0
C  C77  1  0.51327260  0.83598038  0.48507826  1  -0.411215  0  -0.022333  -0.028438  0  4.025923  0
C  C78  1  0.51551964  0.75984074  0.48522742  1  0.159951  0  -0.053148  -0.202765  0  3.96602  0
C  C79  1  0.94756793  0.57118868  0.44848591  1  0.001673  0  -0.060395  -0.084479  0  3.76371  0
C  C80  1  0.96355645  0.41455705  0.47420069  1  0.214007  0  0.017734  -0.024971  0  3.702596  0
C  C81  1  0.06851886  0.42478483  0.46623510  1  -0.019127  0  -0.138448  -0.240081  0  3.808852  0
C  C82  1  0.91407639  0.49484344  0.50887300  1  0.113426  0  0.027961  0.02755  0  3.828404  0
C  C83  1  0.05291259  0.57993435  0.44614114  1  0.171813  0  0.020169  -0.072239  0  3.681564  0
C  C84  1  0.09165186  0.51008168  0.49964009  1  0.122271  0  0.024995  0.105103  0  3.878776  0
C  C85  1  0.04739954  0.51427533  0.58824472  1  -0.005675  0  -0.145387  -0.263294  0  3.852211  0
C  C86  1  0.94210844  0.51804016  0.59061397  1  0.163755  0  0.017985  -0.033936  0  3.723012  0
C  C87  1  0.19105401  0.51621276  0.49601350  1  0.875044  0  0.249423  0.304433  0  3.830451  0
C  C88  1  0.81462140  0.48982503  0.51043991  1  0.971902  0  0.233492  0.28345  0  3.917193  0
C  C89  1  0.68048793  0.33177555  0.10644533  1  -0.044204  0  -0.008429  0.065797  0  4.006819  0
C  C90  1  0.66907981  0.25475578  0.07124102  1  -0.028053  0  -0.085703  -0.127307  0  3.975213  0
C  C91  1  0.74557328  0.20913562  0.03621267  1  -0.034367  0  -0.090761  -0.084923  0  4.038588  0
C  C92  1  0.83477945  0.23982994  0.03524361  1  -0.121742  0  -0.085401  -0.079688  0  4.010916  0
C  C93  1  0.84699604  0.31642230  0.06995331  1  -0.025279  0  -0.090482  -0.081727  0  4.035327  0
C  C94  1  0.77059258  0.36171716  0.10559325  1  -0.000953  0  -0.089722  -0.133626  0  3.986069  0
C  C95  1  0.43593622  0.10121674  0.35226916  1  0.010406  0  -0.011684  0.090471  0  3.910197  0
C  C96  1  0.39763261  0.18235095  0.34547957  1  -0.021118  0  -0.092548  -0.130594  0  3.970126  0
C  C97  1  0.40026602  0.22476165  0.27140995  1  -0.088098  0  -0.097364  -0.079548  0  4.029317  0
C  C98  1  0.44000236  0.18609594  0.20171960  1  -0.035482  0  -0.102659  -0.096812  0  4.048988  0
C  C99  1  0.47679668  0.10501624  0.20717184  1  -0.065545  0  -0.098084  -0.086864  0  4.051772  0
C  C100  1  0.47473367  0.06329044  0.28168529  1  -0.042652  0  -0.097142  -0.135533  0  4.004785  0
C  C101  1  0.68970618  0.91942832  0.46939227  1  0.028734  0  -0.009901  0.092055  0  3.950575  0
C  C102  1  0.74089595  0.86600232  0.41529669  1  -0.104869  0  -0.092345  -0.132528  0  3.985245  0
C  C103  1  0.82019104  0.82408520  0.43455823  1  0.007272  0  -0.098564  -0.080644  0  4.046961  0
C  C104  1  0.84923846  0.83403763  0.50918416  1  -0.089091  0  -0.104706  -0.102613  0  4.03936  0
C  C105  1  0.79833019  0.88632147  0.56408750  1  -0.054491  0  -0.092771  -0.074831  0  4.039795  0
C  C106  1  0.71982555  0.92898322  0.54405533  1  -0.056232  0  -0.095728  -0.139361  0  3.986832  0
C  C107  1  0.66076572  0.11167037  0.39285558  1  -0.020415  0  -0.012776  0.084556  0  3.923054  0
C  C108  1  0.69369303  0.18980059  0.41156110  1  -0.025434  0  -0.093029  -0.12584  0  3.966565  0
C  C109  1  0.74505609  0.24048359  0.35338680  1  -0.060865  0  -0.098953  -0.079747  0  4.033521  0
C  C110  1  0.76698698  0.21312546  0.27529430  1  -0.060307  0  -0.103213  -0.09677  0  4.04314  0
C  C111  1  0.73694877  0.13471057  0.25632988  1  -0.003453  0  -0.099731  -0.080458  0  4.040292  0
C  C112  1  0.68441496  0.08476488  0.31452440  1  -0.111351  0  -0.098162  -0.134076  0  4.006142  0
C  C113  1  0.91536558  0.56683376  0.36686607  1  -0.016006  0  -0.027158  0.050976  0  3.982001  0
C  C114  1  0.83075987  0.60572843  0.35535650  1  -0.03261  0  -0.084588  -0.123734  0  3.958636  0
C  C115  1  0.79713992  0.60234464  0.28197972  1  -0.090932  0  -0.077312  -0.051488  0  3.975354  0
C  C116  1  0.84807853  0.56086780  0.21862247  1  -0.030708  0  -0.079721  -0.077475  0  3.999362  0
C  C117  1  0.93241541  0.52208629  0.22915529  1  0.051441  0  -0.085679  -0.070441  0  4.014871  0
C  C118  1  0.96574691  0.52490533  0.30284083  1  -0.123494  0  -0.099349  -0.150409  0  4.010501  0
N  N119  1  0.26999068  0.52000143  0.49605821  1  -1.099257  0  -0.263791  -0.253622  0  3.101983  0
N  N120  1  0.73730805  0.49230019  0.50192310  1  -1.176399  0  -0.274418  -0.263558  0  3.128475  0
N  N121  1  0.39256047  0.08333725  0.61912136  1  0.453275  0  0.048576  0.525802  0  4.146153  0
N  N122  1  0.36483163  0.51492786  0.25722788  1  0.403216  0  0.060752  0.533973  0  4.218738  0
N  N123  1  0.93058546  0.33731791  0.52684086  1  0.470993  0  0.050213  0.502608  0  4.169903  0
N  N124  1  0.89477265  0.46633321  0.66288070  1  0.47004  0  0.052352  0.502003  0  4.181999  0
N  N125  1  0.07774166  0.66581680  0.47490590  1  0.455381  0  0.055706  0.514642  0  4.147321  0
N  N126  1  0.29161495  0.46197240  0.92214637  1  0.376712  0  0.055051  0.518424  0  4.233998  0
N  N127  1  0.31478337  0.53409875  0.76542334  1  0.450244  0  0.057338  0.522096  0  4.265654  0
O  O128  1  0.43311102  0.63748629  0.49349023  1  -1.127792  0  -0.307848  -0.532995  0  2.265546  0
O  O129  1  0.59042748  0.62976041  0.48413017  1  -1.145706  0  -0.317719  -0.553942  0  2.264057  0
O  O130  1  0.40839916  0.50846261  0.62165210  1  -1.146709  0  -0.310726  -0.53837  0  2.361659  0
O  O131  1  0.56463734  0.50043209  0.61806562  1  -1.153195  0  -0.311678  -0.54478  0  2.28888  0
O  O132  1  0.41104045  0.38280567  0.50966591  1  -1.129903  0  -0.313541  -0.540151  0  2.241038  0
O  O133  1  0.56874752  0.37963989  0.49977852  1  -1.140895  0  -0.31075  -0.542606  0  2.279551  0
O  O134  1  0.45022477  0.49920942  0.38316269  1  -1.159319  0  -0.312154  -0.555358  0  2.40572  0
O  O135  1  0.60723879  0.49300712  0.36805574  1  -1.151821  0  -0.311241  -0.539174  0  2.276665  0
O  O136  1  0.39822395  0.13791853  0.66832076  1  -0.436592  0  -0.14044  -0.339583  0  1.870821  0
O  O137  1  0.31949103  0.05448846  0.60246635  1  -0.478437  0  -0.137852  -0.336825  0  1.897473  0
O  O138  1  0.29226819  0.47544360  0.27730902  1  -0.485588  0  -0.15762  -0.365258  0  1.859711  0
O  O139  1  0.37267480  0.59165689  0.25857545  1  -0.403353  0  -0.12536  -0.310427  0  1.8619  0
O  O140  1  0.85943964  0.30515177  0.51127686  1  -0.421333  0  -0.096347  -0.286343  0  1.920698  0
O  O141  1  0.97590203  0.31486797  0.58091405  1  -0.429509  0  -0.113965  -0.305538  0  1.904696  0
O  O142  1  0.93156450  0.46800462  0.72415827  1  -0.410634  0  -0.100062  -0.276314  0  1.879686  0
O  O143  1  0.82193394  0.43124990  0.65524187  1  -0.42292  0  -0.101979  -0.298061  0  1.954477  0
O  O144  1  0.02565862  0.69606962  0.53129814  1  -0.460896  0  -0.114079  -0.318844  0  1.947959  0
O  O145  1  0.14990180  0.69656318  0.44122095  1  -0.393396  0  -0.092869  -0.275724  0  1.872671  0
O  O146  1  0.27094015  0.53698974  0.93120685  1  -0.423457  0  -0.128468  -0.316918  0  1.868087  0
O  O147  1  0.24778628  0.40179494  0.95575501  1  -0.444152  0  -0.132895  -0.32796  0  1.867627  0
O  O148  1  0.23994223  0.50146834  0.75931175  1  -0.441922  0  -0.136565  -0.32604  0  1.866898  0
O  O149  1  0.33391125  0.60880743  0.75454972  1  -0.416326  0  -0.115291  -0.297592  0  1.877147  0
