# generated using pymatgen
data_LiH21C9N4O
_symmetry_space_group_name_H-M   'P 1'
_cell_length_a   8.20014823
_cell_length_b   11.23674283
_cell_length_c   13.96245337
_cell_angle_alpha   90.00042640
_cell_angle_beta   90.00036198
_cell_angle_gamma   104.92858327
_symmetry_Int_Tables_number   1
_chemical_formula_structural   LiH21C9N4O
_chemical_formula_sum   'Li4 H84 C36 N16 O4'
_cell_volume   1243.11797409
_cell_formula_units_Z   4
loop_
 _symmetry_equiv_pos_site_id
 _symmetry_equiv_pos_as_xyz
  1  'x, y, z'
loop_
 _atom_site_type_symbol
 _atom_site_label
 _atom_site_symmetry_multiplicity
 _atom_site_fract_x
 _atom_site_fract_y
 _atom_site_fract_z
 _atom_site_occupancy
 _atom_site_hle17_bader_spin_density
 _atom_site_hle17_ddec_charge
 _atom_site_hle17_ddec_spin_density
 _atom_site_hle17_ddec_sum_bond_order
 _atom_site_hle17_magmom
 _atom_site_hse06_10hf_bader_spin_density
 _atom_site_hse06_10hf_ddec_charge
 _atom_site_hse06_10hf_ddec_spin_density
 _atom_site_hse06_10hf_ddec_sum_bond_order
 _atom_site_hse06_10hf_magmom
 _atom_site_hse06_bader_spin_density
 _atom_site_hse06_ddec_charge
 _atom_site_hse06_ddec_spin_density
 _atom_site_hse06_ddec_sum_bond_order
 _atom_site_hse06_magmom
 _atom_site_pbe_bader_spin_density
 _atom_site_pbe_cm5_charge
 _atom_site_pbe_ddec_charge
 _atom_site_pbe_ddec_spin_density
 _atom_site_pbe_ddec_sum_bond_order
 _atom_site_pbe_magmom
Li  Li0  1  0.96504040  0.07224101  0.07439436  1  0  0.848834  0  0.402818  0  0  0.799305  0  0.524438  0  0  0.809651  0  0.506339  0  0  0.512822  0.791918  0  0.537326  0
Li  Li1  1  0.03496686  0.42776155  0.57440183  1  0  0.848863  0  0.402773  0  0  0.799297  0  0.524441  0  0  0.809645  0  0.506341  0  0  0.512788  0.791919  0  0.53733  0
Li  Li2  1  0.03497284  0.92776256  0.92559448  1  0  0.848869  0  0.402779  0  0  0.799292  0  0.524479  0  0  0.80964  0  0.506378  0  0  0.51281  0.791902  0  0.537367  0
Li  Li3  1  0.96503135  0.57223738  0.42559918  1  0  0.848849  0  0.40276  0  0  0.799287  0  0.524433  0  0  0.809632  0  0.506336  0  0  0.512793  0.791906  0  0.537323  0
H  H4  1  0.56735022  0.59852027  0.40655102  1  0  0.005188  0  0.90312  0  0  0.007829  0  0.967664  0  0  0.008888  0  0.966521  0  0  0.011092  0.007002  0  0.968661  0
H  H5  1  0.43269033  0.90151820  0.90658916  1  0  0.005269  0  0.903223  0  0  0.007876  0  0.967796  0  0  0.008929  0  0.966661  0  0  0.011117  0.007052  0  0.968789  0
H  H6  1  0.43266416  0.40149711  0.59344140  1  0  0.005173  0  0.903173  0  0  0.007772  0  0.967764  0  0  0.008837  0  0.966608  0  0  0.011074  0.006945  0  0.968765  0
H  H7  1  0.56730461  0.09846784  0.09340112  1  0  0.005234  0  0.90322  0  0  0.007895  0  0.967735  0  0  0.008954  0  0.966588  0  0  0.011102  0.007074  0  0.968728  0
H  H8  1  0.34189450  0.37854461  0.60826091  1  0  0.014516  0  0.907653  0  0  0.010151  0  0.984148  0  0  0.011393  0  0.982861  0  0  0.019696  0.009255  0  0.985181  0
H  H9  1  0.65807386  0.12141868  0.10822253  1  0  0.01443  0  0.907683  0  0  0.01004  0  0.984217  0  0  0.011283  0  0.982934  0  0  0.01967  0.009139  0  0.985239  0
H  H10  1  0.65812116  0.62147645  0.39173509  1  0  0.014505  0  0.907606  0  0  0.010102  0  0.984136  0  0  0.011343  0  0.982848  0  0  0.019664  0.009205  0  0.985167  0
H  H11  1  0.34192277  0.87855816  0.89176560  1  0  0.014415  0  0.907736  0  0  0.010054  0  0.984242  0  0  0.011295  0  0.982957  0  0  0.019649  0.009153  0  0.98527  0
H  H12  1  0.64201583  0.71970094  0.52522192  1  0  0.065644  0  0.966536  0  0  0.078795  0  1.035613  0  0  0.078569  0  1.037035  0  0  0.106798  0.07888  0  1.034692  0
H  H13  1  0.35796973  0.78028952  0.02522851  1  0  0.065716  0  0.966615  0  0  0.078856  0  1.035682  0  0  0.078637  0  1.037086  0  0  0.106788  0.078935  0  1.034773  0
H  H14  1  0.35797358  0.28030072  0.47477694  1  0  0.065765  0  0.966493  0  0  0.078906  0  1.035601  0  0  0.078681  0  1.03702  0  0  0.106869  0.078989  0  1.034683  0
H  H15  1  0.64204081  0.21971680  0.97477323  1  0  0.065749  0  0.966612  0  0  0.078917  0  1.035655  0  0  0.078691  0  1.037073  0  0  0.106778  0.078978  0  1.034753  0
H  H16  1  0.62355495  0.83930654  0.60391329  1  0  0.045758  0  0.934571  0  0  0.063962  0  0.99837  0  0  0.064088  0  0.998863  0  0  0.092625  0.063752  0  0.998188  0
H  H17  1  0.37644342  0.66068675  0.10391636  1  0  0.045671  0  0.934622  0  0  0.063892  0  0.998406  0  0  0.064018  0  0.998892  0  0  0.09258  0.06368  0  0.998233  0
H  H18  1  0.37643233  0.16069603  0.39608558  1  0  0.045666  0  0.934596  0  0  0.063874  0  0.998423  0  0  0.063999  0  0.998914  0  0  0.092584  0.06366  0  0.99824  0
H  H19  1  0.62355479  0.33931217  0.89608036  1  0  0.045705  0  0.934644  0  0  0.063916  0  0.998465  0  0  0.064039  0  0.998958  0  0  0.092615  0.063704  0  0.998284  0
H  H20  1  0.28826331  0.80547967  0.42327025  1  0  0.09012  0  0.976759  0  0  0.107023  0  1.045793  0  0  0.108243  0  1.045293  0  0  0.101603  0.106035  0  1.046304  0
H  H21  1  0.71171995  0.69453030  0.92325947  1  0  0.090044  0  0.976784  0  0  0.107014  0  1.045733  0  0  0.108232  0  1.045235  0  0  0.101567  0.106027  0  1.046253  0
H  H22  1  0.71171761  0.19452564  0.57674079  1  0  0.090084  0  0.976815  0  0  0.107082  0  1.045741  0  0  0.108301  0  1.045243  0  0  0.101587  0.106098  0  1.046263  0
H  H23  1  0.28828648  0.30546773  0.07674512  1  0  0.09007  0  0.976812  0  0  0.107021  0  1.045785  0  0  0.108237  0  1.045293  0  0  0.101553  0.106035  0  1.046302  0
H  H24  1  0.49467804  0.78451452  0.40181159  1  0  0.08348  0  0.967478  0  0  0.0999  0  1.039317  0  0  0.100528  0  1.039855  0  0  0.095384  0.099379  0  1.038982  0
H  H25  1  0.50530406  0.71549979  0.90180877  1  0  0.083742  0  0.967391  0  0  0.100052  0  1.039298  0  0  0.10068  0  1.039835  0  0  0.095436  0.099544  0  1.038963  0
H  H26  1  0.50530018  0.21549354  0.59819516  1  0  0.083712  0  0.967367  0  0  0.100058  0  1.039257  0  0  0.100685  0  1.039793  0  0  0.095441  0.099553  0  1.03892  0
H  H27  1  0.49470912  0.28450010  0.09819153  1  0  0.083851  0  0.967333  0  0  0.100145  0  1.039246  0  0  0.100773  0  1.039782  0  0  0.095462  0.09964  0  1.038905  0
H  H28  1  0.47159352  0.91261554  0.47040374  1  0  0.062933  0  0.968265  0  0  0.078956  0  1.045897  0  0  0.080817  0  1.044  0  0  0.08202  0.077494  0  1.047385  0
H  H29  1  0.52838917  0.58739131  0.97038664  1  0  0.063026  0  0.968276  0  0  0.079068  0  1.04586  0  0  0.080941  0  1.043952  0  0  0.082066  0.077605  0  1.047365  0
H  H30  1  0.52838528  0.08739068  0.52960802  1  0  0.062937  0  0.968282  0  0  0.079024  0  1.045833  0  0  0.080899  0  1.043925  0  0  0.08202  0.077565  0  1.047327  0
H  H31  1  0.47161848  0.41260672  0.02961295  1  0  0.062941  0  0.968164  0  0  0.079022  0  1.045715  0  0  0.08089  0  1.043812  0  0  0.082033  0.07756  0  1.047216  0
H  H32  1  0.16472035  0.77323819  0.57568512  1  0  0.095816  0  0.963792  0  0  0.116391  0  1.026811  0  0  0.116927  0  1.027583  0  0  0.10756  0.115929  0  1.026348  0
H  H33  1  0.83527579  0.72675659  0.07567093  1  0  0.095672  0  0.963786  0  0  0.116331  0  1.026719  0  0  0.116868  0  1.027492  0  0  0.107573  0.115864  0  1.026257  0
H  H34  1  0.83526539  0.22676346  0.42433022  1  0  0.095756  0  0.963754  0  0  0.116398  0  1.026706  0  0  0.116935  0  1.027474  0  0  0.10759  0.115932  0  1.026248  0
H  H35  1  0.16472852  0.27324235  0.92433151  1  0  0.095699  0  0.96381  0  0  0.116367  0  1.026729  0  0  0.116904  0  1.0275  0  0  0.107591  0.115903  0  1.026266  0
H  H36  1  0.34274462  0.87302009  0.63397278  1  0  0.072954  0  0.946451  0  0  0.09306  0  1.013581  0  0  0.093786  0  1.013893  0  0  0.088711  0.092461  0  1.013437  0
H  H37  1  0.65725235  0.62697172  0.13395663  1  0  0.072916  0  0.946488  0  0  0.093066  0  1.01362  0  0  0.093798  0  1.013925  0  0  0.088712  0.092455  0  1.01349  0
H  H38  1  0.65724845  0.12698158  0.36603898  1  0  0.072937  0  0.946408  0  0  0.09306  0  1.01355  0  0  0.09379  0  1.013853  0  0  0.088725  0.092456  0  1.013404  0
H  H39  1  0.34275531  0.37302631  0.86604367  1  0  0.072945  0  0.94645  0  0  0.093097  0  1.013585  0  0  0.093829  0  1.013893  0  0  0.088735  0.092488  0  1.013453  0
H  H40  1  0.26529151  0.71618908  0.67196835  1  0  0.095583  0  0.961528  0  0  0.116588  0  1.022022  0  0  0.117056  0  1.022901  0  0  0.104318  0.116176  0  1.021476  0
H  H41  1  0.73470744  0.78379675  0.17196489  1  0  0.095625  0  0.961468  0  0  0.116634  0  1.02199  0  0  0.117102  0  1.022869  0  0  0.104352  0.116221  0  1.021438  0
H  H42  1  0.73470335  0.28381075  0.32804126  1  0  0.09564  0  0.961392  0  0  0.116651  0  1.02192  0  0  0.11712  0  1.022796  0  0  0.10437  0.11624  0  1.021367  0
H  H43  1  0.26529681  0.21619851  0.82803685  1  0  0.095659  0  0.961455  0  0  0.116668  0  1.021978  0  0  0.117136  0  1.022858  0  0  0.104368  0.116258  0  1.021428  0
H  H44  1  0.44066639  0.57599552  0.65541314  1  0  0.066977  0  0.96615  0  0  0.078961  0  1.036848  0  0  0.079061  0  1.037762  0  0  0.107198  0.07881  0  1.036296  0
H  H45  1  0.55933764  0.92399841  0.15541417  1  0  0.066965  0  0.966244  0  0  0.078948  0  1.036886  0  0  0.079052  0  1.0378  0  0  0.107188  0.078791  0  1.036336  0
H  H46  1  0.55932159  0.42401257  0.34460148  1  0  0.066941  0  0.966153  0  0  0.078925  0  1.03683  0  0  0.079029  0  1.037747  0  0  0.107172  0.078776  0  1.036271  0
H  H47  1  0.44067362  0.07599595  0.84459473  1  0  0.066999  0  0.966112  0  0  0.078925  0  1.036881  0  0  0.079022  0  1.0378  0  0  0.107175  0.078773  0  1.036319  0
H  H48  1  0.53550615  0.69809864  0.73394501  1  0  0.042944  0  0.935893  0  0  0.060454  0  1.000456  0  0  0.060773  0  1.000663  0  0  0.091489  0.060119  0  1.000441  0
H  H49  1  0.46449733  0.80190175  0.23394853  1  0  0.043032  0  0.935876  0  0  0.060435  0  1.000509  0  0  0.060757  0  1.000718  0  0  0.091465  0.060099  0  1.000495  0
H  H50  1  0.46450817  0.30191505  0.26606174  1  0  0.042845  0  0.935884  0  0  0.060349  0  1.000467  0  0  0.060679  0  1.000663  0  0  0.091382  0.059994  0  1.000474  0
H  H51  1  0.53549800  0.19808888  0.76605463  1  0  0.042839  0  0.935858  0  0  0.060363  0  1.000447  0  0  0.060686  0  1.000646  0  0  0.091411  0.06001  0  1.000459  0
H  H52  1  0.96285186  0.66673825  0.69629115  1  0  0.091646  0  0.96731  0  0  0.114393  0  1.025716  0  0  0.114168  0  1.027839  0  0  0.105877  0.114459  0  1.024318  0
H  H53  1  0.03715188  0.83325709  0.19628111  1  0  0.091665  0  0.967448  0  0  0.114406  0  1.02584  0  0  0.114181  0  1.027966  0  0  0.105877  0.114472  0  1.024434  0
H  H54  1  0.03714378  0.33325331  0.30371202  1  0  0.091663  0  0.967371  0  0  0.1144  0  1.025765  0  0  0.114177  0  1.027889  0  0  0.105862  0.114468  0  1.024367  0
H  H55  1  0.96285455  0.16674094  0.80370487  1  0  0.091689  0  0.967349  0  0  0.11442  0  1.02577  0  0  0.114195  0  1.027893  0  0  0.105869  0.114488  0  1.024371  0
H  H56  1  0.84124212  0.75319830  0.75774743  1  0  0.07529  0  0.95421  0  0  0.092418  0  1.026633  0  0  0.093101  0  1.027074  0  0  0.094549  0.091835  0  1.026434  0
H  H57  1  0.15875837  0.74680329  0.25774377  1  0  0.075213  0  0.954187  0  0  0.092343  0  1.026611  0  0  0.093028  0  1.027049  0  0  0.094486  0.09176  0  1.026417  0
H  H58  1  0.15876033  0.24679880  0.24225717  1  0  0.075248  0  0.954135  0  0  0.092368  0  1.026564  0  0  0.093054  0  1.027005  0  0  0.094511  0.091788  0  1.026365  0
H  H59  1  0.84123489  0.25319194  0.74224794  1  0  0.075359  0  0.954225  0  0  0.092488  0  1.026646  0  0  0.093169  0  1.027089  0  0  0.094598  0.091906  0  1.026455  0
H  H60  1  0.87566601  0.77183745  0.63148034  1  0  0.089526  0  0.957756  0  0  0.108337  0  1.024626  0  0  0.10866  0  1.025781  0  0  0.100299  0.108033  0  1.023876  0
H  H61  1  0.12434813  0.72816174  0.13147572  1  0  0.08954  0  0.957756  0  0  0.108292  0  1.02471  0  0  0.108616  0  1.025864  0  0  0.100324  0.107987  0  1.023958  0
H  H62  1  0.12433278  0.22815963  0.36852282  1  0  0.089533  0  0.957858  0  0  0.108342  0  1.024734  0  0  0.108667  0  1.02589  0  0  0.100297  0.108039  0  1.023983  0
H  H63  1  0.87566421  0.27184275  0.86851527  1  0  0.089522  0  0.957745  0  0  0.108304  0  1.024693  0  0  0.108626  0  1.025849  0  0  0.100301  0.108001  0  1.023941  0
H  H64  1  0.78900415  0.47206610  0.74710509  1  0  0.091527  0  0.975761  0  0  0.109213  0  1.04481  0  0  0.109713  0  1.045605  0  0  0.102886  0.10876  0  1.044358  0
H  H65  1  0.21100263  0.02793669  0.24710318  1  0  0.091566  0  0.975717  0  0  0.109245  0  1.044763  0  0  0.109748  0  1.045555  0  0  0.102912  0.10879  0  1.044311  0
H  H66  1  0.21098089  0.52793003  0.25290094  1  0  0.091489  0  0.975879  0  0  0.109159  0  1.044946  0  0  0.109663  0  1.045739  0  0  0.102844  0.108707  0  1.044491  0
H  H67  1  0.78900663  0.97206595  0.75289354  1  0  0.091523  0  0.975788  0  0  0.109208  0  1.044823  0  0  0.109707  0  1.045618  0  0  0.102872  0.108754  0  1.044368  0
H  H68  1  0.56606503  0.43618976  0.72983397  1  0  0.083074  0  0.96572  0  0  0.10216  0  1.034071  0  0  0.102735  0  1.034366  0  0  0.096197  0.101665  0  1.033958  0
H  H69  1  0.43394059  0.06381374  0.22983166  1  0  0.083098  0  0.965632  0  0  0.10221  0  1.033952  0  0  0.102786  0  1.034248  0  0  0.096228  0.101714  0  1.033838  0
H  H70  1  0.43391801  0.56381464  0.27016919  1  0  0.083154  0  0.965748  0  0  0.102241  0  1.034081  0  0  0.102822  0  1.034371  0  0  0.096228  0.101746  0  1.033962  0
H  H71  1  0.56606970  0.93617786  0.77017580  1  0  0.083143  0  0.965711  0  0  0.102256  0  1.034022  0  0  0.102833  0  1.034313  0  0  0.096253  0.10176  0  1.033905  0
H  H72  1  0.66380472  0.54794858  0.81707847  1  0  0.072662  0  0.96796  0  0  0.093612  0  1.037374  0  0  0.094327  0  1.037334  0  0  0.088309  0.092987  0  1.037524  0
H  H73  1  0.33620623  0.95206019  0.31707740  1  0  0.072745  0  0.967903  0  0  0.093608  0  1.037411  0  0  0.094325  0  1.037374  0  0  0.088285  0.092984  0  1.037563  0
H  H74  1  0.33618378  0.45205399  0.18292470  1  0  0.072634  0  0.967946  0  0  0.093624  0  1.03733  0  0  0.094347  0  1.037295  0  0  0.088283  0.092996  0  1.037487  0
H  H75  1  0.66378485  0.04793227  0.68292218  1  0  0.072668  0  0.967905  0  0  0.093559  0  1.037405  0  0  0.094272  0  1.037371  0  0  0.088252  0.092931  0  1.037561  0
H  H76  1  0.73075859  0.90288231  0.99744552  1  0  0.380927  0  0.936785  0  0  0.34076  0  1.020969  0  0  0.35207  0  1.005118  0  0  0.286705  0.332884  0  1.031979  0
H  H77  1  0.26924270  0.59711757  0.49744710  1  0  0.380924  0  0.936854  0  0  0.340761  0  1.020981  0  0  0.35207  0  1.005133  0  0  0.286737  0.332891  0  1.031985  0
H  H78  1  0.26925125  0.09711849  0.00255191  1  0  0.380847  0  0.936992  0  0  0.340716  0  1.021044  0  0  0.352029  0  1.00519  0  0  0.286702  0.332844  0  1.032051  0
H  H79  1  0.73074940  0.40288134  0.50255750  1  0  0.380917  0  0.936921  0  0  0.340783  0  1.020953  0  0  0.352092  0  1.005107  0  0  0.286718  0.33291  0  1.031962  0
H  H80  1  0.76705473  0.02267715  0.92632293  1  0  0.387152  0  0.927482  0  0  0.346066  0  1.012778  0  0  0.357481  0  0.99668  0  0  0.287521  0.338111  0  1.023971  0
H  H81  1  0.23294879  0.47731767  0.42632665  1  0  0.387079  0  0.927657  0  0  0.346004  0  1.012872  0  0  0.357411  0  0.996783  0  0  0.287474  0.338046  0  1.024069  0
H  H82  1  0.23295755  0.97732366  0.07367236  1  0  0.387052  0  0.927584  0  0  0.345972  0  1.012897  0  0  0.357381  0  0.996806  0  0  0.287471  0.338015  0  1.024093  0
H  H83  1  0.76704787  0.52268033  0.57367580  1  0  0.387096  0  0.927623  0  0  0.346026  0  1.012839  0  0  0.35744  0  0.996742  0  0  0.287488  0.338071  0  1.024032  0
H  H84  1  0.85609564  0.50813780  0.05876283  1  0  0.149139  0  0.982297  0  0  0.156727  0  1.045017  0  0  0.159091  0  1.046264  0  0  0.108236  0.155085  0  1.044148  0
H  H85  1  0.14388682  0.99185674  0.55875962  1  0  0.149139  0  0.982275  0  0  0.156743  0  1.044999  0  0  0.159107  0  1.046247  0  0  0.108261  0.155103  0  1.044127  0
H  H86  1  0.14388843  0.49185556  0.94123675  1  0  0.149149  0  0.982229  0  0  0.156726  0  1.044982  0  0  0.15909  0  1.046231  0  0  0.108236  0.155086  0  1.044109  0
H  H87  1  0.85611055  0.00814678  0.44121346  1  0  0.149104  0  0.982361  0  0  0.156661  0  1.045159  0  0  0.159023  0  1.046413  0  0  0.108215  0.155024  0  1.044283  0
C  C88  1  0.56278823  0.74342967  0.58160377  1  0  -0.030313  0  3.648561  0  0  -0.084779  0  3.900391  0  0  -0.08174  0  3.913344  0  0  -0.070828  -0.086687  0  3.891413  0
C  C89  1  0.43720679  0.75656519  0.08160621  1  0  -0.030186  0  3.648768  0  0  -0.084639  0  3.9004  0  0  -0.081607  0  3.913389  0  0  -0.070746  -0.086559  0  3.89143  0
C  C90  1  0.43719873  0.25657199  0.41840082  1  0  -0.030168  0  3.648602  0  0  -0.084745  0  3.900504  0  0  -0.081701  0  3.91347  0  0  -0.070834  -0.086642  0  3.891506  0
C  C91  1  0.56279875  0.24343376  0.91839624  1  0  -0.030298  0  3.648748  0  0  -0.084813  0  3.900548  0  0  -0.081776  0  3.913513  0  0  -0.070764  -0.086699  0  3.891558  0
C  C92  1  0.41377563  0.81428515  0.45424715  1  0  -0.188111  0  3.710015  0  0  -0.28326  0  3.965389  0  0  -0.281056  0  3.974674  0  0  -0.150593  -0.284425  0  3.958991  0
C  C93  1  0.58620746  0.68572336  0.95423730  1  0  -0.1885  0  3.710204  0  0  -0.28365  0  3.965644  0  0  -0.281459  0  3.974927  0  0  -0.150713  -0.284796  0  3.959158  0
C  C94  1  0.58620651  0.18572017  0.54576461  1  0  -0.188323  0  3.710106  0  0  -0.283595  0  3.965522  0  0  -0.281397  0  3.974792  0  0  -0.15065  -0.284737  0  3.959028  0
C  C95  1  0.41379775  0.31427467  0.04576587  1  0  -0.188539  0  3.710032  0  0  -0.283701  0  3.965466  0  0  -0.281505  0  3.974748  0  0  -0.150695  -0.284846  0  3.958982  0
C  C96  1  0.28668962  0.77741547  0.60959415  1  0  -0.180206  0  3.659814  0  0  -0.269695  0  3.898852  0  0  -0.267929  0  3.91006  0  0  -0.143665  -0.270613  0  3.891102  0
C  C97  1  0.71330453  0.72257604  0.10958379  1  0  -0.180024  0  3.659629  0  0  -0.269656  0  3.898744  0  0  -0.267893  0  3.90995  0  0  -0.143698  -0.270574  0  3.890999  0
C  C98  1  0.71330435  0.22258529  0.39042047  1  0  -0.180098  0  3.659402  0  0  -0.269698  0  3.898421  0  0  -0.267927  0  3.909622  0  0  -0.143727  -0.270623  0  3.890689  0
C  C99  1  0.28669515  0.27742013  0.89041722  1  0  -0.180095  0  3.659558  0  0  -0.269743  0  3.898624  0  0  -0.267979  0  3.909834  0  0  -0.143747  -0.270662  0  3.890896  0
C  C100  1  0.55214378  0.65358971  0.66500144  1  0  -0.031026  0  3.651204  0  0  -0.085859  0  3.905239  0  0  -0.082753  0  3.917745  0  0  -0.070922  -0.087817  0  3.896566  0
C  C101  1  0.44786135  0.84640709  0.16500302  1  0  -0.031268  0  3.651521  0  0  -0.085927  0  3.905349  0  0  -0.082839  0  3.917865  0  0  -0.070932  -0.087884  0  3.896681  0
C  C102  1  0.44785461  0.34642025  0.33500531  1  0  -0.030816  0  3.650971  0  0  -0.085551  0  3.904877  0  0  -0.082475  0  3.917423  0  0  -0.070689  -0.087506  0  3.896205  0
C  C103  1  0.55214380  0.15358725  0.83499943  1  0  -0.030728  0  3.651024  0  0  -0.085544  0  3.905064  0  0  -0.082434  0  3.917571  0  0  -0.070772  -0.087495  0  3.896388  0
C  C104  1  0.85317409  0.70478556  0.69022336  1  0  -0.17609  0  3.660769  0  0  -0.265729  0  3.901899  0  0  -0.264014  0  3.914016  0  0  -0.144087  -0.266629  0  3.89352  0
C  C105  1  0.14683181  0.79521615  0.19022137  1  0  -0.176051  0  3.660857  0  0  -0.265606  0  3.901941  0  0  -0.2639  0  3.914063  0  0  -0.144027  -0.266501  0  3.893564  0
C  C106  1  0.14682412  0.29521336  0.30977981  1  0  -0.176073  0  3.660805  0  0  -0.265669  0  3.901866  0  0  -0.263966  0  3.913984  0  0  -0.143993  -0.266569  0  3.893487  0
C  C107  1  0.85317494  0.20478280  0.80977105  1  0  -0.176174  0  3.660971  0  0  -0.26578  0  3.90204  0  0  -0.264056  0  3.914153  0  0  -0.144139  -0.266677  0  3.893665  0
C  C108  1  0.67892855  0.51043156  0.74550285  1  0  -0.188475  0  3.695644  0  0  -0.283897  0  3.945842  0  0  -0.281374  0  3.955937  0  0  -0.151375  -0.285353  0  3.9389  0
C  C109  1  0.32107568  0.98956714  0.24550339  1  0  -0.188629  0  3.695615  0  0  -0.284015  0  3.945833  0  0  -0.281507  0  3.955939  0  0  -0.151428  -0.285469  0  3.938891  0
C  C110  1  0.32106085  0.48957010  0.25450174  1  0  -0.188553  0  3.695731  0  0  -0.283995  0  3.94586  0  0  -0.281496  0  3.955964  0  0  -0.151344  -0.285451  0  3.938915  0
C  C111  1  0.67892825  0.01042720  0.75449762  1  0  -0.188503  0  3.695661  0  0  -0.283901  0  3.945832  0  0  -0.281374  0  3.955926  0  0  -0.151364  -0.285353  0  3.938888  0
C  C112  1  0.88922652  0.48733726  0.20976208  1  0  0.380642  0  3.967121  0  0  0.371897  0  4.228444  0  0  0.388975  0  4.245367  0  0  0.174467  0.360389  0  4.216722  0
C  C113  1  0.11077321  0.01266046  0.70976018  1  0  0.380671  0  3.967279  0  0  0.371933  0  4.228585  0  0  0.389013  0  4.245509  0  0  0.174467  0.360417  0  4.21686  0
C  C114  1  0.11077579  0.51266995  0.79023607  1  0  0.380647  0  3.967504  0  0  0.371901  0  4.228813  0  0  0.38898  0  4.245735  0  0  0.174423  0.360393  0  4.2171  0
C  C115  1  0.88925269  0.98733395  0.29021649  1  0  0.3807  0  3.967209  0  0  0.371964  0  4.228516  0  0  0.389044  0  4.245435  0  0  0.174555  0.36045  0  4.21679  0
C  C116  1  0.92937880  0.34315378  0.09066374  1  0  0.387103  0  3.958241  0  0  0.377491  0  4.219171  0  0  0.394418  0  4.236731  0  0  0.175655  0.366095  0  4.207  0
C  C117  1  0.07060629  0.15684063  0.59066327  1  0  0.387217  0  3.958606  0  0  0.377591  0  4.219557  0  0  0.394518  0  4.237117  0  0  0.175753  0.366199  0  4.207394  0
C  C118  1  0.07062866  0.65685070  0.90933154  1  0  0.387094  0  3.958927  0  0  0.377475  0  4.219839  0  0  0.3944  0  4.237398  0  0  0.175646  0.366078  0  4.207658  0
C  C119  1  0.92939102  0.84315921  0.40932629  1  0  0.386982  0  3.958761  0  0  0.37736  0  4.219695  0  0  0.394285  0  4.237259  0  0  0.175718  0.36597  0  4.207524  0
C  C120  1  0.88852206  0.45120751  0.11501931  1  0  -0.46919  0  3.964587  0  0  -0.474539  0  4.215565  0  0  -0.491066  0  4.231838  0  0  -0.169394  -0.463093  0  4.204025  0
C  C121  1  0.11146287  0.04879270  0.61502479  1  0  -0.469248  0  3.964954  0  0  -0.474621  0  4.215953  0  0  -0.49115  0  4.232231  0  0  -0.169453  -0.463174  0  4.204411  0
C  C122  1  0.11147871  0.54879878  0.88497383  1  0  -0.46927  0  3.964792  0  0  -0.474616  0  4.215788  0  0  -0.491141  0  4.232062  0  0  -0.169399  -0.463166  0  4.204243  0
C  C123  1  0.88855165  0.95121455  0.38495832  1  0  -0.469064  0  3.964872  0  0  -0.474413  0  4.21584  0  0  -0.490939  0  4.232123  0  0  -0.169391  -0.462967  0  4.204289  0
N  N124  1  0.39597279  0.73741137  0.54013581  1  0  -0.156581  0  3.278973  0  0  -0.053079  0  3.503227  0  0  -0.069186  0  3.525531  0  0  -0.338532  -0.041934  0  3.487664  0
N  N125  1  0.60402075  0.76258758  0.04013388  1  0  -0.156598  0  3.278947  0  0  -0.053111  0  3.503331  0  0  -0.069217  0  3.525625  0  0  -0.33853  -0.04195  0  3.487742  0
N  N126  1  0.60401327  0.26259120  0.45987022  1  0  -0.156913  0  3.279086  0  0  -0.053249  0  3.503268  0  0  -0.069378  0  3.525632  0  0  -0.338633  -0.0421  0  3.487704  0
N  N127  1  0.39598478  0.23741136  0.95986714  1  0  -0.156709  0  3.279064  0  0  -0.053131  0  3.503314  0  0  -0.069249  0  3.525641  0  0  -0.338562  -0.041985  0  3.487746  0
N  N128  1  0.70211684  0.60475484  0.67046192  1  0  -0.161721  0  3.262358  0  0  -0.058726  0  3.489063  0  0  -0.07459  0  3.510438  0  0  -0.338781  -0.047685  0  3.473996  0
N  N129  1  0.29789242  0.89524664  0.17046110  1  0  -0.161596  0  3.262381  0  0  -0.05864  0  3.489033  0  0  -0.074487  0  3.510408  0  0  -0.338781  -0.047609  0  3.473973  0
N  N130  1  0.29787591  0.39524591  0.32954339  1  0  -0.161687  0  3.262204  0  0  -0.058754  0  3.488949  0  0  -0.074595  0  3.51033  0  0  -0.338876  -0.047714  0  3.473888  0
N  N131  1  0.70211831  0.10475324  0.82953777  1  0  -0.161923  0  3.262473  0  0  -0.058894  0  3.489185  0  0  -0.074764  0  3.510548  0  0  -0.338791  -0.047857  0  3.474116  0
N  N132  1  0.89260389  0.51665228  0.29113040  1  0  -0.622111  0  2.676806  0  0  -0.586018  0  2.9167  0  0  -0.600341  0  2.922188  0  0  -0.439165  -0.576296  0  2.913125  0
N  N133  1  0.10740681  0.98334606  0.79112915  1  0  -0.622149  0  2.676719  0  0  -0.586053  0  2.916597  0  0  -0.600377  0  2.922083  0  0  -0.439174  -0.576321  0  2.913013  0
N  N134  1  0.10740626  0.48334944  0.70887205  1  0  -0.622121  0  2.677036  0  0  -0.586022  0  2.916914  0  0  -0.600346  0  2.922401  0  0  -0.439145  -0.576299  0  2.913347  0
N  N135  1  0.89261601  0.01664650  0.20885109  1  0  -0.622202  0  2.676912  0  0  -0.586122  0  2.916832  0  0  -0.600443  0  2.92231  0  0  -0.439279  -0.576393  0  2.913251  0
N  N136  1  0.96381364  0.25080009  0.06945594  1  0  -0.629709  0  2.697691  0  0  -0.592752  0  2.942336  0  0  -0.607085  0  2.947512  0  0  -0.444676  -0.583024  0  2.938977  0
N  N137  1  0.03617139  0.24919130  0.56945374  1  0  -0.629831  0  2.69806  0  0  -0.592849  0  2.942682  0  0  -0.607185  0  2.947862  0  0  -0.444723  -0.583127  0  2.939334  0
N  N138  1  0.03618997  0.74919333  0.93054651  1  0  -0.62966  0  2.698342  0  0  -0.592673  0  2.942944  0  0  -0.607009  0  2.94813  0  0  -0.444638  -0.582942  0  2.939578  0
N  N139  1  0.96381615  0.75080852  0.43054154  1  0  -0.629699  0  2.698109  0  0  -0.592709  0  2.942731  0  0  -0.607043  0  2.947917  0  0  -0.444721  -0.582985  0  2.939375  0
O  O140  1  0.17715889  0.02570318  0.02871814  1  0  -0.945649  0  1.873433  0  0  -0.88585  0  2.093379  0  0  -0.903108  0  2.057035  0  0  -0.679867  -0.873713  0  2.118603  0
O  O141  1  0.82284549  0.47429605  0.52872234  1  0  -0.945783  0  1.873315  0  0  -0.885982  0  2.09321  0  0  -0.90324  0  2.056857  0  0  -0.67991  -0.873838  0  2.11844  0
O  O142  1  0.82285268  0.97429210  0.97127500  1  0  -0.945807  0  1.873262  0  0  -0.885998  0  2.093249  0  0  -0.90326  0  2.056896  0  0  -0.679943  -0.873868  0  2.118491  0
O  O143  1  0.17715117  0.52570195  0.47127939  1  0  -0.945798  0  1.873439  0  0  -0.885973  0  2.093336  0  0  -0.903231  0  2.056996  0  0  -0.679925  -0.873827  0  2.11856  0
