# generated using pymatgen
data_MnH28C26(NO)6
_symmetry_space_group_name_H-M   'P 1'
_cell_length_a   8.83039415
_cell_length_b   9.93932045
_cell_length_c   11.70643239
_cell_angle_alpha   62.49420404
_cell_angle_beta   87.46659440
_cell_angle_gamma   73.28025220
_symmetry_Int_Tables_number   1
_chemical_formula_structural   MnH28C26(NO)6
_chemical_formula_sum   'Mn1 H28 C26 N6 O6'
_cell_volume   868.01811475
_cell_formula_units_Z   1
loop_
 _symmetry_equiv_pos_site_id
 _symmetry_equiv_pos_as_xyz
  1  'x, y, z'
loop_
 _atom_site_type_symbol
 _atom_site_label
 _atom_site_symmetry_multiplicity
 _atom_site_fract_x
 _atom_site_fract_y
 _atom_site_fract_z
 _atom_site_occupancy
 _atom_site_hle17_ddec_charge
 _atom_site_hle17_ddec_spin_density
 _atom_site_hle17_ddec_sum_bond_order
 _atom_site_hle17_magmom
 _atom_site_hse06_10hf_ddec_charge
 _atom_site_hse06_10hf_ddec_spin_density
 _atom_site_hse06_10hf_ddec_sum_bond_order
 _atom_site_hse06_10hf_magmom
 _atom_site_hse06_ddec_charge
 _atom_site_hse06_ddec_spin_density
 _atom_site_hse06_ddec_sum_bond_order
 _atom_site_hse06_magmom
 _atom_site_pbe_cm5_charge
 _atom_site_pbe_ddec_charge
 _atom_site_pbe_ddec_spin_density
 _atom_site_pbe_ddec_sum_bond_order
 _atom_site_pbe_magmom
Mn  Mn0  1  0.49999937  0.49999812  0.50000130  1  0.986546  4.786514  1.964063  4.653  0.79723  4.700373  2.478481  4.497  0.850908  4.754636  2.418024  4.572  0.61459  0.758203  4.641489  2.520776  4.418
H  H1  1  0.86029771  0.42264883  0.41466979  1  0.077311  -1.3e-05  0.980463  0.0  0.079081  0.000287  1.057174  0.001  0.081991  0.000161  1.053593  0.0  0.11261  0.077258  0.000438  1.059271  0.001
H  H2  1  0.13970519  0.57734501  0.58533958  1  0.077268  -1.4e-05  0.980526  0.0  0.079044  0.000287  1.057244  0.001  0.08196  0.000161  1.053655  0.0  0.112562  0.0772  0.000438  1.059361  0.001
H  H3  1  0.03058856  0.24418366  0.33690152  1  0.113267  0.000221  0.93878  0.0  0.124534  0.000289  0.994949  0.0  0.128045  0.000216  0.993823  0.0  0.107993  0.122069  0.000358  0.995881  0.0
H  H4  1  0.96941508  0.75581499  0.66310427  1  0.113251  0.000221  0.938773  0.0  0.12451  0.000289  0.994954  0.0  0.128028  0.000216  0.99382  0.0  0.108009  0.122044  0.000358  0.995887  0.0
H  H5  1  0.66697313  0.01112212  0.40573979  1  0.113533  0.000232  0.956497  0.0  0.123984  0.000323  1.013752  0.0  0.127029  0.000223  1.013054  0.0  0.105426  0.121886  0.000335  1.014301  0.0
H  H6  1  0.33302708  0.98888019  0.59425530  1  0.11354  0.000237  0.956491  0.0  0.123988  0.000323  1.013752  0.0  0.127033  0.000223  1.013053  0.0  0.105437  0.12189  0.000335  1.014303  0.0
H  H7  1  0.51017467  0.19860185  0.48390745  1  0.07829  0.000156  0.987832  0.0  0.079919  0.000551  1.062006  0.0  0.083937  0.000374  1.05698  0.0  0.109374  0.077033  0.000635  1.06574  0.0
H  H8  1  0.48982405  0.80139804  0.51608948  1  0.078353  0.000156  0.987711  0.0  0.07996  0.000551  1.061914  0.0  0.083981  0.000374  1.056885  0.0  0.109388  0.077073  0.000635  1.06565  0.0
H  H9  1  0.95338831  0.88909247  0.36129902  1  0.093301  4.7e-05  0.963909  0.0  0.102375  0.000133  1.038725  0.0  0.103547  9.4e-05  1.038821  0.0  0.095908  0.10181  0.000131  1.038097  0.0
H  H10  1  0.04661305  0.11090982  0.63869946  1  0.093334  5.3e-05  0.963956  0.0  0.102419  0.000133  1.038737  0.0  0.103593  9.4e-05  1.038833  0.0  0.095919  0.101856  0.000131  1.038109  0.0
H  H11  1  0.07532709  0.01617302  0.29535285  1  0.080504  -3.6e-05  0.919708  0.0  0.099396  -2.6e-05  0.973333  0.0  0.100693  -3.3e-05  0.973491  0.0  0.093696  0.098312  -1.7e-05  0.973471  0.0
H  H12  1  0.92467465  0.98382806  0.70464693  1  0.080518  -2.9e-05  0.919763  0.0  0.099418  -2.6e-05  0.97338  0.0  0.100716  -3.3e-05  0.973538  0.0  0.093694  0.098333  -1.7e-05  0.973519  0.0
H  H13  1  0.94230136  0.99258534  0.12519186  1  0.064927  -4.3e-05  0.939488  0.0  0.083606  -2.9e-05  1.000343  0.0  0.084145  -3.1e-05  1.001583  0.0  0.089113  0.083194  4e-06  0.99951  0.0
H  H14  1  0.05770151  0.00741578  0.87480702  1  0.064941  -3.7e-05  0.9395  0.0  0.083597  -2.9e-05  1.000383  0.0  0.084133  -3.1e-05  1.001627  0.0  0.089119  0.083187  4e-06  0.999552  0.0
H  H15  1  0.75371140  0.05581359  0.17246008  1  0.064987  -3.3e-05  0.926265  0.0  0.084267  -1.5e-05  0.983995  0.0  0.084952  -2e-05  0.98462  0.0  0.090255  0.083742  1.6e-05  0.983627  0.0
H  H16  1  0.24629071  0.94418632  0.82753930  1  0.065002  -2.7e-05  0.926257  0.0  0.084297  -1.5e-05  0.98398  0.0  0.084983  -2e-05  0.984604  0.0  0.090255  0.083772  1.6e-05  0.983614  0.0
H  H17  1  0.79544288  0.31996471  0.11308104  1  0.077471  4.9e-05  0.936939  0.0  0.095176  0.00011  0.995567  0.0  0.095881  8.6e-05  0.996473  0.0  0.093465  0.094718  0.000148  0.994831  0.0
H  H18  1  0.20455548  0.68003632  0.88691888  1  0.077469  5.1e-05  0.936955  0.0  0.095177  0.00011  0.995578  0.0  0.095882  8.6e-05  0.996481  0.0  0.093473  0.094718  0.000148  0.994841  0.0
H  H19  1  0.98170914  0.25786062  0.06100408  1  0.078061  1.7e-05  0.917217  0.0  0.09825  3.8e-05  0.969679  0.0  0.099534  2.8e-05  0.969257  0.0  0.095608  0.097242  5.9e-05  0.970138  0.0
H  H20  1  0.01828997  0.74214162  0.93899535  1  0.078069  1.9e-05  0.917197  0.0  0.098257  3.8e-05  0.969657  0.0  0.099542  2.8e-05  0.969234  0.0  0.09561  0.097249  5.9e-05  0.970114  0.0
H  H21  1  0.54233196  0.32073902  0.00129484  1  0.104892  0.000242  0.939182  0.0  0.117792  0.000304  0.992314  0.0  0.121006  0.000224  0.992045  0.0  0.107052  0.115372  0.000408  0.992939  0.0
H  H22  1  0.45766639  0.67926559  0.99870455  1  0.104922  0.00024  0.939145  0.0  0.117808  0.000304  0.992288  0.0  0.121025  0.000224  0.992016  0.0  0.107061  0.115389  0.000408  0.992912  0.0
H  H23  1  0.41554323  0.40752436  0.78200345  1  0.079346  -5.6e-05  0.943585  0.0  0.086828  0.00029  1.006869  0.0  0.089526  0.000147  1.004082  0.0  0.116933  0.084931  0.000436  1.008818  0.0
H  H24  1  0.58445625  0.59247669  0.21799643  1  0.079343  -5.4e-05  0.943596  0.0  0.086832  0.00029  1.006874  0.0  0.08953  0.000147  1.004087  0.0  0.116931  0.084936  0.000436  1.008823  0.0
H  H25  1  0.85013117  0.38177413  0.63052843  1  0.08202  0.000323  0.962959  0.0  0.088506  0.000838  1.032522  0.001  0.090053  0.000646  1.030949  0.0  0.118714  0.087371  0.001027  1.033576  0.001
H  H26  1  0.14986943  0.61822695  0.36947054  1  0.082013  0.000321  0.962915  0.0  0.088508  0.000838  1.032467  0.001  0.090054  0.000646  1.030896  0.0  0.118704  0.087372  0.001027  1.033518  0.001
H  H27  1  0.99340066  0.29548102  0.83958245  1  0.114009  0.000216  0.943746  0.0  0.123624  0.000252  1.002482  0.0  0.127332  0.000183  1.000802  0.0  0.108874  0.120994  0.000323  1.003791  0.0
H  H28  1  0.00659996  0.70452004  0.16041824  1  0.114024  0.00022  0.943715  0.0  0.123627  0.000252  1.002462  0.0  0.127334  0.000183  1.000783  0.0  0.108884  0.120997  0.000323  1.003771  0.0
C  C29  1  0.82076012  0.32917407  0.41303237  1  0.122419  0.00233  3.718818  0.002  0.092183  0.004045  3.978166  0.004  0.09965  0.00339  3.995843  0.003  0.042809  0.087319  0.005015  3.965678  0.004
C  C30  1  0.17924127  0.67082098  0.58697402  1  0.122511  0.002355  3.718772  0.002  0.092278  0.004046  3.97811  0.004  0.099742  0.003389  3.995787  0.003  0.042888  0.087429  0.005014  3.965625  0.004
C  C31  1  0.91497812  0.23013258  0.36667905  1  -0.179292  -0.000959  3.711917  0.0  -0.197178  -0.000363  3.961223  0.0  -0.205787  -0.000922  3.982669  0.0  -0.086012  -0.191759  -3.1e-05  3.946678  0.0
C  C32  1  0.08502326  0.76986608  0.63332425  1  -0.179308  -0.000982  3.711842  0.0  -0.197186  -0.000364  3.961147  0.0  -0.205804  -0.000921  3.982594  0.0  -0.086068  -0.191771  -3.1e-05  3.946609  0.0
C  C33  1  0.86135914  0.11411928  0.36008476  1  0.158077  0.002324  3.723677  0.002  0.17271  0.003522  3.963345  0.003  0.178323  0.003095  3.986222  0.003  0.011584  0.169213  0.00406  3.947532  0.003
C  C34  1  0.13864109  0.88588299  0.63991377  1  0.158096  0.002342  3.723726  0.002  0.17274  0.003522  3.963371  0.003  0.178355  0.003094  3.986253  0.003  0.011599  0.16924  0.00406  3.947559  0.003
C  C35  1  0.71364389  0.10173014  0.40507445  1  -0.176475  -0.001644  3.702984  -0.001  -0.191172  -0.001167  3.944551  0.0  -0.200016  -0.001634  3.966977  -0.001  -0.089472  -0.185306  -0.000629  3.929195  0.0
C  C36  1  0.28635559  0.89827094  0.59492285  1  -0.176481  -0.001694  3.703037  -0.001  -0.191173  -0.001167  3.944588  0.0  -0.200019  -0.001633  3.967016  -0.001  -0.089478  -0.185308  -0.000629  3.929234  0.0
C  C37  1  0.62683933  0.20384383  0.45104361  1  0.119704  0.002291  3.723962  0.002  0.093316  0.0041  3.972804  0.003  0.100021  0.003493  3.990989  0.003  0.039781  0.088908  0.004846  3.960227  0.004
C  C38  1  0.37315789  0.79615722  0.54895378  1  0.119651  0.002317  3.723847  0.002  0.093287  0.0041  3.972688  0.003  0.099991  0.003492  3.990872  0.003  0.03975  0.088879  0.004846  3.96011  0.004
C  C39  1  0.95147827  0.01332424  0.30075881  1  -0.172211  -0.000114  3.691638  0.0  -0.214097  9.7e-05  3.944253  0.0  -0.216612  1.5e-05  3.957589  0.0  -0.161838  -0.212384  0.000139  3.934776  0.0
C  C40  1  0.04852346  0.98667686  0.69923926  1  -0.172278  -0.000139  3.691817  0.0  -0.214182  9.7e-05  3.944469  0.0  -0.216703  1.6e-05  3.957814  0.0  -0.16185  -0.212467  0.000139  3.934994  0.0
C  C41  1  0.87356275  0.07014492  0.16468214  1  -0.086329  0.000369  3.658901  0.0  -0.125048  0.000608  3.920987  0.001  -0.126455  0.000495  3.935639  0.0  -0.156815  -0.123789  0.000719  3.910549  0.001
C  C42  1  0.12644012  0.92985619  0.83531674  1  -0.086371  0.000358  3.658936  0.0  -0.125109  0.000608  3.921081  0.001  -0.126515  0.000495  3.935732  0.0  -0.15684  -0.123854  0.000719  3.910646  0.001
C  C43  1  0.86167145  0.24438608  0.07095599  1  -0.162106  -0.000133  3.716947  0.0  -0.206229  7.8e-05  3.972424  0.0  -0.207557  1.5e-05  3.984153  0.0  -0.159043  -0.205133  0.000145  3.963991  0.0
C  C44  1  0.13832878  0.75561619  0.92904254  1  -0.162093  -0.000145  3.716902  0.0  -0.206191  7.8e-05  3.972368  0.0  -0.207518  1.5e-05  3.984097  0.0  -0.159024  -0.205093  0.000145  3.963934  0.0
C  C45  1  0.78026138  0.30021665  0.94020075  1  0.155192  0.002856  3.745526  0.003  0.170968  0.004016  3.984224  0.003  0.176503  0.003633  4.007332  0.003  0.011944  0.167403  0.004749  3.968307  0.004
C  C46  1  0.21973772  0.69978561  0.05979696  1  0.155245  0.002846  3.745408  0.003  0.17101  0.004015  3.984102  0.003  0.176544  0.003632  4.007206  0.003  0.011956  0.167444  0.004749  3.968187  0.004
C  C47  1  0.61508735  0.33305541  0.92124981  1  -0.191515  -0.00196  3.739904  -0.001  -0.207461  -0.001162  3.983682  0.0  -0.216629  -0.001798  4.005875  -0.001  -0.091652  -0.201646  -0.000782  3.969038  0.0
C  C48  1  0.38491288  0.66694684  0.07875043  1  -0.191537  -0.001935  3.739869  -0.001  -0.207461  -0.001162  3.983644  0.0  -0.216632  -0.001798  4.005836  -0.001  -0.091643  -0.201645  -0.000782  3.969001  0.0
C  C49  1  0.54332860  0.38213908  0.79961615  1  0.133718  0.002871  3.726223  0.003  0.10423  0.00451  3.9755  0.004  0.111796  0.003912  3.994574  0.004  0.047078  0.099178  0.005322  3.962658  0.005
C  C50  1  0.45667089  0.61786196  0.20038459  1  0.133677  0.002853  3.726246  0.003  0.104184  0.00451  3.975522  0.004  0.111749  0.003912  3.994597  0.004  0.047082  0.099133  0.005321  3.962681  0.005
C  C51  1  0.78422355  0.36813040  0.71400612  1  0.150047  0.003589  3.691144  0.003  0.117209  0.005704  3.945128  0.005  0.125187  0.004968  3.964462  0.004  0.05323  0.111992  0.006718  3.931687  0.005
C  C52  1  0.21577593  0.63187067  0.28599204  1  0.149987  0.00359  3.691192  0.003  0.117142  0.005704  3.945175  0.005  0.125119  0.004967  3.964512  0.004  0.053217  0.111928  0.006717  3.931729  0.005
C  C53  1  0.86489201  0.31828429  0.83287897  1  -0.178191  -0.002021  3.705214  -0.001  -0.193831  -0.001239  3.94837  0.0  -0.203119  -0.001871  3.970218  -0.001  -0.086067  -0.187591  -0.000847  3.933494  0.0
C  C54  1  0.13510785  0.68171558  0.16712050  1  -0.178235  -0.002026  3.70515  -0.001  -0.193857  -0.001239  3.948307  0.0  -0.203144  -0.00187  3.970155  -0.001  -0.086073  -0.187617  -0.000847  3.933431  0.0
N  N55  1  0.67774091  0.31787440  0.45444240  1  -0.345172  0.025717  3.248865  0.015  -0.276113  0.029864  3.524005  0.015  -0.296472  0.026568  3.542015  0.013  -0.324941  -0.261501  0.033596  3.510708  0.019
N  N56  1  0.32225857  0.68212307  0.54555886  1  -0.345231  0.025696  3.248827  0.015  -0.276196  0.029866  3.523988  0.015  -0.296551  0.02657  3.541983  0.013  -0.324958  -0.261583  0.033597  3.51068  0.019
N  N57  1  0.62586824  0.40050252  0.69644686  1  -0.329211  0.025761  3.249239  0.014  -0.256131  0.029364  3.520765  0.013  -0.277206  0.02603  3.538326  0.011  -0.322714  -0.241085  0.032229  3.508074  0.016
N  N58  1  0.37412974  0.59949613  0.30355314  1  -0.329092  0.025765  3.249218  0.014  -0.25602  0.02936  3.520759  0.013  -0.277095  0.026026  3.538323  0.011  -0.322711  -0.240975  0.032225  3.508069  0.016
N  N59  1  0.75936275  0.68728861  0.42933676  1  0.717394  0.007482  4.095227  0.009  0.733129  0.012558  4.411858  0.014  0.762386  0.008665  4.416306  0.01  0.100251  0.71293  0.016668  4.40839  0.018
N  N60  1  0.24063485  0.31270765  0.57066332  1  0.717609  0.007506  4.095038  0.009  0.733331  0.012558  4.411678  0.014  0.762588  0.008662  4.416125  0.01  0.100311  0.713133  0.016669  4.408211  0.018
O  O61  1  0.63337698  0.66434865  0.39710740  1  -0.540894  0.022428  1.862216  0.009  -0.509878  0.030262  2.130043  0.014  -0.530256  0.026209  2.11666  0.01  -0.218919  -0.495195  0.035263  2.138976  0.018
O  O62  1  0.36662062  0.33564758  0.60289439  1  -0.540952  0.022393  1.862159  0.009  -0.509867  0.030269  2.129929  0.014  -0.530245  0.026197  2.116547  0.01  -0.218883  -0.495181  0.035262  2.138861  0.018
O  O63  1  0.88066437  0.66664308  0.37187373  1  -0.45604  0.009181  1.752986  0.011  -0.448027  0.013152  1.976783  0.015  -0.460179  0.010099  1.968898  0.012  -0.181959  -0.439614  0.016263  1.981651  0.017
O  O64  1  0.11933172  0.33335077  0.62812647  1  -0.456117  0.009179  1.752927  0.011  -0.44812  0.013149  1.976741  0.015  -0.460274  0.010102  1.968855  0.012  -0.182001  -0.439706  0.016264  1.981612  0.017
O  O65  1  0.75585807  0.73000292  0.51532958  1  -0.454302  0.005071  1.729015  0.006  -0.444539  0.00852  1.938633  0.009  -0.456712  0.006026  1.932597  0.007  -0.179558  -0.436974  0.011511  1.943145  0.012
O  O66  1  0.24413576  0.26999807  0.48466795  1  -0.454405  0.005085  1.728986  0.006  -0.444663  0.008516  1.938623  0.009  -0.456829  0.006033  1.932577  0.007  -0.179618  -0.437102  0.011511  1.943146  0.012
