# generated using pymatgen
data_LaH9C11NO8
_symmetry_space_group_name_H-M   'P 1'
_cell_length_a   6.91614493
_cell_length_b   13.62359353
_cell_length_c   14.26448649
_cell_angle_alpha   112.71173409
_cell_angle_beta   89.99986393
_cell_angle_gamma   90.00016114
_symmetry_Int_Tables_number   1
_chemical_formula_structural   LaH9C11NO8
_chemical_formula_sum   'La4 H36 C44 N4 O32'
_cell_volume   1239.82102067
_cell_formula_units_Z   4
loop_
 _symmetry_equiv_pos_site_id
 _symmetry_equiv_pos_as_xyz
  1  'x, y, z'
loop_
 _atom_site_type_symbol
 _atom_site_label
 _atom_site_symmetry_multiplicity
 _atom_site_fract_x
 _atom_site_fract_y
 _atom_site_fract_z
 _atom_site_occupancy
 _atom_site_hle17_bader_spin_density
 _atom_site_hle17_ddec_charge
 _atom_site_hle17_ddec_spin_density
 _atom_site_hle17_ddec_sum_bond_order
 _atom_site_hle17_magmom
 _atom_site_hse06_10hf_bader_spin_density
 _atom_site_hse06_10hf_ddec_charge
 _atom_site_hse06_10hf_ddec_spin_density
 _atom_site_hse06_10hf_ddec_sum_bond_order
 _atom_site_hse06_10hf_magmom
 _atom_site_hse06_bader_spin_density
 _atom_site_hse06_ddec_charge
 _atom_site_hse06_ddec_spin_density
 _atom_site_hse06_ddec_sum_bond_order
 _atom_site_hse06_magmom
 _atom_site_pbe_bader_spin_density
 _atom_site_pbe_cm5_charge
 _atom_site_pbe_ddec_charge
 _atom_site_pbe_ddec_spin_density
 _atom_site_pbe_ddec_sum_bond_order
 _atom_site_pbe_magmom
La  La0  1  0.42073063  0.53496060  0.36704273  1  0  2.100995  0  1.74021  0  0  1.959151  0  2.259107  0  0  2.062761  0  2.15984  0  0  1.386125  1.881547  0  2.328747  0
La  La1  1  0.92074527  0.96503718  0.63295551  1  0  2.100999  0  1.740266  0  0  1.959195  0  2.259058  0  0  2.062811  0  2.15978  0  0  1.386124  1.881579  0  2.328706  0
La  La2  1  0.57927910  0.46503862  0.63295816  1  0  2.100997  0  1.74025  0  0  1.959153  0  2.259203  0  0  2.06276  0  2.159929  0  0  1.386128  1.881527  0  2.328837  0
La  La3  1  0.07926590  0.03496122  0.36703808  1  0  2.10094  0  1.740402  0  0  1.959092  0  2.259321  0  0  2.062693  0  2.160065  0  0  1.386113  1.881471  0  2.328974  0
H  H4  1  0.11599261  0.19660611  0.12000283  1  0  0.100034  0  0.930055  0  0  0.113903  0  0.984994  0  0  0.11643  0  0.98407  0  0  0.112634  0.111989  0  0.985851  0
H  H5  1  0.61600082  0.30340094  0.87999741  1  0  0.10004  0  0.930054  0  0  0.113923  0  0.984966  0  0  0.116447  0  0.984047  0  0  0.112647  0.112013  0  0.985824  0
H  H6  1  0.88400410  0.80339788  0.87999841  1  0  0.100071  0  0.930028  0  0  0.113917  0  0.984995  0  0  0.116438  0  0.98408  0  0  0.112644  0.112006  0  0.985855  0
H  H7  1  0.38401180  0.69659907  0.12000027  1  0  0.100109  0  0.930028  0  0  0.113931  0  0.985014  0  0  0.116452  0  0.984099  0  0  0.112639  0.11202  0  0.985874  0
H  H8  1  0.83812500  0.22905738  0.02123103  1  0  0.100385  0  0.94761  0  0  0.112484  0  1.004461  0  0  0.115342  0  1.003763  0  0  0.109454  0.110405  0  1.005134  0
H  H9  1  0.33813471  0.27094595  0.97876969  1  0  0.100402  0  0.947657  0  0  0.112559  0  1.004435  0  0  0.115416  0  1.003736  0  0  0.109486  0.11048  0  1.005109  0
H  H10  1  0.16187604  0.77094900  0.97877249  1  0  0.100366  0  0.947687  0  0  0.112502  0  1.004494  0  0  0.115357  0  1.003796  0  0  0.109475  0.110425  0  1.005169  0
H  H11  1  0.66187646  0.72905247  0.02122740  1  0  0.100393  0  0.947633  0  0  0.112517  0  1.004452  0  0  0.115371  0  1.003754  0  0  0.109481  0.110444  0  1.005125  0
H  H12  1  0.57168911  0.35185694  0.11795717  1  0  0.084116  0  0.966202  0  0  0.091022  0  1.032869  0  0  0.094454  0  1.029509  0  0  0.117646  0.088455  0  1.035459  0
H  H13  1  0.07170005  0.14814768  0.88204574  1  0  0.084125  0  0.966093  0  0  0.091014  0  1.032787  0  0  0.094454  0  1.029416  0  0  0.11758  0.088449  0  1.035373  0
H  H14  1  0.42830905  0.64814944  0.88204425  1  0  0.084156  0  0.96619  0  0  0.091065  0  1.032848  0  0  0.094493  0  1.029483  0  0  0.117652  0.088493  0  1.035448  0
H  H15  1  0.92830967  0.85185312  0.11795153  1  0  0.084155  0  0.966188  0  0  0.091067  0  1.032846  0  0  0.094493  0  1.029482  0  0  0.117656  0.088503  0  1.035436  0
H  H16  1  0.79843579  0.53690183  0.15458051  1  0  0.10816  0  0.964671  0  0  0.117521  0  1.026759  0  0  0.121228  0  1.024389  0  0  0.110568  0.114841  0  1.028573  0
H  H17  1  0.29843997  0.96309740  0.84541910  1  0  0.108143  0  0.96468  0  0  0.117502  0  1.026777  0  0  0.121208  0  1.02441  0  0  0.110594  0.114821  0  1.028589  0
H  H18  1  0.20155803  0.46309897  0.84541815  1  0  0.108146  0  0.964704  0  0  0.117515  0  1.026781  0  0  0.121221  0  1.024414  0  0  0.110584  0.114839  0  1.028589  0
H  H19  1  0.70155674  0.03690103  0.15458431  1  0  0.108126  0  0.964674  0  0  0.117492  0  1.026764  0  0  0.121198  0  1.024397  0  0  0.110549  0.114811  0  1.028576  0
H  H20  1  0.35200229  0.46872964  0.00571013  1  0  0.094613  0  0.966296  0  0  0.103342  0  1.032297  0  0  0.106923  0  1.029532  0  0  0.102103  0.100685  0  1.034451  0
H  H21  1  0.85200265  0.03127053  0.99429292  1  0  0.094634  0  0.966255  0  0  0.103368  0  1.032244  0  0  0.106944  0  1.029492  0  0  0.102102  0.100718  0  1.034376  0
H  H22  1  0.64799442  0.53127594  0.99429099  1  0  0.094593  0  0.966267  0  0  0.103329  0  1.032264  0  0  0.106905  0  1.029508  0  0  0.102092  0.100686  0  1.034388  0
H  H23  1  0.14798972  0.96872472  0.00570932  1  0  0.094632  0  0.966261  0  0  0.103371  0  1.032249  0  0  0.106951  0  1.029485  0  0  0.102111  0.100724  0  1.03438  0
H  H24  1  0.86496246  0.57497487  0.30859013  1  0  0.434756  0  0.865028  0  0  0.405535  0  0.926697  0  0  0.417426  0  0.90936  0  0  0.297824  0.396964  0  0.939192  0
H  H25  1  0.36497152  0.92503001  0.69140867  1  0  0.434792  0  0.86495  0  0  0.405587  0  0.926589  0  0  0.417477  0  0.909252  0  0  0.297866  0.397018  0  0.939079  0
H  H26  1  0.13503425  0.42502515  0.69141176  1  0  0.434759  0  0.865009  0  0  0.405546  0  0.926662  0  0  0.417435  0  0.909327  0  0  0.297844  0.396976  0  0.939157  0
H  H27  1  0.63502374  0.07496762  0.30859164  1  0  0.434765  0  0.864989  0  0  0.405541  0  0.926669  0  0  0.417432  0  0.909332  0  0  0.297807  0.396967  0  0.939169  0
H  H28  1  0.79371912  0.68397483  0.38724165  1  0  0.425972  0  0.859672  0  0  0.400992  0  0.921015  0  0  0.411939  0  0.90504  0  0  0.304085  0.393032  0  0.932646  0
H  H29  1  0.29372942  0.81602757  0.61275493  1  0  0.425969  0  0.859638  0  0  0.401015  0  0.920956  0  0  0.411958  0  0.904989  0  0  0.304136  0.393053  0  0.932588  0
H  H30  1  0.20627470  0.31602598  0.61275913  1  0  0.425912  0  0.859725  0  0  0.400942  0  0.92107  0  0  0.411887  0  0.905098  0  0  0.304071  0.392984  0  0.932697  0
H  H31  1  0.70627308  0.18397164  0.38724105  1  0  0.425898  0  0.859659  0  0  0.400917  0  0.9211  0  0  0.411864  0  0.905124  0  0  0.304057  0.392956  0  0.93273  0
H  H32  1  0.52948661  0.77131116  0.50870358  1  0  0.43731  0  0.862905  0  0  0.406864  0  0.926515  0  0  0.417727  0  0.910792  0  0  0.310515  0.3991  0  0.937719  0
H  H33  1  0.02948400  0.72868540  0.49129887  1  0  0.437376  0  0.862792  0  0  0.406926  0  0.926422  0  0  0.417792  0  0.910692  0  0  0.310488  0.399177  0  0.937613  0
H  H34  1  0.47051444  0.22868727  0.49129702  1  0  0.437291  0  0.862923  0  0  0.406848  0  0.926529  0  0  0.417712  0  0.910803  0  0  0.310477  0.399084  0  0.937736  0
H  H35  1  0.97052717  0.27131304  0.50870524  1  0  0.437299  0  0.862923  0  0  0.406816  0  0.926565  0  0  0.417704  0  0.91082  0  0  0.310492  0.399049  0  0.937776  0
H  H36  1  0.56612227  0.70158040  0.57608339  1  0  0.428938  0  0.867519  0  0  0.396511  0  0.938627  0  0  0.408718  0  0.920914  0  0  0.306332  0.387728  0  0.95134  0
H  H37  1  0.06612326  0.79841221  0.42391476  1  0  0.428985  0  0.867427  0  0  0.396593  0  0.938498  0  0  0.408801  0  0.920781  0  0  0.306371  0.387807  0  0.951215  0
H  H38  1  0.43387444  0.29841882  0.42391890  1  0  0.428991  0  0.867461  0  0  0.396564  0  0.938571  0  0  0.408774  0  0.920851  0  0  0.306365  0.387778  0  0.951289  0
H  H39  1  0.93388502  0.20158223  0.57608298  1  0  0.429016  0  0.867417  0  0  0.396576  0  0.938538  0  0  0.408786  0  0.920818  0  0  0.30636  0.387793  0  0.951251  0
C  C40  1  0.83476296  0.36030729  0.31196796  1  0  0.089343  0  3.700898  0  0  0.08727  0  3.943055  0  0  0.089881  0  3.958568  0  0  0.128398  0.085198  0  3.932959  0
C  C41  1  0.33476902  0.13969365  0.68802979  1  0  0.08952  0  3.700842  0  0  0.08737  0  3.943055  0  0  0.089979  0  3.958567  0  0  0.128369  0.085298  0  3.932949  0
C  C42  1  0.16522797  0.63968955  0.68803346  1  0  0.089327  0  3.700926  0  0  0.087146  0  3.943106  0  0  0.089752  0  3.958624  0  0  0.128322  0.085067  0  3.933004  0
C  C43  1  0.66523637  0.86030397  0.31196491  1  0  0.089204  0  3.701044  0  0  0.087169  0  3.943189  0  0  0.089787  0  3.958702  0  0  0.128322  0.085089  0  3.933088  0
C  C44  1  0.99309821  0.29630233  0.26470414  1  0  -0.067977  0  3.678689  0  0  -0.056568  0  3.917329  0  0  -0.061792  0  3.933413  0  0  0.017549  -0.05343  0  3.907027  0
C  C45  1  0.49310584  0.20369799  0.73529319  1  0  -0.068108  0  3.678887  0  0  -0.056522  0  3.91735  0  0  -0.06173  0  3.933426  0  0  0.01756  -0.05339  0  3.907054  0
C  C46  1  0.00689271  0.70369770  0.73529985  1  0  -0.068047  0  3.678808  0  0  -0.05641  0  3.917189  0  0  -0.061629  0  3.933268  0  0  0.01757  -0.053273  0  3.906883  0
C  C47  1  0.50689520  0.79630120  0.26469858  1  0  -0.067854  0  3.678779  0  0  -0.056402  0  3.917309  0  0  -0.061621  0  3.933393  0  0  0.017576  -0.053257  0  3.906998  0
C  C48  1  0.99523392  0.24779531  0.15855422  1  0  -0.020396  0  3.67355  0  0  -0.047476  0  3.921876  0  0  -0.045351  0  3.938967  0  0  -0.057685  -0.048742  0  3.910471  0
C  C49  1  0.49524275  0.25220660  0.84144369  1  0  -0.020323  0  3.673433  0  0  -0.047459  0  3.921736  0  0  -0.045337  0  3.938824  0  0  -0.057658  -0.048729  0  3.910338  0
C  C50  1  0.00476134  0.75220472  0.84144977  1  0  -0.020374  0  3.673452  0  0  -0.047508  0  3.921749  0  0  -0.045385  0  3.938842  0  0  -0.057656  -0.048773  0  3.910347  0
C  C51  1  0.50476698  0.74779259  0.15854948  1  0  -0.020568  0  3.673518  0  0  -0.047641  0  3.921876  0  0  -0.045517  0  3.938967  0  0  -0.057732  -0.048901  0  3.910459  0
C  C52  1  0.84238450  0.26571577  0.10396795  1  0  -0.100896  0  3.739336  0  0  -0.113539  0  3.993088  0  0  -0.118756  0  4.014354  0  0  -0.075068  -0.110149  0  3.978797  0
C  C53  1  0.34239585  0.23428598  0.89603359  1  0  -0.10106  0  3.739404  0  0  -0.113766  0  3.993197  0  0  -0.118981  0  4.014461  0  0  -0.075184  -0.110372  0  3.978909  0
C  C54  1  0.15761221  0.73428664  0.89603481  1  0  -0.100937  0  3.739428  0  0  -0.113603  0  3.993191  0  0  -0.118816  0  4.014451  0  0  -0.075132  -0.110216  0  3.978906  0
C  C55  1  0.65761965  0.76571084  0.10396362  1  0  -0.1009  0  3.73937  0  0  -0.113557  0  3.993133  0  0  -0.118768  0  4.014388  0  0  -0.07506  -0.11016  0  3.978847  0
C  C56  1  0.69262338  0.33285009  0.15697330  1  0  0.126155  0  3.709094  0  0  0.096029  0  3.969414  0  0  0.102058  0  3.98695  0  0  0.052854  0.091934  0  3.957476  0
C  C57  1  0.19263607  0.16715149  0.84302834  1  0  0.126198  0  3.709233  0  0  0.096084  0  3.969555  0  0  0.102109  0  3.987098  0  0  0.052952  0.091987  0  3.957616  0
C  C58  1  0.30737478  0.66715390  0.84302864  1  0  0.126154  0  3.709069  0  0  0.096022  0  3.969387  0  0  0.102058  0  3.986919  0  0  0.05291  0.091928  0  3.95745  0
C  C59  1  0.80737944  0.83284295  0.15696940  1  0  0.126184  0  3.708976  0  0  0.09605  0  3.969301  0  0  0.10209  0  3.986827  0  0  0.052893  0.091957  0  3.957367  0
C  C60  1  0.81190471  0.40909510  0.42560349  1  0  0.651646  0  3.886616  0  0  0.597521  0  4.189563  0  0  0.632351  0  4.182803  0  0  0.229487  0.573718  0  4.193318  0
C  C61  1  0.31191250  0.09090342  0.57439550  1  0  0.651485  0  3.88665  0  0  0.597292  0  4.189772  0  0  0.632122  0  4.183007  0  0  0.229344  0.57349  0  4.193517  0
C  C62  1  0.18808911  0.59089935  0.57439635  1  0  0.651567  0  3.886655  0  0  0.597502  0  4.189567  0  0  0.632331  0  4.182814  0  0  0.229459  0.573704  0  4.193318  0
C  C63  1  0.68809433  0.90909419  0.42559990  1  0  0.651641  0  3.88651  0  0  0.597434  0  4.189627  0  0  0.632238  0  4.182903  0  0  0.22943  0.573638  0  4.193372  0
C  C64  1  0.16355931  0.28102094  0.32280649  1  0  0.719128  0  3.870804  0  0  0.667468  0  4.169137  0  0  0.706174  0  4.155653  0  0  0.242165  0.640597  0  4.177944  0
C  C65  1  0.66356081  0.21898140  0.67719336  1  0  0.719354  0  3.870662  0  0  0.667617  0  4.169034  0  0  0.706309  0  4.155563  0  0  0.242209  0.640741  0  4.17784  0
C  C66  1  0.83643161  0.71898148  0.67719908  1  0  0.719236  0  3.870724  0  0  0.6675  0  4.169098  0  0  0.706213  0  4.155603  0  0  0.242206  0.640629  0  4.177907  0
C  C67  1  0.33643301  0.78102497  0.32280384  1  0  0.719249  0  3.870584  0  0  0.667592  0  4.1689  0  0  0.706298  0  4.15541  0  0  0.242255  0.640723  0  4.177712  0
C  C68  1  0.88689414  0.52009747  0.08707054  1  0  -0.072517  0  3.729994  0  0  -0.0959  0  3.977202  0  0  -0.097036  0  3.9977  0  0  -0.083131  -0.094956  0  3.963225  0
C  C69  1  0.38689231  0.97990266  0.91292930  1  0  -0.072334  0  3.729944  0  0  -0.095741  0  3.977151  0  0  -0.096877  0  3.997648  0  0  -0.083106  -0.094803  0  3.963175  0
C  C70  1  0.11310546  0.47990254  0.91292784  1  0  -0.072425  0  3.73005  0  0  -0.095843  0  3.977253  0  0  -0.096979  0  3.997751  0  0  -0.083131  -0.094891  0  3.963269  0
C  C71  1  0.61309862  0.02009735  0.08707258  1  0  -0.072409  0  3.730056  0  0  -0.095811  0  3.977288  0  0  -0.096946  0  3.997785  0  0  -0.083099  -0.094876  0  3.963313  0
C  C72  1  0.08586258  0.50184890  0.08975309  1  0  -0.055922  0  3.75087  0  0  -0.035139  0  3.983307  0  0  -0.040823  0  4.004384  0  0  -0.016458  -0.031504  0  3.969127  0
C  C73  1  0.58586014  0.99815328  0.91024785  1  0  -0.056046  0  3.750997  0  0  -0.035196  0  3.983381  0  0  -0.040879  0  4.004457  0  0  -0.016488  -0.03156  0  3.969203  0
C  C74  1  0.91413992  0.49815350  0.91024616  1  0  -0.056025  0  3.751125  0  0  -0.035195  0  3.98349  0  0  -0.040879  0  4.004568  0  0  -0.016487  -0.031562  0  3.969316  0
C  C75  1  0.41413368  0.00184753  0.08975433  1  0  -0.055982  0  3.750951  0  0  -0.035215  0  3.983406  0  0  -0.040899  0  4.004482  0  0  -0.016493  -0.031579  0  3.969229  0
C  C76  1  0.19756803  0.48248765  0.00228389  1  0  -0.084863  0  3.754459  0  0  -0.107177  0  4.005975  0  0  -0.10872  0  4.026549  0  0  -0.087731  -0.105944  0  3.992034  0
C  C77  1  0.69756397  0.01751234  0.99771647  1  0  -0.084937  0  3.754606  0  0  -0.107263  0  4.006098  0  0  -0.108809  0  4.026671  0  0  -0.087753  -0.106018  0  3.99216  0
C  C78  1  0.80243157  0.51751235  0.99771309  1  0  -0.084825  0  3.754515  0  0  -0.107161  0  4.006004  0  0  -0.108706  0  4.026577  0  0  -0.087722  -0.105924  0  3.992062  0
C  C79  1  0.30242696  0.98248689  0.00228512  1  0  -0.084963  0  3.754501  0  0  -0.107291  0  4.006044  0  0  -0.108835  0  4.026618  0  0  -0.087767  -0.106056  0  3.992101  0
C  C80  1  0.18185658  0.49998391  0.18298068  1  0  0.635921  0  3.923703  0  0  0.589458  0  4.219395  0  0  0.623718  0  4.214488  0  0  0.198442  0.566202  0  4.221563  0
C  C81  1  0.68185764  0.00002084  0.81702215  1  0  0.636  0  3.923719  0  0  0.589463  0  4.219508  0  0  0.623724  0  4.214602  0  0  0.198393  0.56621  0  4.221675  0
C  C82  1  0.81814592  0.50001769  0.81701899  1  0  0.635898  0  3.923946  0  0  0.58945  0  4.219588  0  0  0.623709  0  4.214685  0  0  0.198422  0.566199  0  4.221756  0
C  C83  1  0.31813618  0.99998475  0.18298178  1  0  0.63614  0  3.923569  0  0  0.589734  0  4.219174  0  0  0.623993  0  4.214264  0  0  0.198547  0.566478  0  4.221345  0
N  N84  1  0.68904613  0.37957443  0.25853492  1  0  -0.345683  0  3.182235  0  0  -0.299201  0  3.444403  0  0  -0.316117  0  3.463929  0  0  -0.338896  -0.287001  0  3.430702  0
N  N85  1  0.18905760  0.12042874  0.74146802  1  0  -0.345809  0  3.182458  0  0  -0.299327  0  3.444684  0  0  -0.316244  0  3.464214  0  0  -0.338916  -0.287128  0  3.430975  0
N  N86  1  0.31094625  0.62042400  0.74146569  1  0  -0.345745  0  3.182149  0  0  -0.299261  0  3.444376  0  0  -0.316178  0  3.463902  0  0  -0.338948  -0.287056  0  3.430669  0
N  N87  1  0.81095646  0.87956968  0.25853258  1  0  -0.345727  0  3.182054  0  0  -0.299256  0  3.444226  0  0  -0.31617  0  3.463747  0  0  -0.338929  -0.287056  0  3.430523  0
O  O88  1  0.67212029  0.47558014  0.45971260  1  0  -0.728522  0  2.148563  0  0  -0.674383  0  2.417127  0  0  -0.713134  0  2.412661  0  0  -0.417705  -0.646152  0  2.418613  0
O  O89  1  0.17213366  0.02441663  0.54028521  1  0  -0.728538  0  2.148597  0  0  -0.674393  0  2.417253  0  0  -0.713116  0  2.412736  0  0  -0.417672  -0.646174  0  2.418762  0
O  O90  1  0.32787353  0.52441352  0.54029046  1  0  -0.728478  0  2.148553  0  0  -0.674422  0  2.417186  0  0  -0.713156  0  2.412688  0  0  -0.417697  -0.646187  0  2.418671  0
O  O91  1  0.82788329  0.97557700  0.45970873  1  0  -0.728465  0  2.148536  0  0  -0.674321  0  2.417185  0  0  -0.713066  0  2.412749  0  0  -0.41761  -0.64609  0  2.418669  0
O  O92  1  0.17047040  0.19852115  0.34237898  1  0  -0.677041  0  2.067597  0  0  -0.623882  0  2.321637  0  0  -0.658575  0  2.312219  0  0  -0.375867  -0.598723  0  2.327283  0
O  O93  1  0.67046956  0.30148199  0.65762327  1  0  -0.67712  0  2.067674  0  0  -0.623963  0  2.321787  0  0  -0.658655  0  2.312377  0  0  -0.375881  -0.598817  0  2.327439  0
O  O94  1  0.82952053  0.80148125  0.65762519  1  0  -0.677064  0  2.067593  0  0  -0.623862  0  2.321616  0  0  -0.658562  0  2.312197  0  0  -0.375879  -0.598718  0  2.327271  0
O  O95  1  0.32950835  0.69852679  0.34238393  1  0  -0.677073  0  2.067413  0  0  -0.62389  0  2.321422  0  0  -0.658587  0  2.312009  0  0  -0.375831  -0.598741  0  2.327076  0
O  O96  1  0.29900629  0.34943890  0.34388900  1  0  -0.680879  0  2.0203  0  0  -0.630745  0  2.270901  0  0  -0.665426  0  2.261089  0  0  -0.346555  -0.605616  0  2.276799  0
O  O97  1  0.79900897  0.15056040  0.65610959  1  0  -0.680985  0  2.020101  0  0  -0.630825  0  2.270699  0  0  -0.665501  0  2.2609  0  0  -0.346584  -0.605693  0  2.276594  0
O  O98  1  0.70098608  0.65056352  0.65611868  1  0  -0.680897  0  2.020232  0  0  -0.630798  0  2.27092  0  0  -0.665474  0  2.26109  0  0  -0.346585  -0.605663  0  2.276811  0
O  O99  1  0.20099353  0.84944436  0.34388352  1  0  -0.681013  0  2.020304  0  0  -0.6309  0  2.27092  0  0  -0.665575  0  2.2611  0  0  -0.346657  -0.605757  0  2.276803  0
O  O100  1  0.36315262  0.47942174  0.17843314  1  0  -0.677411  0  1.974428  0  0  -0.636058  0  2.225775  0  0  -0.668018  0  2.218921  0  0  -0.377811  -0.612973  0  2.229319  0
O  O101  1  0.86315377  0.02057923  0.82156739  1  0  -0.677423  0  1.974424  0  0  -0.636058  0  2.225798  0  0  -0.668021  0  2.218947  0  0  -0.377803  -0.612976  0  2.229342  0
O  O102  1  0.63685422  0.52058065  0.82156471  1  0  -0.677343  0  1.9746  0  0  -0.636021  0  2.225943  0  0  -0.667979  0  2.219089  0  0  -0.377787  -0.61294  0  2.229487  0
O  O103  1  0.13684295  0.97942397  0.17843426  1  0  -0.67747  0  1.974388  0  0  -0.636153  0  2.225729  0  0  -0.66811  0  2.218872  0  0  -0.377885  -0.613075  0  2.229277  0
O  O104  1  0.74445317  0.61577964  0.33766618  1  0  -0.875846  0  1.83959  0  0  -0.833388  0  2.032661  0  0  -0.858437  0  1.999875  0  0  -0.62475  -0.815107  0  2.055727  0
O  O105  1  0.24446360  0.88422192  0.66233294  1  0  -0.875884  0  1.839601  0  0  -0.833431  0  2.032636  0  0  -0.858474  0  1.999839  0  0  -0.624841  -0.815148  0  2.055703  0
O  O106  1  0.25554065  0.38421959  0.66233752  1  0  -0.875829  0  1.839621  0  0  -0.833362  0  2.03268  0  0  -0.858405  0  1.99989  0  0  -0.624765  -0.815076  0  2.055735  0
O  O107  1  0.75553456  0.11577332  0.33766649  1  0  -0.875794  0  1.839582  0  0  -0.833313  0  2.032673  0  0  -0.858357  0  1.999884  0  0  -0.624698  -0.815023  0  2.055735  0
O  O108  1  0.47726511  0.71254960  0.52612324  1  0  -0.877108  0  1.908007  0  0  -0.818211  0  2.096412  0  0  -0.844671  0  2.063757  0  0  -0.60273  -0.799048  0  2.119353  0
O  O109  1  0.97726654  0.78744747  0.47388028  1  0  -0.877227  0  1.907909  0  0  -0.818401  0  2.096346  0  0  -0.844862  0  2.063684  0  0  -0.602761  -0.799251  0  2.119256  0
O  O110  1  0.52273738  0.28744882  0.47387736  1  0  -0.877161  0  1.907942  0  0  -0.818285  0  2.096369  0  0  -0.844747  0  2.063706  0  0  -0.602746  -0.799119  0  2.119308  0
O  O111  1  0.02274319  0.21254937  0.52612114  1  0  -0.877175  0  1.907947  0  0  -0.818256  0  2.096507  0  0  -0.844748  0  2.063776  0  0  -0.602759  -0.799092  0  2.119446  0
O  O112  1  0.08599811  0.51844896  0.26455864  1  0  -0.667808  0  2.031388  0  0  -0.619021  0  2.271098  0  0  -0.649775  0  2.265363  0  0  -0.334521  -0.597066  0  2.274272  0
O  O113  1  0.58600511  0.98155639  0.73544346  1  0  -0.667861  0  2.031452  0  0  -0.619022  0  2.271096  0  0  -0.649775  0  2.265364  0  0  -0.334464  -0.597068  0  2.274266  0
O  O114  1  0.91400004  0.48155104  0.73543974  1  0  -0.667846  0  2.031484  0  0  -0.619035  0  2.271139  0  0  -0.649792  0  2.265406  0  0  -0.334549  -0.597083  0  2.274315  0
O  O115  1  0.41399594  0.01844760  0.26455918  1  0  -0.667954  0  2.031474  0  0  -0.619166  0  2.271129  0  0  -0.649918  0  2.26539  0  0  -0.334568  -0.59721  0  2.274304  0
O  O116  1  0.08324046  0.61842419  0.51675144  1  0  -0.604455  0  1.971597  0  0  -0.554243  0  2.201426  0  0  -0.580362  0  2.192876  0  0  -0.287144  -0.535845  0  2.206765  0
O  O117  1  0.58322645  0.88157240  0.48324185  1  0  -0.604482  0  1.971446  0  0  -0.554236  0  2.201287  0  0  -0.580368  0  2.192818  0  0  -0.287218  -0.535838  0  2.20662  0
O  O118  1  0.91676348  0.38157423  0.48324636  1  0  -0.604544  0  1.971589  0  0  -0.55429  0  2.201415  0  0  -0.580401  0  2.192852  0  0  -0.287236  -0.535893  0  2.206752  0
O  O119  1  0.41677316  0.11842760  0.51675442  1  0  -0.604364  0  1.971644  0  0  -0.554115  0  2.201489  0  0  -0.58025  0  2.192984  0  0  -0.287118  -0.535717  0  2.206823  0
