# generated using pymatgen
data_CuH6C9S2N6O
_symmetry_space_group_name_H-M   'P 1'
_cell_length_a   8.44106324
_cell_length_b   8.75265414
_cell_length_c   9.48476838
_cell_angle_alpha   81.14802128
_cell_angle_beta   68.54046253
_cell_angle_gamma   74.92771539
_symmetry_Int_Tables_number   1
_chemical_formula_structural   CuH6C9S2N6O
_chemical_formula_sum   'Cu2 H12 C18 S4 N12 O2'
_cell_volume   628.38933914
_cell_formula_units_Z   2
loop_
 _symmetry_equiv_pos_site_id
 _symmetry_equiv_pos_as_xyz
  1  'x, y, z'
loop_
 _atom_site_type_symbol
 _atom_site_label
 _atom_site_symmetry_multiplicity
 _atom_site_fract_x
 _atom_site_fract_y
 _atom_site_fract_z
 _atom_site_occupancy
 _atom_site_hle17_ddec_charge
 _atom_site_hle17_ddec_spin_density
 _atom_site_hle17_ddec_sum_bond_order
 _atom_site_hle17_magmom
 _atom_site_hse06_10hf_ddec_charge
 _atom_site_hse06_10hf_ddec_spin_density
 _atom_site_hse06_10hf_ddec_sum_bond_order
 _atom_site_hse06_10hf_magmom
 _atom_site_hse06_ddec_charge
 _atom_site_hse06_ddec_spin_density
 _atom_site_hse06_ddec_sum_bond_order
 _atom_site_hse06_magmom
 _atom_site_pbe_cm5_charge
 _atom_site_pbe_ddec_charge
 _atom_site_pbe_ddec_spin_density
 _atom_site_pbe_ddec_sum_bond_order
 _atom_site_pbe_magmom
Cu  Cu0  1  0.84919240  0.15729253  0.76344946  1  0.791346  0.682506  2.077968  0.472  0.799458  0.818767  2.475796  0.637  0.88987  0.896209  2.399126  0.723  0.774902  0.741045  0.752093  2.529056  0.569
Cu  Cu1  1  0.15080993  0.84271240  0.23653687  1  0.791307  -0.682503  2.077972  -0.472  0.799388  -0.818759  2.475847  -0.637  0.889851  -0.896205  2.399099  -0.723  0.774878  0.740984  -0.752082  2.529075  -0.569
H  H2  1  0.93210585  0.67140632  0.02377401  1  0.346956  1.2e-05  0.921487  0.0  0.318112  -6.1e-05  0.999328  0.0  0.326857  -2.1e-05  0.992465  0.0  0.30299  0.312016  -0.000106  1.004045  0.0
H  H3  1  0.06788987  0.32860454  0.97621780  1  0.346942  -1.2e-05  0.921439  0.0  0.318069  6.1e-05  0.999318  0.0  0.326814  2.1e-05  0.992455  0.0  0.302979  0.311975  0.000106  1.004035  0.0
H  H4  1  0.75850883  0.81509129  0.98121553  1  0.342757  0.00019  0.898686  0.0  0.32244  0.000179  0.968574  0.0  0.328638  0.000158  0.9649  0.0  0.29793  0.317787  0.00018  0.971541  0.0
H  H5  1  0.24148332  0.18491839  0.01878392  1  0.342798  -0.00019  0.898562  0.0  0.322471  -0.000179  0.968463  0.0  0.32867  -0.000158  0.964788  0.0  0.297967  0.317818  -0.00018  0.971432  0.0
H  H6  1  0.57993368  0.09857952  0.63245064  1  0.092854  0.001119  0.94117  0.002  0.104329  0.001017  0.996641  0.002  0.105877  0.000672  0.994957  0.001  0.119704  0.102776  0.00132  0.998203  0.002
H  H7  1  0.42006657  0.90141832  0.36754478  1  0.092843  -0.001119  0.941211  -0.002  0.104308  -0.001017  0.99669  -0.002  0.105857  -0.000672  0.995004  -0.001  0.119699  0.102756  -0.00132  0.998253  -0.002
H  H8  1  0.30859354  0.26457563  0.58358587  1  0.108137  -8.8e-05  0.964255  0.001  0.115705  0.000413  1.029411  0.001  0.118457  0.000333  1.029278  0.0  0.101798  0.11337  0.000401  1.029864  0.001
H  H9  1  0.69140761  0.73542345  0.41641645  1  0.108149  8.7e-05  0.964266  -0.001  0.115713  -0.000413  1.029428  -0.001  0.118467  -0.000333  1.029297  0.0  0.101795  0.113378  -0.000401  1.029881  -0.001
H  H10  1  0.20859101  0.54782174  0.64839609  1  0.092069  0.00066  0.972743  0.0  0.100251  0.000154  1.040431  0.0  0.103313  3e-05  1.038511  0.0  0.095555  0.097754  0.000326  1.041983  0.0
H  H11  1  0.79141326  0.45217500  0.35160769  1  0.092059  -0.000657  0.972763  0.0  0.100249  -0.000154  1.040436  0.0  0.103311  -3e-05  1.038516  0.0  0.095582  0.097749  -0.000326  1.041986  0.0
H  H12  1  0.38039163  0.65822859  0.76316830  1  0.117179  0.000526  0.95819  0.001  0.124829  0.000589  1.02269  0.001  0.127998  0.000392  1.021471  0.001  0.103588  0.122275  0.000736  1.023927  0.001
H  H13  1  0.61961131  0.34176819  0.23684222  1  0.117222  -0.000526  0.958315  -0.001  0.124831  -0.000589  1.022843  -0.001  0.127999  -0.000392  1.021624  -0.001  0.103591  0.122281  -0.000736  1.024072  -0.001
C  C14  1  0.53044389  0.22272503  0.65816894  1  0.14706  -0.004346  3.679927  -0.005  0.120609  -0.000731  3.928347  -0.002  0.130626  -0.001791  3.946057  -0.003  0.058023  0.113856  0.000169  3.917574  -0.001
C  C15  1  0.46955575  0.77727519  0.34182737  1  0.147091  0.004334  3.679828  0.005  0.12066  0.000731  3.928222  0.002  0.130679  0.001792  3.945932  0.003  0.058012  0.113906  -0.000169  3.917455  0.001
C  C16  1  0.38091820  0.31578883  0.63151934  1  -0.102952  0.00557  3.685982  0.006  -0.115077  0.003378  3.930792  0.004  -0.120745  0.002653  3.949004  0.003  -0.077178  -0.111751  0.003929  3.919679  0.005
C  C17  1  0.61908296  0.68421025  0.36848193  1  -0.102953  -0.005551  3.685891  -0.006  -0.115098  -0.003382  3.930714  -0.004  -0.120767  -0.002653  3.948929  -0.003  -0.07715  -0.111773  -0.00393  3.9196  -0.005
C  C18  1  0.32474705  0.47342747  0.66901877  1  0.011191  -0.004731  3.68835  -0.004  -0.004282  -0.002346  3.933759  -0.002  0.000192  -0.002477  3.948864  -0.002  -0.063765  -0.007521  -0.002143  3.924491  -0.002
C  C19  1  0.67525566  0.52657045  0.33098428  1  0.011121  0.004712  3.688381  0.004  -0.004357  0.002348  3.933811  0.002  0.000112  0.002476  3.948919  0.002  -0.063816  -0.007591  0.002143  3.924534  0.002
C  C20  1  0.41883975  0.53570980  0.73154287  1  -0.117401  0.003171  3.67  0.003  -0.138489  0.002247  3.913899  0.003  -0.142728  0.001663  3.931513  0.002  -0.07891  -0.135855  0.002715  3.902774  0.003
C  C21  1  0.58116159  0.46428338  0.26846448  1  -0.117382  -0.003163  3.670077  -0.003  -0.138447  -0.002248  3.913946  -0.003  -0.142693  -0.001663  3.931582  -0.002  -0.078889  -0.135815  -0.002716  3.902815  -0.003
C  C22  1  0.56605106  0.43493166  0.75515552  1  0.133381  -0.000892  3.817982  -0.001  0.13301  0.000897  4.069905  0.0  0.138332  9e-06  4.089654  -0.001  0.110577  0.129252  0.001526  4.057336  0.001
C  C23  1  0.43395439  0.56506035  0.24485068  1  0.13339  0.00089  3.817845  0.001  0.13308  -0.0009  4.069668  0.0  0.1384  -9e-06  4.089421  0.001  0.110547  0.129324  -0.001526  4.057093  -0.001
C  C24  1  0.67849942  0.47459824  0.82006105  1  0.310825  -0.006652  3.757013  -0.005  0.267777  -0.001766  4.051237  -0.001  0.288701  -0.003181  4.056119  -0.002  0.2115  0.253725  -0.000668  4.048523  0.001
C  C25  1  0.32150802  0.52539132  0.17993116  1  0.310784  0.006645  3.75686  0.005  0.267765  0.001765  4.051016  0.001  0.288699  0.003179  4.055892  0.002  0.211568  0.253714  0.000666  4.048289  -0.001
C  C26  1  0.80514957  0.58844939  0.91995413  1  0.635204  0.00301  3.775857  0.004  0.57903  0.002715  4.068269  0.004  0.607541  0.002083  4.070295  0.003  0.341203  0.559633  0.003117  4.066905  0.004
C  C27  1  0.19484348  0.41155673  0.08004449  1  0.634788  -0.003025  3.776382  -0.004  0.578724  -0.002714  4.068676  -0.004  0.607235  -0.002084  4.070711  -0.003  0.341119  0.559334  -0.003117  4.067297  -0.004
C  C28  1  0.10234745  0.14711211  0.37865727  1  0.308864  0.015238  3.975562  0.012  0.316409  -0.005327  4.297484  -0.009  0.345275  -0.004266  4.312725  -0.008  0.153744  0.295719  -0.005738  4.28477  -0.01
C  C29  1  0.89766822  0.85290013  0.62133532  1  0.30866  -0.015223  3.975511  -0.012  0.316207  0.005318  4.297436  0.009  0.345069  0.004259  4.312671  0.008  0.153693  0.295516  0.00573  4.284734  0.01
C  C30  1  0.81804009  0.99292495  0.15354735  1  0.305481  0.014317  3.998411  0.01  0.317148  -0.000517  4.29139  -0.005  0.344245  0.001133  4.303646  -0.003  0.149394  0.298548  -0.001516  4.282177  -0.006
C  C31  1  0.18194877  0.00706700  0.84647155  1  0.305342  -0.014298  3.997973  -0.01  0.316998  0.000519  4.291001  0.005  0.3441  -0.001134  4.303266  0.003  0.149222  0.298397  0.001518  4.281786  0.006
S  S32  1  0.03650040  0.30673513  0.46869575  1  -0.261177  -0.086871  2.111631  -0.08  -0.315731  -0.016578  2.456443  -0.016  -0.339776  -0.007607  2.450697  -0.007  -0.134366  -0.292957  -0.028848  2.457187  -0.027
S  S33  1  0.96351509  0.69324743  0.53130545  1  -0.261198  0.086901  2.111119  0.08  -0.315781  0.016574  2.455948  0.016  -0.33984  0.0076  2.450206  0.007  -0.13441  -0.292987  0.028845  2.456677  0.027
S  S34  1  0.65334866  0.07175472  0.09661043  1  -0.324973  -0.039654  2.059458  -0.037  -0.35798  -0.002514  2.373968  -0.003  -0.374617  -0.000163  2.363134  0.0  -0.152921  -0.344118  -0.006824  2.380373  -0.007
S  S35  1  0.34662719  0.92823832  0.90341248  1  -0.324769  0.03965  2.059622  0.037  -0.357752  0.002514  2.374168  0.003  -0.374395  0.000158  2.363337  0.0  -0.152785  -0.343884  0.006823  2.380552  0.007
N  N36  1  0.62063111  0.28080765  0.71902382  1  -0.329269  0.065054  3.302391  0.079  -0.281902  0.063201  3.583342  0.084  -0.314847  0.051052  3.610454  0.072  -0.32364  -0.262819  0.068477  3.567874  0.088
N  N37  1  0.37937949  0.71918436  0.28097335  1  -0.32927  -0.065053  3.302418  -0.079  -0.281901  -0.063207  3.583299  -0.084  -0.314854  -0.051058  3.610419  -0.072  -0.323624  -0.262824  -0.068487  3.567832  -0.088
N  N38  1  0.81157551  0.36968725  0.84004289  1  -0.257294  0.053265  3.371147  0.063  -0.232121  0.053114  3.695  0.07  -0.25809  0.044879  3.715031  0.062  -0.255274  -0.217751  0.056265  3.684497  0.071
N  N39  1  0.18842990  0.63032018  0.15995686  1  -0.257307  -0.053266  3.371124  -0.063  -0.232128  -0.053109  3.695013  -0.07  -0.258111  -0.044875  3.715045  -0.062  -0.255328  -0.21776  -0.05626  3.684502  -0.071
N  N40  1  0.89535745  0.43834964  0.90338218  1  -0.353375  0.003506  2.923815  0.003  -0.312356  0.00383  3.192384  0.003  -0.329289  0.002673  3.208711  0.002  -0.227378  -0.300764  0.004763  3.182087  0.004
N  N41  1  0.10463600  0.56166483  0.09662036  1  -0.353146  -0.003497  2.923738  -0.003  -0.31226  -0.003826  3.192379  -0.003  -0.329194  -0.00267  3.208714  -0.002  -0.22731  -0.30067  -0.004761  3.182077  -0.004
N  N42  1  0.83383273  0.70239078  0.97662821  1  -0.676041  0.000511  3.140185  0.001  -0.635277  0.000411  3.376903  0.0  -0.659669  0.000456  3.375771  0.001  -0.553931  -0.618448  0.000341  3.377757  0.0
N  N43  1  0.16616294  0.29762010  0.02336888  1  -0.675922  -0.00051  3.140324  -0.001  -0.635159  -0.000411  3.377041  0.0  -0.659548  -0.000456  3.375913  -0.001  -0.553929  -0.61833  -0.000341  3.377891  0.0
N  N44  1  0.16020350  0.03096493  0.30989585  1  -0.517737  -0.084853  3.067778  -0.097  -0.522438  -0.045161  3.396281  -0.056  -0.56018  -0.036114  3.401544  -0.046  -0.431478  -0.496227  -0.051524  3.392753  -0.062
N  N45  1  0.83981635  0.96903650  0.69007484  1  -0.517531  0.084793  3.068163  0.097  -0.522216  0.045165  3.396633  0.056  -0.559927  0.036123  3.401874  0.046  -0.431402  -0.49602  0.051522  3.393139  0.062
N  N46  1  0.93410757  0.92953323  0.19860640  1  -0.517926  -0.076481  3.052335  -0.088  -0.500027  -0.050032  3.347885  -0.062  -0.534001  -0.043342  3.351404  -0.056  -0.425256  -0.478363  -0.053509  3.34655  -0.065
N  N47  1  0.06586951  0.07047043  0.80140296  1  -0.517944  0.076487  3.051803  0.088  -0.500071  0.050035  3.347423  0.062  -0.534044  0.043351  3.350956  0.056  -0.425198  -0.478401  0.053515  3.346091  0.065
O  O48  1  0.66411041  0.61682181  0.87077720  1  -0.285191  0.000674  2.27422  0.001  -0.203417  0.001008  2.487918  0.001  -0.221992  0.000544  2.486641  0.001  -0.096793  -0.191176  0.001335  2.488659  0.001
O  O49  1  0.33588263  0.38317951  0.12921580  1  -0.285045  -0.000662  2.274497  -0.001  -0.203304  -0.001008  2.488167  -0.001  -0.221881  -0.000544  2.486887  -0.001  -0.096828  -0.191083  -0.001335  2.488931  -0.001
