# generated using pymatgen
data_CuH15C13(N2O)3
_symmetry_space_group_name_H-M   'P 1'
_cell_length_a   7.72158091
_cell_length_b   10.29234292
_cell_length_c   18.69149398
_cell_angle_alpha   90.00198872
_cell_angle_beta   90.00129627
_cell_angle_gamma   90.00472617
_symmetry_Int_Tables_number   1
_chemical_formula_structural   CuH15C13(N2O)3
_chemical_formula_sum   'Cu4 H60 C52 N24 O12'
_cell_volume   1485.47206014
_cell_formula_units_Z   4
loop_
 _symmetry_equiv_pos_site_id
 _symmetry_equiv_pos_as_xyz
  1  'x, y, z'
loop_
 _atom_site_type_symbol
 _atom_site_label
 _atom_site_symmetry_multiplicity
 _atom_site_fract_x
 _atom_site_fract_y
 _atom_site_fract_z
 _atom_site_occupancy
 _atom_site_pbe_bader_charge
 _atom_site_pbe_bader_spin_density
 _atom_site_pbe_cm5_charge
 _atom_site_pbe_ddec_charge
 _atom_site_pbe_ddec_spin_density
 _atom_site_pbe_ddec_sum_bond_order
 _atom_site_pbe_magmom
Cu  Cu0  1  0.06479236  0.28160709  0.23535604  1  1.02394  -0.550789  0.764505  0.603517  -0.738184  2.434163  -0.55
Cu  Cu1  1  0.93522317  0.28159041  0.76464418  1  1.024067  0.55083  0.764782  0.603797  0.738223  2.434799  0.55
Cu  Cu2  1  0.56478476  0.71842489  0.26464861  1  1.024155  0.550811  0.764668  0.603652  0.738201  2.434334  0.55
Cu  Cu3  1  0.43523610  0.71839391  0.73535195  1  1.024097  -0.550801  0.764705  0.603684  -0.738179  2.434605  -0.55
H  H4  1  0.43329795  0.21308134  0.21118836  1  0.139301  -0.002094  0.120778  0.092127  -0.000978  1.001562  -0.001
H  H5  1  0.56673723  0.21307934  0.78878540  1  0.139141  0.002091  0.12095  0.092482  0.000976  1.001714  0.001
H  H6  1  0.93328497  0.78692679  0.28880315  1  0.139391  0.002093  0.120785  0.092145  0.000978  1.001582  0.001
H  H7  1  0.06673695  0.78690552  0.71121906  1  0.139205  -0.002093  0.1209  0.092388  -0.000978  1.001629  -0.001
H  H8  1  0.02682061  0.32960283  0.08276767  1  0.148893  -0.001852  0.118596  0.08733  -0.000803  1.053236  -0.002
H  H9  1  0.97319372  0.32958837  0.91720245  1  0.148997  0.001852  0.118548  0.087266  0.000803  1.053419  0.002
H  H10  1  0.52680185  0.67040544  0.41722379  1  0.148753  0.001852  0.118521  0.087234  0.000803  1.05344  0.002
H  H11  1  0.47319301  0.67040510  0.58279832  1  0.148886  -0.001853  0.118551  0.087319  -0.000803  1.053271  -0.002
H  H12  1  0.70048566  0.29781120  0.28447884  1  0.083128  -0.00196  0.113913  0.104003  -0.000889  0.982983  -0.001
H  H13  1  0.29950705  0.29784344  0.71552812  1  0.08274  0.001958  0.11381  0.103778  0.000888  0.983109  0.001
H  H14  1  0.20048148  0.70218352  0.21552120  1  0.083046  0.001961  0.113833  0.10381  0.00089  0.983092  0.001
H  H15  1  0.79949357  0.70217426  0.78446782  1  0.082461  -0.001962  0.113803  0.103764  -0.00089  0.983054  -0.001
H  H16  1  0.76926478  0.38615419  0.36018503  1  0.066617  6.5e-05  0.115392  0.113849  0.000124  0.987603  0.0
H  H17  1  0.23075189  0.38616285  0.63982201  1  0.06676  -6.5e-05  0.115371  0.113743  -0.000124  0.987665  0.0
H  H18  1  0.26923378  0.61384477  0.13981619  1  0.066615  -6.5e-05  0.115404  0.113856  -0.000124  0.987589  0.0
H  H19  1  0.73072896  0.61384186  0.86017863  1  0.066786  6.5e-05  0.115383  0.113744  0.000123  0.987645  0.0
H  H20  1  0.00075003  0.02819440  0.32826991  1  0.11583  8.8e-05  0.117477  0.101009  0.00011  1.00359  0.0
H  H21  1  0.99925056  0.02819332  0.67174044  1  0.115974  -8.8e-05  0.117417  0.100858  -0.00011  1.003885  0.0
H  H22  1  0.50075228  0.97182002  0.17173789  1  0.115887  -8.8e-05  0.117416  0.100846  -0.00011  1.003663  0.0
H  H23  1  0.49926409  0.97179204  0.82826218  1  0.116272  8.8e-05  0.117429  0.101005  0.00011  1.003804  0.0
H  H24  1  0.16283539  0.17973407  0.37957835  1  0.079716  -0.000872  0.107196  0.08939  -0.000397  1.008279  -0.001
H  H25  1  0.83717281  0.17972459  0.62042902  1  0.07956  0.000869  0.107148  0.089339  0.000396  1.008278  0.001
H  H26  1  0.66281686  0.82027775  0.12041599  1  0.079702  0.000871  0.107183  0.089376  0.000397  1.008203  0.001
H  H27  1  0.33718154  0.82025463  0.87957101  1  0.079829  -0.000871  0.107193  0.089387  -0.000397  1.008362  -0.001
H  H28  1  0.98178414  0.19520670  0.43851876  1  0.066417  -0.006686  0.101168  0.081778  -0.003489  1.013878  -0.004
H  H29  1  0.01818691  0.19520118  0.56148035  1  0.065821  0.006675  0.101178  0.081798  0.003483  1.013926  0.004
H  H30  1  0.48179058  0.80480152  0.06147161  1  0.065639  0.006685  0.101209  0.081778  0.003488  1.013846  0.004
H  H31  1  0.51821259  0.80479621  0.93851938  1  0.066666  -0.006685  0.101134  0.081729  -0.003489  1.013964  -0.004
H  H32  1  0.64012560  0.20852676  0.10878548  1  0.134752  -0.001005  0.110522  0.128547  -0.000579  1.013131  -0.001
H  H33  1  0.35986764  0.20853492  0.89117535  1  0.135129  0.001004  0.110582  0.128688  0.000579  1.012966  0.001
H  H34  1  0.14014346  0.79147783  0.39120490  1  0.135094  0.001004  0.110614  0.128661  0.000579  1.013015  0.001
H  H35  1  0.85988027  0.79146028  0.60881740  1  0.135195  -0.001005  0.110568  0.128692  -0.000579  1.013033  -0.001
H  H36  1  0.21575856  0.33281572  0.97297190  1  0.129237  -0.000779  0.106081  0.111932  -0.000412  1.063622  0.0
H  H37  1  0.78428462  0.33282881  0.02700951  1  0.129216  0.000778  0.106162  0.112086  0.000411  1.063483  0.0
H  H38  1  0.71573490  0.66717057  0.52702432  1  0.129581  0.000778  0.106063  0.111936  0.000412  1.063655  0.0
H  H39  1  0.28428032  0.66718468  0.47298650  1  0.12923  -0.000778  0.106154  0.112054  -0.000411  1.063554  0.0
H  H40  1  0.51561510  0.20090411  0.37046322  1  0.066398  -0.001685  0.099658  0.047307  -0.000889  0.967102  -0.001
H  H41  1  0.48439543  0.20094335  0.62954884  1  0.066171  0.001685  0.099645  0.047233  0.000889  0.967205  0.001
H  H42  1  0.01559485  0.79906849  0.12953349  1  0.066212  0.001687  0.099628  0.047325  0.00089  0.967069  0.001
H  H43  1  0.98439863  0.79909064  0.87045364  1  0.066194  -0.001686  0.09961  0.047225  -0.00089  0.967168  -0.001
H  H44  1  0.63500406  0.99797500  0.33656187  1  0.088809  -0.001169  0.097481  0.11912  -0.000669  1.040546  -0.001
H  H45  1  0.36498023  0.99799248  0.66345262  1  0.089458  0.00117  0.097457  0.119084  0.00067  1.040532  0.001
H  H46  1  0.13501062  0.00201955  0.16343916  1  0.088855  0.001171  0.097423  0.119028  0.00067  1.040621  0.001
H  H47  1  0.86500134  0.00202538  0.83655463  1  0.089318  -0.001171  0.097435  0.119034  -0.00067  1.040555  -0.001
H  H48  1  0.76881026  0.00779883  0.41276896  1  0.032017  7e-06  0.091173  0.095389  3.8e-05  1.006072  0.0
H  H49  1  0.23116737  0.00779449  0.58723030  1  0.032627  -7e-06  0.091189  0.09536  -3.8e-05  1.005864  0.0
H  H50  1  0.26883485  0.99219622  0.08722476  1  0.032489  -7e-06  0.091158  0.095328  -3.8e-05  1.00588  0.0
H  H51  1  0.73118765  0.99220538  0.91277677  1  0.031941  7e-06  0.091137  0.095289  3.8e-05  1.00589  0.0
H  H52  1  0.98471608  0.43924871  0.41725582  1  0.051624  0.000171  0.10363  0.113833  9.5e-05  0.989614  0.0
H  H53  1  0.01527795  0.43924435  0.58276454  1  0.051882  -0.000171  0.103641  0.11389  -9.5e-05  0.989737  0.0
H  H54  1  0.48469035  0.56075774  0.08274153  1  0.051444  -0.000171  0.103592  0.113818  -9.5e-05  0.989668  0.0
H  H55  1  0.51528985  0.56074995  0.91724104  1  0.051858  0.000171  0.103598  0.113783  9.5e-05  0.989638  0.0
H  H56  1  0.16687608  0.37529964  0.46189415  1  0.110132  0.000171  0.109119  0.132742  8.3e-05  0.98558  0.0
H  H57  1  0.83313422  0.37528571  0.53812552  1  0.110304  -0.000171  0.109218  0.13283  -8.3e-05  0.98574  0.0
H  H58  1  0.66684317  0.62472506  0.03810557  1  0.110053  -0.000171  0.109189  0.132801  -8.3e-05  0.985652  0.0
H  H59  1  0.33311946  0.62469715  0.96188143  1  0.110145  0.000171  0.109162  0.132639  8.3e-05  0.98561  0.0
H  H60  1  0.64213662  0.15719569  0.48722506  1  0.579035  -6.5e-05  0.315734  0.336544  -3.5e-05  0.921392  0.0
H  H61  1  0.35786911  0.15719840  0.51278455  1  0.579205  6.5e-05  0.315791  0.336565  3.5e-05  0.921386  0.0
H  H62  1  0.14212514  0.84278375  0.01277176  1  0.568302  6.6e-05  0.315788  0.336473  3.5e-05  0.921544  0.0
H  H63  1  0.85786020  0.84281514  0.98721835  1  0.578907  -6.5e-05  0.315758  0.336557  -3.5e-05  0.921433  0.0
C  C64  1  0.39177917  0.23834375  0.15731471  1  0.457288  0.001434  0.05255  0.101216  0.000237  3.948667  0.001
C  C65  1  0.60823548  0.23833021  0.84266168  1  0.455238  -0.001427  0.052401  0.101043  -0.000237  3.94871  -0.001
C  C66  1  0.89178449  0.76166765  0.34268124  1  0.457469  -0.001435  0.052683  0.101438  -0.000237  3.948342  -0.001
C  C67  1  0.10823595  0.76165818  0.65733942  1  0.455563  0.001429  0.052473  0.101161  0.000237  3.948367  0.001
C  C68  1  0.16257627  0.30094986  0.08484544  1  0.474689  0.001626  0.048519  0.099253  0.00046  3.913113  0.001
C  C69  1  0.83743103  0.30094048  0.91513589  1  0.475189  -0.001627  0.048524  0.099275  -0.000463  3.913489  -0.001
C  C70  1  0.66257090  0.69906097  0.41515264  1  0.475067  -0.001626  0.048643  0.09948  -0.000461  3.913107  -0.001
C  C71  1  0.33743229  0.69905236  0.58485933  1  0.475269  0.001629  0.048665  0.099418  0.000463  3.913421  0.001
C  C72  1  0.75970116  0.28848737  0.33760319  1  0.24129  1.6e-05  -0.073494  -0.137701  -0.000734  3.809702  0.001
C  C73  1  0.24027886  0.28849610  0.66240305  1  0.240759  -1.5e-05  -0.073421  -0.137194  0.000733  3.809616  -0.001
C  C74  1  0.25971322  0.71151197  0.16239847  1  0.24131  -1.5e-05  -0.073475  -0.137548  0.000735  3.810103  -0.001
C  C75  1  0.74026932  0.71150628  0.83759554  1  0.241691  1.8e-05  -0.073424  -0.137217  -0.000733  3.8096  0.001
C  C76  1  0.88672307  0.08759077  0.31540567  1  0.23341  -0.000163  -0.008341  -0.054293  -0.000471  3.799836  0.001
C  C77  1  0.11327758  0.08757361  0.68461652  1  0.233436  0.000168  -0.00841  -0.054118  0.000472  3.799988  -0.001
C  C78  1  0.38673126  0.91242032  0.18461002  1  0.233202  0.000168  -0.008349  -0.054092  0.000472  3.799584  -0.001
C  C79  1  0.61327857  0.91240635  0.81538410  1  0.232654  -0.000167  -0.008404  -0.054415  -0.000473  3.800139  0.001
C  C80  1  0.04740403  0.23803831  0.39194709  1  0.230149  -0.001147  -0.073191  -0.063274  -0.001495  3.863912  0.001
C  C81  1  0.95258728  0.23803908  0.60805283  1  0.230136  0.001145  -0.073173  -0.063013  0.001494  3.864085  -0.001
C  C82  1  0.54738099  0.76197608  0.10804723  1  0.230289  0.001147  -0.073162  -0.062974  0.001496  3.863423  -0.001
C  C83  1  0.45260840  0.76196088  0.89194079  1  0.229949  -0.001146  -0.073135  -0.06316  -0.001495  3.863963  0.001
C  C84  1  0.21682997  0.43519480  0.35583923  1  1.00134  -0.001806  0.214538  0.305052  -0.002023  4.014574  -0.003
C  C85  1  0.78316749  0.43517377  0.64417142  1  1.001482  0.001805  0.214581  0.30508  0.002023  4.013943  0.003
C  C86  1  0.71681700  0.56482909  0.14416150  1  1.001441  0.001806  0.214535  0.304867  0.002024  4.014625  0.003
C  C87  1  0.28316105  0.56480503  0.85582596  1  1.001425  -0.001807  0.214493  0.304919  -0.002024  4.014555  -0.003
C  C88  1  0.85124886  0.06387146  0.23530520  1  1.569801  0.001142  0.198651  0.563038  -0.000438  4.166273  0.001
C  C89  1  0.14876084  0.06388582  0.76469834  1  1.570251  -0.001149  0.198825  0.563489  0.000433  4.16619  -0.001
C  C90  1  0.35124462  0.93611022  0.26469678  1  1.569957  -0.001145  0.198717  0.56332  0.000438  4.16627  -0.001
C  C91  1  0.64876265  0.93609633  0.73529833  1  1.570378  0.001145  0.198804  0.56351  -0.000439  4.166339  0.001
C  C92  1  0.50523089  0.23557639  0.09974303  1  -0.086111  -0.00541  -0.078722  -0.167673  -0.003775  3.90802  -0.004
C  C93  1  0.49476403  0.23557112  0.90022902  1  -0.086074  0.005405  -0.078848  -0.168065  0.003773  3.908255  0.004
C  C94  1  0.00525274  0.76442373  0.40025465  1  -0.086592  0.005412  -0.078818  -0.167878  0.003775  3.908067  0.004
C  C95  1  0.99476801  0.76441882  0.59976767  1  -0.085761  -0.005409  -0.078725  -0.167972  -0.003775  3.908056  -0.004
C  C96  1  0.26743528  0.30124949  0.02449602  1  -0.081969  -0.005663  -0.084187  -0.173475  -0.003869  3.920742  -0.004
C  C97  1  0.73258241  0.30126268  0.97548906  1  -0.082185  0.005662  -0.084185  -0.173564  0.003869  3.920526  0.004
C  C98  1  0.76743448  0.69873868  0.47550250  1  -0.082525  0.005664  -0.084128  -0.173531  0.003869  3.920659  0.004
C  C99  1  0.23258033  0.69874214  0.52450679  1  -0.082088  -0.005664  -0.084252  -0.173681  -0.00387  3.920694  -0.004
C  C100  1  0.65466303  0.19407169  0.38333811  1  0.424265  -0.005075  -0.002615  0.224504  -0.003553  3.818175  -0.004
C  C101  1  0.34534028  0.19410833  0.61666312  1  0.425126  0.005071  -0.002749  0.224335  0.003551  3.817907  0.004
C  C102  1  0.15465837  0.80590465  0.11666043  1  0.424261  0.005078  -0.002598  0.224419  0.003555  3.818056  0.004
C  C103  1  0.84534363  0.80591124  0.88334020  1  0.424882  -0.005078  -0.002642  0.224471  -0.003555  3.817709  -0.004
C  C104  1  0.72953614  0.05958701  0.36395723  1  -0.040555  -0.00259  -0.173241  -0.274136  -0.00203  3.858631  -0.002
C  C105  1  0.27042647  0.05958428  0.63606121  1  -0.041894  0.002583  -0.173193  -0.274034  0.002026  3.857909  0.002
C  C106  1  0.22955770  0.94041533  0.13605057  1  -0.040817  0.002588  -0.173155  -0.274052  0.002029  3.858166  0.002
C  C107  1  0.77044486  0.94041996  0.86394569  1  -0.040902  -0.002587  -0.173161  -0.273985  -0.002029  3.85797  -0.002
C  C108  1  0.09944556  0.37700982  0.41011148  1  -0.011932  -0.000491  -0.150014  -0.253542  -0.000197  3.945507  -0.001
C  C109  1  0.90056752  0.37699749  0.58989379  1  -0.012162  0.000488  -0.150072  -0.253694  0.000195  3.945657  0.001
C  C110  1  0.59941789  0.62299905  0.08988601  1  -0.012055  0.000491  -0.150056  -0.253692  0.000197  3.945252  0.001
C  C111  1  0.40056010  0.62298274  0.91010149  1  -0.012066  -0.000491  -0.149982  -0.253249  -0.000197  3.945101  -0.001
C  C112  1  0.44267105  0.26747953  0.03142106  1  0.019628  0.00357  0.009788  0.101455  0.002405  3.984833  0.003
C  C113  1  0.55735070  0.26748145  0.96854091  1  0.060995  -0.003569  0.00993  0.10197  -0.002405  3.985021  -0.003
C  C114  1  0.94267488  0.73251461  0.46857108  1  0.019358  -0.003569  0.009764  0.101552  -0.002405  3.985145  -0.003
C  C115  1  0.05734624  0.73251545  0.53145116  1  0.060591  0.003571  0.009833  0.101892  0.002406  3.984949  0.003
N  N116  1  0.22378919  0.26981318  0.14995740  1  -1.212496  -0.080373  -0.343136  -0.208448  -0.055534  3.621924  -0.07
N  N117  1  0.77625353  0.26979397  0.85001852  1  -1.211957  0.080352  -0.34323  -0.208647  0.055524  3.62235  0.07
N  N118  1  0.72377980  0.73020338  0.35003858  1  -1.212545  0.080357  -0.343334  -0.208797  0.055521  3.622058  0.07
N  N119  1  0.27623200  0.73018343  0.64997345  1  -1.212224  -0.080373  -0.343279  -0.208744  -0.055536  3.622376  -0.07
N  N120  1  0.90699338  0.44971610  0.19703613  1  -0.190401  0.007362  -0.122871  -0.082007  0.004599  3.50666  0.005
N  N121  1  0.09295388  0.44970125  0.80295072  1  -0.190148  -0.007375  -0.122911  -0.082211  -0.004608  3.506919  -0.005
N  N122  1  0.40702130  0.55031664  0.30297814  1  -0.190394  -0.007361  -0.122755  -0.081651  -0.004599  3.506517  -0.005
N  N123  1  0.59298624  0.55027940  0.69705559  1  -0.189634  0.007374  -0.122945  -0.082362  0.004607  3.506191  0.005
N  N124  1  0.93307521  0.22687963  0.32777755  1  -0.948447  -0.109132  -0.340496  -0.100383  -0.074847  3.439112  -0.095
N  N125  1  0.06690321  0.22688215  0.67224035  1  -0.948287  0.109044  -0.340461  -0.100988  0.074785  3.438916  0.095
N  N126  1  0.43307387  0.77312752  0.17222520  1  -0.948805  0.109129  -0.340497  -0.100586  0.074844  3.439245  0.095
N  N127  1  0.56692193  0.77311340  0.82776786  1  -0.948695  -0.109095  -0.340589  -0.100797  -0.074821  3.439877  -0.095
N  N128  1  0.23123857  0.39158691  0.28807758  1  -0.753753  -0.076638  -0.271702  -0.275219  -0.053776  3.607937  -0.066
N  N129  1  0.76873985  0.39155856  0.71193973  1  -0.755018  0.076698  -0.271649  -0.275271  0.053812  3.607896  0.066
N  N130  1  0.73122245  0.60843690  0.21192435  1  -0.753647  0.076676  -0.271736  -0.275173  0.053799  3.608002  0.066
N  N131  1  0.26874486  0.60841837  0.78806341  1  -0.75531  -0.076693  -0.271532  -0.275065  -0.053811  3.608  -0.066
N  N132  1  0.35195148  0.46544842  0.25575880  1  -0.12354  -0.001636  -0.106724  -0.08793  -0.001113  3.274811  -0.001
N  N133  1  0.64804672  0.46539132  0.74426849  1  -0.122797  0.001638  -0.106386  -0.087318  0.001113  3.275109  0.001
N  N134  1  0.85192254  0.53458869  0.24425335  1  -0.124045  0.001636  -0.106424  -0.087588  0.001111  3.275214  0.001
N  N135  1  0.14803406  0.53457427  0.75573567  1  -0.121965  -0.001637  -0.106568  -0.087605  -0.001115  3.275681  -0.001
N  N136  1  0.32540029  0.53463844  0.36645515  1  -0.724981  -0.005667  -0.227603  -0.287191  -0.003744  3.194715  -0.004
N  N137  1  0.67461977  0.53461780  0.63356437  1  -0.725457  0.005665  -0.227905  -0.287227  0.003742  3.194258  0.004
N  N138  1  0.82538098  0.46538926  0.13355034  1  -0.724512  0.005674  -0.227755  -0.287149  0.003748  3.194477  0.004
N  N139  1  0.17458743  0.46536887  0.86644270  1  -0.725366  -0.005669  -0.227754  -0.287095  -0.003745  3.194042  -0.004
O  O140  1  0.90750779  0.15152727  0.19135048  1  -1.125873  -0.103189  -0.337288  -0.530593  -0.068581  2.33531  -0.094
O  O141  1  0.09251155  0.15153315  0.80865046  1  -1.126222  0.103231  -0.337345  -0.530783  0.06861  2.335348  0.094
O  O142  1  0.40750797  0.84849092  0.30863865  1  -1.126292  0.103117  -0.337207  -0.530556  0.068531  2.335985  0.094
O  O143  1  0.59249741  0.84846204  0.69135585  1  -1.126505  -0.103138  -0.337345  -0.530703  -0.06855  2.336079  -0.094
O  O144  1  0.77699431  0.96190122  0.21625934  1  -1.17704  -0.026333  -0.319299  -0.549915  -0.01743  2.169802  -0.022
O  O145  1  0.22301191  0.96193692  0.78374750  1  -1.177163  0.026315  -0.319366  -0.550038  0.017418  2.16966  0.022
O  O146  1  0.27696352  0.03807685  0.28374356  1  -1.176791  0.026351  -0.319477  -0.550174  0.017439  2.169098  0.022
O  O147  1  0.72302910  0.03806440  0.71625949  1  -1.176927  -0.026331  -0.319373  -0.550084  -0.017428  2.169458  -0.022
O  O148  1  0.68196837  0.22875210  0.45747550  1  -1.110653  -0.001141  -0.403752  -0.507609  -0.000677  2.225116  -0.001
O  O149  1  0.31802709  0.22874644  0.54253441  1  -1.110757  0.00114  -0.403728  -0.507538  0.000677  2.225469  0.001
O  O150  1  0.18197526  0.77123467  0.04252062  1  -1.099704  0.00114  -0.403797  -0.507495  0.000678  2.225209  0.001
O  O151  1  0.81802422  0.77125881  0.95746758  1  -1.110299  -0.001142  -0.403677  -0.507562  -0.000678  2.225438  -0.001
