# generated using pymatgen
data_ZnPH11C11(NO)4
_symmetry_space_group_name_H-M   'P 1'
_cell_length_a   14.05904699
_cell_length_b   15.62597386
_cell_length_c   18.46544144
_cell_angle_alpha   90.00000232
_cell_angle_beta   90.00000383
_cell_angle_gamma   90.00000851
_symmetry_Int_Tables_number   1
_chemical_formula_structural   ZnPH11C11(NO)4
_chemical_formula_sum   'Zn8 P8 H88 C88 N32 O32'
_cell_volume   4056.60452076
_cell_formula_units_Z   8
loop_
 _symmetry_equiv_pos_site_id
 _symmetry_equiv_pos_as_xyz
  1  'x, y, z'
loop_
 _atom_site_type_symbol
 _atom_site_label
 _atom_site_symmetry_multiplicity
 _atom_site_fract_x
 _atom_site_fract_y
 _atom_site_fract_z
 _atom_site_occupancy
 _atom_site_pbe_bader_charge
 _atom_site_pbe_bader_spin_density
 _atom_site_pbe_cm5_charge
 _atom_site_pbe_ddec_charge
 _atom_site_pbe_ddec_spin_density
 _atom_site_pbe_ddec_sum_bond_order
 _atom_site_pbe_magmom
Zn  Zn0  1  0.16557810  0.04181245  0.35845610  1  1.24707  0  0.711379  0.788312  0  2.420017  0
Zn  Zn1  1  0.66557790  0.45818782  0.64154385  1  1.247078  0  0.711398  0.788322  0  2.419998  0
Zn  Zn2  1  0.83442219  0.54181205  0.14154390  1  1.247076  0  0.711398  0.788342  0  2.419992  0
Zn  Zn3  1  0.33442179  0.95818736  0.85845662  1  1.247074  0  0.711408  0.788339  0  2.419983  0
Zn  Zn4  1  0.83442224  0.95818739  0.64154387  1  1.247072  0  0.711404  0.788354  0  2.419973  0
Zn  Zn5  1  0.33442244  0.54181266  0.35845611  1  1.247073  0  0.711406  0.788353  0  2.419974  0
Zn  Zn6  1  0.16557815  0.45818779  0.85845607  1  1.247073  0  0.711374  0.788289  0  2.420004  0
Zn  Zn7  1  0.66557784  0.04181248  0.14154389  1  1.247071  0  0.711381  0.788312  0  2.420024  0
P  P8  1  0.34495947  0.99766201  0.46187471  1  3.552911  0  0.475913  1.347522  0  5.393448  0
P  P9  1  0.84495919  0.50233804  0.53812526  1  3.55291  0  0.475911  1.34753  0  5.393457  0
P  P10  1  0.65504089  0.49766183  0.03812530  1  3.552911  0  0.475902  1.347522  0  5.393465  0
P  P11  1  0.15504042  0.00233845  0.96187465  1  3.552909  0  0.475902  1.347493  0  5.393547  0
P  P12  1  0.65504087  0.00233783  0.53812525  1  3.55291  0  0.475909  1.347524  0  5.393454  0
P  P13  1  0.15504044  0.49766180  0.46187470  1  3.552908  0  0.475895  1.347491  0  5.393591  0
P  P14  1  0.34495945  0.50233802  0.96187467  1  3.552908  0  0.475912  1.347521  0  5.393481  0
P  P15  1  0.84495921  0.99766204  0.03812531  1  3.55291  0  0.475911  1.347537  0  5.393432  0
H  H16  1  0.48346317  0.91874726  0.48272881  1  0.528208  0  0.302176  0.315735  0  1.001402  0
H  H17  1  0.98346360  0.58125281  0.51727118  1  0.528209  0  0.302174  0.315737  0  1.001397  0
H  H18  1  0.51653647  0.41874642  0.01727120  1  0.528211  0  0.302173  0.315742  0  1.001392  0
H  H19  1  0.01653673  0.08125320  0.98272874  1  0.528208  0  0.302176  0.315733  0  1.001402  0
H  H20  1  0.51653646  0.08125322  0.51727116  1  0.528208  0  0.302174  0.315742  0  1.001395  0
H  H21  1  0.01653674  0.41874639  0.48272879  1  0.52821  0  0.302164  0.315729  0  1.001419  0
H  H22  1  0.48346316  0.58125279  0.98272876  1  0.528209  0  0.302176  0.315733  0  1.001406  0
H  H23  1  0.98346361  0.91874664  0.01727122  1  0.528209  0  0.302173  0.315737  0  1.001397  0
H  H24  1  0.19463847  0.96857582  0.51005336  1  0.532864  0  0.299218  0.298494  0  1.022298  0
H  H25  1  0.69463890  0.53142422  0.48994661  1  0.532863  0  0.29922  0.298487  0  1.022319  0
H  H26  1  0.80536121  0.46857567  0.98994712  1  0.53286  0  0.29922  0.298497  0  1.022297  0
H  H27  1  0.30536138  0.03142462  0.01005338  1  0.532864  0  0.299226  0.298516  0  1.022271  0
H  H28  1  0.80536116  0.03142467  0.48994661  1  0.532876  0  0.299222  0.298501  0  1.022291  0
H  H29  1  0.30536073  0.46857563  0.51005335  1  0.532868  0  0.29923  0.298515  0  1.022274  0
H  H30  1  0.19463913  0.53142481  0.01005339  1  0.53288  0  0.299223  0.298506  0  1.022289  0
H  H31  1  0.69463896  0.96857522  0.98994712  1  0.532876  0  0.299219  0.298495  0  1.022306  0
H  H32  1  0.53439121  0.78015430  0.46547712  1  0.121209  0  0.116706  0.146798  0  0.981182  0
H  H33  1  0.03439075  0.71984571  0.53452284  1  0.121209  0  0.116705  0.1468  0  0.981188  0
H  H34  1  0.46560911  0.28015409  0.03452288  1  0.12121  0  0.116705  0.146801  0  0.981187  0
H  H35  1  0.96560890  0.21984559  0.96547708  1  0.12121  0  0.116705  0.146808  0  0.98118  0
H  H36  1  0.46560913  0.21984554  0.53452284  1  0.121207  0  0.116703  0.146797  0  0.981191  0
H  H37  1  0.96560888  0.28015413  0.46547658  1  0.121212  0  0.116709  0.146802  0  0.981181  0
H  H38  1  0.53439123  0.71984575  0.96547708  1  0.12121  0  0.116707  0.146795  0  0.98118  0
H  H39  1  0.03439073  0.78015426  0.03452288  1  0.121209  0  0.116704  0.1468  0  0.981189  0
H  H40  1  0.49648465  0.63197729  0.42724516  1  0.124109  0  0.112011  0.084822  0  1.04597  0
H  H41  1  0.99648443  0.86802278  0.57275483  1  0.124111  0  0.112002  0.084809  0  1.046004  0
H  H42  1  0.50351565  0.13197709  0.07275484  1  0.124109  0  0.111999  0.084805  0  1.046009  0
H  H43  1  0.00351525  0.36802316  0.92724510  1  0.124105  0  0.112009  0.084814  0  1.045979  0
H  H44  1  0.50351498  0.36802255  0.57275481  1  0.124111  0  0.112015  0.084828  0  1.045961  0
H  H45  1  0.00351520  0.13197706  0.42724514  1  0.124109  0  0.112012  0.084823  0  1.045963  0
H  H46  1  0.49648469  0.86802275  0.92724512  1  0.124113  0  0.111995  0.0848  0  1.045925  0
H  H47  1  0.99648438  0.63197732  0.07275486  1  0.124112  0  0.112003  0.084812  0  1.046003  0
H  H48  1  0.21542150  0.69643406  0.38336751  1  0.110005  0  0.120823  0.092325  0  0.978547  0
H  H49  1  0.71542127  0.80356598  0.61663246  1  0.110007  0  0.120821  0.09234  0  0.97854  0
H  H50  1  0.78457881  0.19643389  0.11663249  1  0.11001  0  0.120819  0.092342  0  0.978531  0
H  H51  1  0.28457839  0.30356576  0.88336747  1  0.110022  0  0.120816  0.092346  0  0.978536  0
H  H52  1  0.78457813  0.30356579  0.61663245  1  0.110014  0  0.120829  0.092343  0  0.978542  0
H  H53  1  0.28457835  0.19643387  0.38336750  1  0.11001  0  0.120819  0.092326  0  0.97856  0
H  H54  1  0.21542153  0.80356595  0.88336747  1  0.110019  0  0.120817  0.092341  0  0.978532  0
H  H55  1  0.71542124  0.69643408  0.11663250  1  0.110014  0  0.12082  0.092344  0  0.978533  0
H  H56  1  0.24157621  0.84717730  0.41854024  1  0.111285  0  0.109947  0.132775  0  1.024139  0
H  H57  1  0.74157595  0.65282274  0.58145973  1  0.111287  0  0.109951  0.132779  0  1.02413  0
H  H58  1  0.75842413  0.34717713  0.08145976  1  0.111249  0  0.109947  0.132765  0  1.024142  0
H  H59  1  0.25842440  0.15282315  0.91854019  1  0.11125  0  0.109946  0.132769  0  1.024144  0
H  H60  1  0.75842413  0.15282254  0.58145972  1  0.111283  0  0.109947  0.13277  0  1.024139  0
H  H61  1  0.25842439  0.34717711  0.41853970  1  0.111253  0  0.109948  0.132772  0  1.024136  0
H  H62  1  0.24157621  0.65282271  0.91854020  1  0.111292  0  0.109954  0.132788  0  1.024127  0
H  H63  1  0.74157594  0.84717733  0.08145977  1  0.111286  0  0.109951  0.132776  0  1.02413  0
H  H64  1  0.13080840  0.96123355  0.63003207  1  0.072208  0  0.109881  0.13251  0  1.017089  0
H  H65  1  0.63080811  0.53876647  0.36996843  1  0.072195  0  0.109878  0.132505  0  1.017112  0
H  H66  1  0.86919199  0.46123405  0.86996840  1  0.072202  0  0.109878  0.132497  0  1.017093  0
H  H67  1  0.36919217  0.03876625  0.13003156  1  0.072202  0  0.109878  0.132495  0  1.017098  0
H  H68  1  0.86919194  0.03876629  0.36996789  1  0.072209  0  0.109884  0.132513  0  1.017081  0
H  H69  1  0.36919223  0.46123401  0.63003153  1  0.0722  0  0.109876  0.132491  0  1.0171  0
H  H70  1  0.13080764  0.53876579  0.13003156  1  0.072195  0  0.109871  0.132487  0  1.017106  0
H  H71  1  0.63080817  0.96123423  0.86996840  1  0.072198  0  0.109881  0.13251  0  1.01711  0
H  H72  1  0.16431353  0.95019873  0.76181663  1  0.095186  0  0.118536  0.092464  0  0.988302  0
H  H73  1  0.66431393  0.54980130  0.23818388  1  0.095196  0  0.118543  0.092476  0  0.988306  0
H  H74  1  0.83568616  0.45019921  0.73818384  1  0.095196  0  0.118542  0.092477  0  0.98831  0
H  H75  1  0.33568706  0.04980108  0.26181612  1  0.095186  0  0.118534  0.092464  0  0.988312  0
H  H76  1  0.83568610  0.04980112  0.23818333  1  0.095191  0  0.118542  0.092475  0  0.988294  0
H  H77  1  0.33568641  0.45019918  0.76181608  1  0.095191  0  0.118537  0.092467  0  0.988314  0
H  H78  1  0.16431347  0.54980127  0.26181612  1  0.095194  0  0.118542  0.092476  0  0.988299  0
H  H79  1  0.66431328  0.95019876  0.73818385  1  0.095191  0  0.118539  0.09247  0  0.988303  0
H  H80  1  0.45482966  0.97235800  0.72875542  1  0.076853  0  0.119967  0.093583  0  0.983728  0
H  H81  1  0.95482936  0.52764206  0.27124456  1  0.076861  0  0.119977  0.093592  0  0.983717  0
H  H82  1  0.54517074  0.47235781  0.77124451  1  0.076858  0  0.119977  0.093594  0  0.983725  0
H  H83  1  0.04517093  0.02764245  0.22875543  1  0.076865  0  0.119981  0.093597  0  0.983716  0
H  H84  1  0.54517068  0.02764184  0.27124455  1  0.076859  0  0.119974  0.093591  0  0.98373  0
H  H85  1  0.04517027  0.47235778  0.72875540  1  0.076861  0  0.119978  0.093599  0  0.98371  0
H  H86  1  0.45482960  0.52764203  0.22875545  1  0.076854  0  0.119972  0.093586  0  0.983717  0
H  H87  1  0.95482941  0.97235804  0.77124453  1  0.076859  0  0.119976  0.093593  0  0.983721  0
H  H88  1  0.43559364  0.98405967  0.59664268  1  0.104404  0  0.111316  0.127113  0  1.042424  0
H  H89  1  0.93559335  0.51594040  0.40335730  1  0.104398  0  0.111294  0.12707  0  1.042502  0
H  H90  1  0.56440676  0.48405949  0.90335725  1  0.1044  0  0.111284  0.127076  0  1.042514  0
H  H91  1  0.06440622  0.01594013  0.09664270  1  0.104397  0  0.111309  0.127095  0  1.042439  0
H  H92  1  0.56440670  0.01594017  0.40335728  1  0.104399  0  0.111288  0.127077  0  1.042512  0
H  H93  1  0.06440628  0.48405945  0.59664266  1  0.104399  0  0.11131  0.127099  0  1.042445  0
H  H94  1  0.43559358  0.51594035  0.09664271  1  0.104401  0  0.111313  0.127103  0  1.042433  0
H  H95  1  0.93559341  0.98405971  0.90335727  1  0.104397  0  0.111292  0.127069  0  1.042501  0
H  H96  1  0.96493534  0.89447552  0.42561564  1  0.08046  0  0.10878  0.021219  0  0.963666  0
H  H97  1  0.46493557  0.60552454  0.57438434  1  0.080461  0  0.108791  0.021238  0  0.96372  0
H  H98  1  0.03506500  0.39447590  0.07438437  1  0.080464  0  0.108783  0.021225  0  0.96366  0
H  H99  1  0.53506477  0.10552436  0.92561612  1  0.080461  0  0.10878  0.021224  0  0.963664  0
H  H100  1  0.03506429  0.10552496  0.57438432  1  0.080465  0  0.108781  0.021208  0  0.963695  0
H  H101  1  0.53506477  0.39447530  0.42561562  1  0.080458  0  0.108776  0.02122  0  0.963667  0
H  H102  1  0.96493534  0.60552459  0.92561614  1  0.080458  0  0.108774  0.021213  0  0.963677  0
H  H103  1  0.46493486  0.89447548  0.07438384  1  0.08046  0  0.10878  0.021225  0  0.963662  0
C  C104  1  0.39215754  0.82803419  0.44323178  1  0.37177  0  0.131493  0.355575  0  4.022825  0
C  C105  1  0.89215728  0.67196587  0.55676820  1  0.371767  0  0.131474  0.355598  0  4.022828  0
C  C106  1  0.60784279  0.32803400  0.05676769  1  0.372297  0  0.131475  0.355589  0  4.022837  0
C  C107  1  0.10784236  0.17196627  0.94323226  1  0.372294  0  0.131478  0.355555  0  4.022786  0
C  C108  1  0.60784280  0.17196566  0.55676819  1  0.371766  0  0.131476  0.355604  0  4.022819  0
C  C109  1  0.10784235  0.32803397  0.44323176  1  0.371768  0  0.131488  0.35556  0  4.022841  0
C  C110  1  0.39215755  0.67196585  0.94323174  1  0.371758  0  0.131482  0.355545  0  4.022849  0
C  C111  1  0.89215727  0.82803421  0.05676824  1  0.371766  0  0.131474  0.355598  0  4.022825  0
C  C112  1  0.46323987  0.76413482  0.44640040  1  -0.014379  0  -0.092617  -0.236323  0  3.913155  0
C  C113  1  0.96324034  0.73586525  0.55359958  1  -0.014385  0  -0.092625  -0.236359  0  3.91316  0
C  C114  1  0.53675974  0.26413461  0.05359960  1  -0.014384  0  -0.092622  -0.236354  0  3.913155  0
C  C115  1  0.03676002  0.23586564  0.94640034  1  -0.014394  0  -0.092617  -0.236348  0  3.913154  0
C  C116  1  0.53675975  0.23586503  0.55359956  1  -0.014381  0  -0.092624  -0.236356  0  3.913159  0
C  C117  1  0.03676000  0.26413459  0.44640038  1  -0.014384  0  -0.092617  -0.236327  0  3.913154  0
C  C118  1  0.46323989  0.73586523  0.94640036  1  -0.014383  0  -0.092611  -0.236295  0  3.91316  0
C  C119  1  0.96324032  0.76413484  0.05359962  1  -0.014386  0  -0.092625  -0.23636  0  3.913158  0
C  C120  1  0.44246108  0.68187178  0.42460022  1  0.458251  0  0.032977  0.089849  0  4.009727  0
C  C121  1  0.94246084  0.81812829  0.57539977  1  0.458264  0  0.032986  0.08988  0  4.009771  0
C  C122  1  0.55753923  0.18187158  0.07539979  1  0.458252  0  0.032984  0.089884  0  4.009781  0
C  C123  1  0.05753882  0.31812804  0.92460070  1  0.458252  0  0.032972  0.089858  0  4.009779  0
C  C124  1  0.55753926  0.31812806  0.57539975  1  0.458257  0  0.03298  0.089865  0  4.009737  0
C  C125  1  0.05753950  0.18187156  0.42460020  1  0.45826  0  0.032979  0.089867  0  4.009732  0
C  C126  1  0.44246040  0.81812826  0.92460072  1  0.458258  0  0.03296  0.089806  0  4.009802  0
C  C127  1  0.94246081  0.68187181  0.07539980  1  0.458254  0  0.032986  0.089883  0  4.009774  0
C  C128  1  0.28568658  0.71807815  0.40043832  1  0.463346  0  0.040343  0.102391  0  3.996714  0
C  C129  1  0.78568635  0.78192189  0.59956220  1  0.463288  0  0.04035  0.102372  0  3.996675  0
C  C130  1  0.71431302  0.21807798  0.09956168  1  0.463305  0  0.040348  0.102368  0  3.996734  0
C  C131  1  0.21431331  0.28192166  0.90043827  1  0.463282  0  0.040351  0.10236  0  3.996729  0
C  C132  1  0.71431305  0.28192169  0.59956164  1  0.463296  0  0.040332  0.102353  0  3.996743  0
C  C133  1  0.21431328  0.21807795  0.40043777  1  0.463284  0  0.040323  0.102354  0  3.99676  0
C  C134  1  0.28568661  0.78192187  0.90043828  1  0.463334  0  0.040355  0.102372  0  3.996697  0
C  C135  1  0.78568703  0.71807818  0.09956223  1  0.463295  0  0.040339  0.102352  0  3.99674  0
C  C136  1  0.30042159  0.80211196  0.42066259  1  0.021157  0  -0.097034  -0.239424  0  3.917948  0
C  C137  1  0.80042205  0.69788809  0.57933739  1  0.021163  0  -0.097009  -0.23939  0  3.917976  0
C  C138  1  0.69957803  0.30211242  0.07933796  1  0.021189  0  -0.097012  -0.239374  0  3.917988  0
C  C139  1  0.19957831  0.19788786  0.92066200  1  0.021189  0  -0.097038  -0.239405  0  3.917966  0
C  C140  1  0.69957804  0.19788789  0.57933738  1  0.021155  0  -0.097013  -0.239392  0  3.917985  0
C  C141  1  0.19957829  0.30211175  0.42066258  1  0.021201  0  -0.097022  -0.239386  0  3.917937  0
C  C142  1  0.30042231  0.69788806  0.92066255  1  0.021161  0  -0.097031  -0.239423  0  3.917953  0
C  C143  1  0.80042203  0.80211198  0.07933743  1  0.02116  0  -0.097007  -0.239383  0  3.917975  0
C  C144  1  0.28031783  0.97410572  0.60042921  1  0.406297  0  0.132194  0.355812  0  4.022949  0
C  C145  1  0.78031753  0.52589432  0.39957130  1  0.406678  0  0.132179  0.355758  0  4.023036  0
C  C146  1  0.71968257  0.47410620  0.89957126  1  0.406677  0  0.132216  0.355765  0  4.022999  0
C  C147  1  0.21968204  0.02589472  0.10042869  1  0.406674  0  0.132153  0.355786  0  4.02292  0
C  C148  1  0.71968251  0.02589412  0.39957075  1  0.406292  0  0.132253  0.355821  0  4.022929  0
C  C149  1  0.21968210  0.47410552  0.60042866  1  0.406676  0  0.132172  0.355776  0  4.022975  0
C  C150  1  0.28031777  0.52589428  0.10042870  1  0.406666  0  0.132178  0.355782  0  4.022982  0
C  C151  1  0.78031759  0.97410576  0.89957127  1  0.406679  0  0.13218  0.355762  0  4.023033  0
C  C152  1  0.20394565  0.96306768  0.64945918  1  0.061004  0  -0.096007  -0.241448  0  3.921256  0
C  C153  1  0.70394536  0.53693235  0.35054134  1  0.061008  0  -0.095996  -0.241421  0  3.921274  0
C  C154  1  0.79605403  0.46306753  0.85054130  1  0.061005  0  -0.09601  -0.241388  0  3.921227  0
C  C155  1  0.29605422  0.03693212  0.14945920  1  0.061017  0  -0.095991  -0.2414  0  3.92119  0
C  C156  1  0.79605398  0.03693216  0.35054079  1  0.061006  0  -0.096017  -0.241434  0  3.921247  0
C  C157  1  0.29605427  0.46306749  0.64945917  1  0.061018  0  -0.096014  -0.241417  0  3.921287  0
C  C158  1  0.20394560  0.53693231  0.14945867  1  0.061017  0  -0.095995  -0.241404  0  3.921238  0
C  C159  1  0.70394541  0.96306772  0.85054130  1  0.061009  0  -0.095994  -0.241427  0  3.921272  0
C  C160  1  0.22202583  0.95668408  0.72273606  1  0.444375  0  0.039124  0.099141  0  3.992965  0
C  C161  1  0.72202624  0.54331595  0.27726391  1  0.444381  0  0.039135  0.099147  0  3.992982  0
C  C162  1  0.77797386  0.45668393  0.77726387  1  0.444378  0  0.039134  0.099109  0  3.992991  0
C  C163  1  0.27797405  0.04331572  0.22273609  1  0.444384  0  0.039132  0.09914  0  3.992991  0
C  C164  1  0.77797380  0.04331576  0.27726390  1  0.44437  0  0.039111  0.099121  0  3.992963  0
C  C165  1  0.27797410  0.45668389  0.72273605  1  0.444364  0  0.039143  0.099161  0  3.993061  0
C  C166  1  0.22202648  0.54331592  0.22273609  1  0.444388  0  0.039145  0.099153  0  3.992967  0
C  C167  1  0.72202629  0.95668412  0.77726388  1  0.444387  0  0.039138  0.099169  0  3.992966  0
C  C168  1  0.38426229  0.96943914  0.70439044  1  0.474246  0  0.041692  0.10132  0  3.994609  0
C  C169  1  0.88426199  0.53056092  0.29560954  1  0.474254  0  0.041692  0.101331  0  3.994583  0
C  C170  1  0.61573811  0.46943960  0.79560949  1  0.474257  0  0.041692  0.101316  0  3.994574  0
C  C171  1  0.11573830  0.03056067  0.20439046  1  0.474263  0  0.041692  0.101345  0  3.994578  0
C  C172  1  0.61573805  0.03056070  0.29560952  1  0.474255  0  0.041685  0.101326  0  3.994625  0
C  C173  1  0.11573836  0.46943893  0.70439043  1  0.474271  0  0.041692  0.101339  0  3.994601  0
C  C174  1  0.38426223  0.53056088  0.20439048  1  0.474254  0  0.041691  0.101336  0  3.994585  0
C  C175  1  0.88426204  0.96943918  0.79560950  1  0.474254  0  0.041682  0.101321  0  3.994617  0
C  C176  1  0.37285468  0.97659837  0.63042308  1  0.020747  0  -0.097521  -0.241221  0  3.92484  0
C  C177  1  0.87285510  0.52340169  0.36957744  1  0.020367  0  -0.097505  -0.241171  0  3.924882  0
C  C178  1  0.62714500  0.47659884  0.86957739  1  0.020367  0  -0.097544  -0.241219  0  3.924888  0
C  C179  1  0.12714518  0.02340207  0.13042256  1  0.020365  0  -0.09752  -0.24121  0  3.924801  0
C  C180  1  0.62714495  0.02340147  0.36957743  1  0.020743  0  -0.097538  -0.241225  0  3.924886  0
C  C181  1  0.12714524  0.47659816  0.63042252  1  0.020366  0  -0.097521  -0.241209  0  3.92485  0
C  C182  1  0.37285462  0.52340165  0.13042257  1  0.020368  0  -0.097519  -0.241211  0  3.924829  0
C  C183  1  0.87285516  0.97659841  0.86957741  1  0.020367  0  -0.097505  -0.241166  0  3.924885  0
C  C184  1  0.03240770  0.93151315  0.42531777  1  1.536857  0  0.141201  0.484391  0  4.261783  0
C  C185  1  0.53240743  0.56848686  0.57468220  1  1.536849  0  0.141192  0.484311  0  4.261866  0
C  C186  1  0.96759194  0.43151301  0.07468224  1  1.536861  0  0.141215  0.484388  0  4.261773  0
C  C187  1  0.46759220  0.06848666  0.92531772  1  1.536887  0  0.141186  0.48436  0  4.261742  0
C  C188  1  0.96759193  0.06848669  0.57468220  1  1.536862  0  0.141205  0.484413  0  4.2618  0
C  C189  1  0.46759220  0.43151299  0.42531777  1  1.536886  0  0.141205  0.484374  0  4.2618  0
C  C190  1  0.03240769  0.56848747  0.92531772  1  1.536879  0  0.141192  0.484382  0  4.261785  0
C  C191  1  0.53240814  0.93151318  0.07468224  1  1.536867  0  0.141196  0.484368  0  4.261732  0
N  N192  1  0.41512638  0.91021403  0.46180269  1  -1.563789  0  -0.434568  -0.600441  0  3.472458  0
N  N193  1  0.91512611  0.58978603  0.53819729  1  -1.56378  0  -0.434562  -0.600468  0  3.472461  0
N  N194  1  0.58487396  0.41021383  0.03819732  1  -1.564312  0  -0.434561  -0.600464  0  3.472461  0
N  N195  1  0.08487351  0.08978643  0.96180263  1  -1.564309  0  -0.434565  -0.600427  0  3.472462  0
N  N196  1  0.58487396  0.08978582  0.53819728  1  -1.563783  0  -0.434565  -0.600476  0  3.472449  0
N  N197  1  0.08487352  0.41021381  0.46180213  1  -1.563788  0  -0.43455  -0.600419  0  3.47248  0
N  N198  1  0.41512638  0.58978601  0.96180264  1  -1.563789  0  -0.43457  -0.600436  0  3.472468  0
N  N199  1  0.91512612  0.91021405  0.03819734  1  -1.563783  0  -0.434562  -0.600469  0  3.472449  0
N  N200  1  0.26312818  0.98188955  0.52780273  1  -1.564824  0  -0.436409  -0.603431  0  3.489114  0
N  N201  1  0.76312789  0.51811049  0.47219724  1  -1.564851  0  -0.436435  -0.60345  0  3.489173  0
N  N202  1  0.73687222  0.48188940  0.97219720  1  -1.564846  0  -0.436419  -0.603448  0  3.48918  0
N  N203  1  0.23687168  0.01811089  0.02780275  1  -1.564838  0  -0.436397  -0.603469  0  3.48914  0
N  N204  1  0.73687216  0.01811029  0.47219723  1  -1.564851  0  -0.436441  -0.60346  0  3.489146  0
N  N205  1  0.23687174  0.48188935  0.52780272  1  -1.564844  0  -0.436406  -0.603459  0  3.489153  0
N  N206  1  0.26312812  0.51811045  0.02780276  1  -1.56486  0  -0.436432  -0.603468  0  3.489145  0
N  N207  1  0.76312795  0.98188960  0.97219721  1  -1.564859  0  -0.436431  -0.603457  0  3.489166  0
N  N208  1  0.35516141  0.65810302  0.40083474  1  -1.295746  0  -0.361383  -0.29214  0  3.649589  0
N  N209  1  0.85516190  0.84189704  0.59916524  1  -1.295703  0  -0.36138  -0.292152  0  3.649544  0
N  N210  1  0.64483818  0.15810283  0.09916526  1  -1.295708  0  -0.36139  -0.292175  0  3.649619  0
N  N211  1  0.14483777  0.34189744  0.90083469  1  -1.29569  0  -0.361375  -0.292128  0  3.649552  0
N  N212  1  0.64483822  0.34189683  0.59916523  1  -1.295694  0  -0.361377  -0.292144  0  3.649595  0
N  N213  1  0.14483844  0.15810281  0.40083472  1  -1.29571  0  -0.361393  -0.292171  0  3.649619  0
N  N214  1  0.35516145  0.84189701  0.90083524  1  -1.295757  0  -0.361361  -0.292076  0  3.649626  0
N  N215  1  0.85516186  0.65810304  0.09916528  1  -1.295698  0  -0.36138  -0.292158  0  3.649603  0
N  N216  1  0.31084906  0.95979174  0.75096826  1  -1.288387  0  -0.357235  -0.276567  0  3.617361  0
N  N217  1  0.81084876  0.54020831  0.24903226  1  -1.288402  0  -0.357245  -0.276591  0  3.617399  0
N  N218  1  0.68915133  0.45979157  0.74903221  1  -1.288402  0  -0.357219  -0.276515  0  3.617365  0
N  N219  1  0.18915153  0.04020871  0.25096828  1  -1.28842  0  -0.357237  -0.276597  0  3.617388  0
N  N220  1  0.68915128  0.04020875  0.24903224  1  -1.288402  0  -0.357223  -0.276555  0  3.617367  0
N  N221  1  0.18915158  0.45979153  0.75096825  1  -1.288404  0  -0.35722  -0.27658  0  3.617388  0
N  N222  1  0.31084901  0.54020828  0.25096775  1  -1.288402  0  -0.357245  -0.276596  0  3.617395  0
N  N223  1  0.81084881  0.95979113  0.74903222  1  -1.288403  0  -0.357234  -0.2766  0  3.617399  0
O  O224  1  0.40801701  0.07209219  0.47846298  1  -1.468727  0  -0.37057  -0.744879  0  2.129758  0
O  O225  1  0.90801680  0.42790812  0.52153698  1  -1.468709  0  -0.370556  -0.744864  0  2.129756  0
O  O226  1  0.59198327  0.57209238  0.02153701  1  -1.46872  0  -0.370564  -0.744868  0  2.129752  0
O  O227  1  0.09198359  0.92790828  0.97846349  1  -1.468715  0  -0.370528  -0.744819  0  2.129837  0
O  O228  1  0.59198333  0.92790766  0.52153698  1  -1.468719  0  -0.370569  -0.744876  0  2.129754  0
O  O229  1  0.09198354  0.57209172  0.47846298  1  -1.46872  0  -0.370532  -0.744826  0  2.129845  0
O  O230  1  0.40801635  0.42790810  0.97846295  1  -1.468713  0  -0.370561  -0.744867  0  2.129775  0
O  O231  1  0.90801675  0.07209221  0.02153701  1  -1.468716  0  -0.370566  -0.744876  0  2.129752  0
O  O232  1  0.28755088  0.99660543  0.39222460  1  -1.457776  0  -0.372869  -0.738841  0  2.370978  0
O  O233  1  0.78755060  0.50339461  0.60777537  1  -1.457778  0  -0.372871  -0.738848  0  2.370979  0
O  O234  1  0.71244876  0.49660526  0.10777541  1  -1.457779  0  -0.37287  -0.738847  0  2.37098  0
O  O235  1  0.21244901  0.00339438  0.89222455  1  -1.457776  0  -0.3729  -0.738871  0  2.370965  0
O  O236  1  0.71244946  0.00339441  0.60777536  1  -1.457777  0  -0.372886  -0.738856  0  2.370948  0
O  O237  1  0.21244902  0.49660587  0.39222459  1  -1.457772  0  -0.372894  -0.73886  0  2.370942  0
O  O238  1  0.28755087  0.50339459  0.89222456  1  -1.457779  0  -0.372872  -0.738843  0  2.370978  0
O  O239  1  0.78755062  0.99660546  0.10777542  1  -1.45778  0  -0.372872  -0.73885  0  2.370978  0
O  O240  1  0.04640367  0.97528899  0.36714477  1  -1.179472  0  -0.342552  -0.533054  0  2.361665  0
O  O241  1  0.54640339  0.52471103  0.63285465  1  -1.179463  0  -0.34254  -0.533013  0  2.361664  0
O  O242  1  0.95359598  0.47528884  0.13285524  1  -1.179474  0  -0.342552  -0.533061  0  2.361669  0
O  O243  1  0.45359693  0.02471019  0.86714527  1  -1.179498  0  -0.342539  -0.533059  0  2.361576  0
O  O244  1  0.95359596  0.02471150  0.63285519  1  -1.179473  0  -0.342558  -0.533082  0  2.361668  0
O  O245  1  0.45359623  0.47528946  0.36714532  1  -1.179494  0  -0.342553  -0.533071  0  2.361678  0
O  O246  1  0.04640365  0.52471100  0.86714527  1  -1.179486  0  -0.342534  -0.533024  0  2.361666  0
O  O247  1  0.54640341  0.97528965  0.13285469  1  -1.179469  0  -0.342523  -0.533031  0  2.361603  0
O  O248  1  0.08606141  0.92708847  0.47913235  1  -1.181723  0  -0.31691  -0.514375  0  2.255902  0
O  O249  1  0.58606184  0.57291154  0.52086762  1  -1.181727  0  -0.316931  -0.514355  0  2.255904  0
O  O250  1  0.91393823  0.42708832  0.02086766  1  -1.181723  0  -0.316929  -0.514372  0  2.255901  0
O  O251  1  0.41393849  0.07291199  0.97913230  1  -1.181717  0  -0.316924  -0.514366  0  2.255913  0
O  O252  1  0.91393822  0.07291137  0.52086762  1  -1.181724  0  -0.316925  -0.514385  0  2.255885  0
O  O253  1  0.41393850  0.42708830  0.47913235  1  -1.181718  0  -0.316924  -0.514365  0  2.255904  0
O  O254  1  0.08606140  0.57291152  0.97913285  1  -1.18173  0  -0.316915  -0.514387  0  2.255877  0
O  O255  1  0.58606185  0.92708850  0.02086766  1  -1.181734  0  -0.316931  -0.514372  0  2.255906  0
