# generated using pymatgen
data_Zn2HC32N2Cl8O8F13
_symmetry_space_group_name_H-M   'P 1'
_cell_length_a   9.97785319
_cell_length_b   11.01677488
_cell_length_c   17.31629428
_cell_angle_alpha   85.01032072
_cell_angle_beta   83.38394851
_cell_angle_gamma   90.78603549
_symmetry_Int_Tables_number   1
_chemical_formula_structural   Zn2HC32N2Cl8O8F13
_chemical_formula_sum   'Zn2 H1 C32 N2 Cl8 O8 F13'
_cell_volume   1883.08860796
_cell_formula_units_Z   1
loop_
 _symmetry_equiv_pos_site_id
 _symmetry_equiv_pos_as_xyz
  1  'x, y, z'
loop_
 _atom_site_type_symbol
 _atom_site_label
 _atom_site_symmetry_multiplicity
 _atom_site_fract_x
 _atom_site_fract_y
 _atom_site_fract_z
 _atom_site_occupancy
 _atom_site_pbe_bader_charge
 _atom_site_pbe_bader_spin_density
 _atom_site_pbe_cm5_charge
 _atom_site_pbe_ddec_charge
 _atom_site_pbe_ddec_spin_density
 _atom_site_pbe_ddec_sum_bond_order
 _atom_site_pbe_magmom
Zn  Zn0  1  0.63764025  0.50337946  0.50346984  1  1.303271  0  0.67653  0.857777  0  2.358194  0
Zn  Zn1  1  0.35504583  0.49916649  0.50640041  1  1.30178  0  0.675067  0.859516  0  2.347164  0
H  H2  1  0.28644868  0.60925359  0.73543059  1  0.117874  0  0.107566  0.133318  0  0.999567  0
C  C3  1  0.49987931  0.73356949  0.51066718  1  1.665111  0  0.220135  0.615045  0  4.184974  0
C  C4  1  0.45465089  0.49094649  0.74104963  1  0.020663  0  -0.013686  -0.044365  0  3.930114  0
C  C5  1  0.53565880  0.94404196  0.43779322  1  -0.004956  0  -0.017854  -0.075721  0  3.95437  0
C  C6  1  0.52515422  0.54120473  0.35586725  1  1.63138  0  0.220473  0.632051  0  4.140181  0
C  C7  1  0.50294002  0.87037417  0.50699322  1  0.048455  0  -4e-06  -0.043658  0  3.919008  0
C  C8  1  0.47389451  0.93192057  0.57437610  1  0.06451  0  0.021578  0.065206  0  3.99405  0
C  C9  1  0.47525495  0.06118546  0.57145496  1  0.138921  0  0.021695  0.068593  0  3.989038  0
C  C10  1  0.50803181  0.13413708  0.50069828  1  0.012598  0  -0.005751  -0.05318  0  3.911347  0
C  C11  1  0.54062731  0.07092581  0.43520715  1  0.028578  0  -0.016678  -0.069461  0  3.953441  0
C  C12  1  0.58481331  0.08758720  0.34823642  1  1.158702  0  0.199156  0.368185  0  3.973391  0
C  C13  1  0.57232989  0.94233527  0.35049276  1  1.186134  0  0.198138  0.36162  0  3.970548  0
C  C14  1  0.64041302  0.51947173  0.21806338  1  0.149258  0  0.008188  0.025307  0  4.057486  0
C  C15  1  0.06403586  0.60885297  0.50263661  1  0.451498  0  0.133133  0.118696  0  3.889997  0
C  C16  1  0.06224369  0.40711008  0.52737739  1  1.280012  0  0.277358  0.368719  0  3.983889  0
C  C17  1  0.91749518  0.40236853  0.53457016  1  0.707662  0  0.173598  0.14545  0  4.009531  0
C  C18  1  0.50424314  0.27088558  0.49642225  1  1.672158  0  0.217757  0.6185  0  4.174482  0
C  C19  1  0.92498681  0.60593448  0.50694183  1  0.592515  0  0.127859  0.060031  0  3.881752  0
C  C20  1  0.91455389  0.74453164  0.49752749  1  1.252265  0  0.210612  0.367922  0  3.994622  0
C  C21  1  0.07856810  0.74742644  0.49086712  1  0.784803  0  0.127887  0.17551  0  3.980336  0
C  C22  1  0.46073894  0.47892974  0.65497746  1  1.599469  0  0.215219  0.611325  0  4.14663  0
C  C23  1  0.53526329  0.56454668  0.26842650  1  0.052715  0  -0.016776  -0.14511  0  3.944526  0
C  C24  1  0.43333316  0.62922183  0.23521006  1  0.599044  0  0.095132  0.165153  0  4.062181  0
C  C25  1  0.53352936  0.46002682  0.86763762  1  0.544728  0  0.103842  0.207289  0  4.016615  0
C  C26  1  0.43306257  0.64815657  0.15470390  1  0.557843  0  0.095458  0.16131  0  4.089806  0
C  C27  1  0.53281261  0.59898696  0.10391454  1  0.129613  0  -0.0304  -0.170837  0  4.110604  0
C  C28  1  0.63667196  0.53685604  0.13741792  1  0.511702  0  0.101926  0.210434  0  4.036443  0
C  C29  1  0.54547226  0.43589614  0.78909748  1  0.117056  0  0.007453  0.022668  0  4.022416  0
C  C30  1  0.35596158  0.56737556  0.77324592  1  0.088189  0  -0.095228  -0.168533  0  3.970972  0
C  C31  1  0.34768563  0.59138248  0.85113691  1  0.04513  0  0.015567  0.127977  0  4.046128  0
C  C32  1  0.43639613  0.53684939  0.90066449  1  0.105242  0  -0.022273  -0.079102  0  4.045834  0
C  C33  1  0.52484895  0.60059863  0.01976643  1  0.535134  0  0.091855  0.203605  0  4.030879  0
C  C34  1  0.42679176  0.54944208  0.98517947  1  0.163928  0  -0.00731  -0.020291  0  4.079073  0
N  N35  1  0.13786581  0.50788856  0.51084107  1  -1.186983  0  -0.263814  -0.215524  0  3.362277  0
N  N36  1  0.84771176  0.50355607  0.52031508  1  -1.167177  0  -0.262518  -0.158  0  3.382599  0
Cl  Cl37  1  0.22841215  0.69024863  0.88685434  1  -0.179582  0  -0.002312  -0.059552  0  1.456786  0
Cl  Cl38  1  0.43444598  0.84690865  0.66229591  1  -0.1568  0  0.019856  -0.029747  0  1.595245  0
Cl  Cl39  1  0.44056938  0.12948309  0.65670831  1  -0.147286  0  0.013043  -0.031933  0  1.590453  0
Cl  Cl40  1  0.84031642  0.26689086  0.56415469  1  -0.023676  0  0.117527  0.081147  0  1.627267  0
Cl  Cl41  1  0.66687990  0.33553989  0.75919437  1  -0.158766  0  -0.010164  -0.054517  0  1.58432  0
Cl  Cl42  1  0.15923103  0.81262265  0.40245278  1  -0.096446  0  0.02663  -0.025772  0  1.498017  0
Cl  Cl43  1  0.28795739  0.47873946  0.04065525  1  -0.160087  0  0.00557  -0.036599  0  1.515607  0
Cl  Cl44  1  0.76836186  0.43529110  0.25175779  1  -0.142409  0  0.00801  -0.023385  0  1.529985  0
O  O45  1  0.60711808  0.68138957  0.52614395  1  -1.151062  0  -0.308331  -0.532447  0  2.341884  0
O  O46  1  0.39080984  0.68427550  0.49688538  1  -1.153331  0  -0.305155  -0.535356  0  2.359862  0
O  O47  1  0.62969190  0.56221189  0.38844644  1  -1.147335  0  -0.312726  -0.537105  0  2.320652  0
O  O48  1  0.41047559  0.50231200  0.38921165  1  -1.147131  0  -0.315891  -0.540111  0  2.306828  0
O  O49  1  0.61504956  0.32848497  0.47437014  1  -1.155152  0  -0.316067  -0.550081  0  2.354844  0
O  O50  1  0.39019875  0.31542017  0.51494153  1  -1.146692  0  -0.309207  -0.540972  0  2.378408  0
O  O51  1  0.57371313  0.45484751  0.61838338  1  -1.164602  0  -0.321878  -0.573075  0  2.42278  0
O  O52  1  0.35177408  0.49865295  0.62452150  1  -1.156911  0  -0.319676  -0.543094  0  2.300176  0
F  F53  1  0.33131627  0.67611358  0.28060063  1  -0.622081  0  -0.094139  -0.112152  0  1.441399  0
F  F54  1  0.73304922  0.48757852  0.08932372  1  -0.619148  0  -0.089243  -0.111488  0  1.375433  0
F  F55  1  0.61809199  0.40474642  0.91432411  1  -0.626135  0  -0.088839  -0.113375  0  1.392149  0
F  F56  1  0.63426262  0.65217994  0.97342576  1  -0.610088  0  -0.096954  -0.119691  0  1.330128  0
F  F57  1  0.33314744  0.71311159  0.12639903  1  -0.616324  0  -0.088452  -0.105951  0  1.380713  0
F  F58  1  0.50182431  0.15101075  0.30253389  1  -0.620597  0  -0.118812  -0.176492  0  1.284162  0
F  F59  1  0.71344464  0.13304118  0.32645162  1  -0.615228  0  -0.121574  -0.186256  0  1.309892  0
F  F60  1  0.47214211  0.90171471  0.31021837  1  -0.616176  0  -0.119487  -0.182466  0  1.321945  0
F  F61  1  0.68743163  0.88511908  0.32495701  1  -0.616314  0  -0.113321  -0.165732  0  1.320756  0
F  F62  1  0.12411947  0.30297006  0.53831584  1  -0.593595  0  -0.031978  -0.069556  0  1.44905  0
F  F63  1  0.86113761  0.79442948  0.43438847  1  -0.61404  0  -0.090395  -0.146258  0  1.404824  0
F  F64  1  0.85795799  0.79561529  0.56179321  1  -0.603316  0  -0.09983  -0.150926  0  1.32896  0
F  F65  1  0.12504698  0.79895658  0.55248132  1  -0.598516  0  -0.107095  -0.134485  0  1.347521  0
