# generated using pymatgen
data_CdSi2H36C32(BrN2)2
_symmetry_space_group_name_H-M   'P 1'
_cell_length_a   8.69084928
_cell_length_b   10.55736192
_cell_length_c   12.58920415
_cell_angle_alpha   76.70004564
_cell_angle_beta   87.86463617
_cell_angle_gamma   66.44181230
_symmetry_Int_Tables_number   1
_chemical_formula_structural   CdSi2H36C32(BrN2)2
_chemical_formula_sum   'Cd1 Si2 H36 C32 Br2 N4'
_cell_volume   1028.48234786
_cell_formula_units_Z   1
loop_
 _symmetry_equiv_pos_site_id
 _symmetry_equiv_pos_as_xyz
  1  'x, y, z'
loop_
 _atom_site_type_symbol
 _atom_site_label
 _atom_site_symmetry_multiplicity
 _atom_site_fract_x
 _atom_site_fract_y
 _atom_site_fract_z
 _atom_site_occupancy
 _atom_site_hle17_bader_spin_density
 _atom_site_hle17_ddec_charge
 _atom_site_hle17_ddec_spin_density
 _atom_site_hle17_ddec_sum_bond_order
 _atom_site_hle17_magmom
 _atom_site_hse06_10hf_bader_spin_density
 _atom_site_hse06_10hf_ddec_charge
 _atom_site_hse06_10hf_ddec_spin_density
 _atom_site_hse06_10hf_ddec_sum_bond_order
 _atom_site_hse06_10hf_magmom
 _atom_site_hse06_bader_spin_density
 _atom_site_hse06_ddec_charge
 _atom_site_hse06_ddec_spin_density
 _atom_site_hse06_ddec_sum_bond_order
 _atom_site_hse06_magmom
 _atom_site_pbe_bader_spin_density
 _atom_site_pbe_cm5_charge
 _atom_site_pbe_ddec_charge
 _atom_site_pbe_ddec_spin_density
 _atom_site_pbe_ddec_sum_bond_order
 _atom_site_pbe_magmom
Cd  Cd0  1  0.00000467  0.99999883  0.99999974  1  0  0.875617  0  1.938251  0  0  0.672746  0  2.39518  0  0  0.723304  0  2.358306  0  0  0.634679  0.637181  0  2.420678  0
Si  Si1  1  0.71379103  0.69214688  0.64844483  1  0  0.908142  0  3.374219  0  0  0.779305  0  3.761506  0  0  0.79772  0  3.756396  0  0  0.136657  0.766432  0  3.765202  0
Si  Si2  1  0.28620885  0.30785172  0.35155600  1  0  0.908125  0  3.374164  0  0  0.779297  0  3.761456  0  0  0.797695  0  3.756365  0  0  0.136678  0.766419  0  3.765149  0
H  H3  1  0.70373214  0.32530627  0.98410049  1  0  0.068378  0  0.972525  0  0  0.073903  0  1.042762  0  0  0.076939  0  1.03949  0  0  0.099506  0.071631  0  1.045158  0
H  H4  1  0.29626895  0.67469229  0.01589715  1  0  0.068385  0  0.97254  0  0  0.073911  0  1.042774  0  0  0.076947  0  1.039502  0  0  0.099507  0.071656  0  1.045157  0
H  H5  1  0.60424689  0.57253177  0.86559797  1  0  0.096347  0  0.944278  0  0  0.108013  0  1.001899  0  0  0.111078  0  1.001286  0  0  0.10552  0.105794  0  1.002485  0
H  H6  1  0.39575009  0.42746575  0.13439757  1  0  0.096349  0  0.944197  0  0  0.108001  0  1.001839  0  0  0.111066  0  1.001226  0  0  0.105488  0.105783  0  1.002426  0
H  H7  1  0.96129473  0.39655003  0.63412833  1  0  0.086266  0  0.993055  0  0  0.096845  0  1.058057  0  0  0.098739  0  1.059173  0  0  0.100035  0.095575  0  1.057411  0
H  H8  1  0.03870340  0.60344748  0.36586799  1  0  0.086204  0  0.993118  0  0  0.096767  0  1.058145  0  0  0.098665  0  1.059246  0  0  0.100012  0.095499  0  1.057493  0
H  H9  1  0.04984442  0.16108605  0.76502870  1  0  0.069357  0  0.992233  0  0  0.072399  0  1.067477  0  0  0.074715  0  1.06591  0  0  0.097895  0.070788  0  1.0684  0
H  H10  1  0.95015714  0.83891145  0.23496993  1  0  0.069311  0  0.992232  0  0  0.072388  0  1.067462  0  0  0.074697  0  1.065913  0  0  0.097888  0.070777  0  1.068384  0
H  H11  1  0.14598756  0.78864887  0.83430311  1  0  0.066184  0  0.986117  0  0  0.07126  0  1.05805  0  0  0.074254  0  1.054998  0  0  0.095031  0.069034  0  1.060293  0
H  H12  1  0.85401171  0.21135607  0.16569411  1  0  0.066194  0  0.986052  0  0  0.071251  0  1.058005  0  0  0.074245  0  1.054954  0  0  0.095045  0.069025  0  1.060248  0
H  H13  1  0.05616032  0.66739847  0.71572520  1  0  0.087326  0  0.946552  0  0  0.101338  0  1.001207  0  0  0.104223  0  1.000872  0  0  0.104047  0.099303  0  1.00158  0
H  H14  1  0.94383527  0.33260441  0.28427488  1  0  0.087317  0  0.946566  0  0  0.101339  0  1.001216  0  0  0.104226  0  1.000879  0  0  0.104037  0.0993  0  1.001589  0
H  H15  1  0.54058322  0.93235370  0.76404363  1  0  0.097644  0  0.993783  0  0  0.106733  0  1.059566  0  0  0.109937  0  1.058199  0  0  0.09132  0.104483  0  1.060673  0
H  H16  1  0.45941559  0.06764709  0.23596235  1  0  0.097617  0  0.993716  0  0  0.106718  0  1.05949  0  0  0.109921  0  1.058123  0  0  0.091321  0.104467  0  1.060597  0
H  H17  1  0.65415717  0.03338985  0.88558442  1  0  0.078844  0  0.952687  0  0  0.083084  0  1.022073  0  0  0.08632  0  1.01877  0  0  0.103004  0.080753  0  1.024371  0
H  H18  1  0.34584379  0.96660880  0.11442193  1  0  0.078809  0  0.952596  0  0  0.083027  0  1.022013  0  0  0.086264  0  1.018709  0  0  0.102929  0.080695  0  1.024312  0
H  H19  1  0.42192734  0.78751943  0.70053148  1  0  0.126547  0  0.95604  0  0  0.139575  0  1.020136  0  0  0.141416  0  1.019651  0  0  0.097487  0.138153  0  1.020566  0
H  H20  1  0.57807093  0.21248763  0.29946533  1  0  0.126566  0  0.956016  0  0  0.139592  0  1.020127  0  0  0.141436  0  1.019635  0  0  0.097495  0.138169  0  1.020556  0
H  H21  1  0.44257772  0.88639710  0.57028682  1  0  0.122238  0  0.962992  0  0  0.139351  0  1.021034  0  0  0.14051  0  1.022477  0  0  0.100995  0.13852  0  1.020015  0
H  H22  1  0.55742587  0.11360354  0.42970876  1  0  0.122273  0  0.962976  0  0  0.139403  0  1.021003  0  0  0.14056  0  1.022445  0  0  0.101027  0.138573  0  1.019985  0
H  H23  1  0.43099278  0.58875061  0.61529209  1  0  0.059107  0  0.951612  0  0  0.074769  0  1.006128  0  0  0.076543  0  1.006424  0  0  0.093035  0.073428  0  1.00613  0
H  H24  1  0.56900463  0.41125331  0.38470774  1  0  0.0591  0  0.951543  0  0  0.074763  0  1.006063  0  0  0.076536  0  1.006358  0  0  0.093051  0.073422  0  1.006062  0
H  H25  1  0.34502337  0.83450743  0.40907288  1  0  0.122192  0  0.970169  0  0  0.136328  0  1.028698  0  0  0.138963  0  1.02868  0  0  0.089015  0.134429  0  1.028777  0
H  H26  1  0.65497951  0.16549219  0.59092609  1  0  0.122238  0  0.970125  0  0  0.136373  0  1.028644  0  0  0.139009  0  1.028624  0  0  0.089055  0.134474  0  1.028724  0
H  H27  1  0.32296232  0.66308490  0.42505710  1  0  0.116612  0  0.990247  0  0  0.126579  0  1.056882  0  0  0.12921  0  1.0569  0  0  0.085286  0.124727  0  1.056871  0
H  H28  1  0.67703674  0.33691795  0.57494291  1  0  0.116619  0  0.990172  0  0  0.12657  0  1.056832  0  0  0.1292  0  1.056849  0  0  0.085292  0.12472  0  1.056819  0
H  H29  1  0.96475072  0.62476968  0.54233263  1  0  0.113987  0  0.956846  0  0  0.132453  0  1.01378  0  0  0.134011  0  1.013653  0  0  0.100178  0.131229  0  1.014024  0
H  H30  1  0.03525166  0.37523101  0.45766694  1  0  0.113972  0  0.956841  0  0  0.132439  0  1.013763  0  0  0.133999  0  1.013636  0  0  0.100172  0.131211  0  1.014009  0
H  H31  1  0.79248241  0.61612109  0.47640677  1  0  0.117816  0  0.95082  0  0  0.135175  0  1.005737  0  0  0.136641  0  1.006051  0  0  0.100262  0.134058  0  1.005638  0
H  H32  1  0.20751927  0.38387857  0.52359540  1  0  0.11778  0  0.950839  0  0  0.135132  0  1.005758  0  0  0.1366  0  1.006072  0  0  0.100241  0.134016  0  1.005657  0
H  H33  1  0.67445287  0.87388086  0.39527325  1  0  0.066672  0  0.949167  0  0  0.083084  0  1.003944  0  0  0.084723  0  1.004135  0  0  0.09626  0.081909  0  1.003872  0
H  H34  1  0.32554766  0.12611881  0.60472815  1  0  0.066648  0  0.949164  0  0  0.083064  0  1.003932  0  0  0.084702  0  1.004122  0  0  0.096258  0.081885  0  1.003873  0
H  H35  1  0.00885145  0.85433028  0.48895534  1  0  0.115764  0  0.982591  0  0  0.129672  0  1.044697  0  0  0.132007  0  1.04515  0  0  0.086657  0.12802  0  1.044431  0
H  H36  1  0.99114975  0.14567044  0.51104584  1  0  0.115764  0  0.982566  0  0  0.129663  0  1.044689  0  0  0.131995  0  1.045143  0  0  0.086663  0.128011  0  1.044422  0
H  H37  1  0.85315725  0.00354995  0.38691055  1  0  0.122128  0  0.979065  0  0  0.134366  0  1.042051  0  0  0.136968  0  1.04184  0  0  0.090578  0.132465  0  1.04232  0
H  H38  1  0.14684111  0.99645187  0.61309206  1  0  0.122091  0  0.979123  0  0  0.134361  0  1.042072  0  0  0.136963  0  1.041862  0  0  0.090585  0.13246  0  1.042341  0
C  C39  1  0.75835335  0.34836383  0.90617999  1  0  0.120467  0  3.717737  0  0  0.093196  0  3.961639  0  0  0.099153  0  3.98154  0  0  0.041452  0.089333  0  3.947874  0
C  C40  1  0.24164477  0.65163369  0.09381711  1  0  0.120465  0  3.717724  0  0  0.093195  0  3.961619  0  0  0.09915  0  3.981521  0  0  0.041463  0.089315  0  3.947843  0
C  C41  1  0.70263682  0.48473271  0.83871031  1  0  -0.099793  0  3.749994  0  0  -0.113547  0  3.987669  0  0  -0.120454  0  4.011144  0  0  -0.079332  -0.108699  0  3.971637  0
C  C42  1  0.29735732  0.51526591  0.16128746  1  0  -0.099757  0  3.749947  0  0  -0.113508  0  3.987629  0  0  -0.120414  0  4.011102  0  0  -0.079312  -0.108662  0  3.9716  0
C  C43  1  0.77523137  0.50759063  0.73824891  1  0  -0.223018  0  3.727949  0  0  -0.183695  0  3.977479  0  0  -0.185745  0  3.999965  0  0  -0.042246  -0.182244  0  3.962666  0
C  C44  1  0.22476394  0.49240798  0.26174804  1  0  -0.223145  0  3.727966  0  0  -0.183802  0  3.977462  0  0  -0.185844  0  3.999938  0  0  -0.042283  -0.182354  0  3.962652  0
C  C45  1  0.90016252  0.38821730  0.71098116  1  0  -0.105977  0  3.765308  0  0  -0.119234  0  4.001261  0  0  -0.12587  0  4.024693  0  0  -0.082655  -0.115439  0  3.985973  0
C  C46  1  0.09983395  0.61178130  0.28901577  1  0  -0.105837  0  3.765232  0  0  -0.119067  0  4.001198  0  0  -0.125701  0  4.024628  0  0  -0.082611  -0.115274  0  3.985909  0
C  C47  1  0.95027207  0.25523121  0.78326384  1  0  0.129543  0  3.700572  0  0  0.103332  0  3.940648  0  0  0.109879  0  3.959277  0  0  0.04447  0.099036  0  3.928296  0
C  C48  1  0.04972570  0.74476951  0.21673423  1  0  0.129591  0  3.700498  0  0  0.103313  0  3.940618  0  0  0.109857  0  3.959245  0  0  0.044469  0.099015  0  3.928264  0
C  C49  1  0.01308172  0.81479710  0.81670412  1  0  0.109636  0  3.72643  0  0  0.083769  0  3.96974  0  0  0.089115  0  3.990069  0  0  0.03545  0.080391  0  3.955528  0
C  C50  1  0.98691930  0.18520151  0.18329827  1  0  0.109703  0  3.726303  0  0  0.083857  0  3.969604  0  0  0.089205  0  3.989933  0  0  0.035467  0.080477  0  3.955397  0
C  C51  1  0.96087739  0.74994154  0.74956006  1  0  -0.097751  0  3.76886  0  0  -0.112146  0  4.007178  0  0  -0.118773  0  4.030973  0  0  -0.079454  -0.107536  0  3.990799  0
C  C52  1  0.03911800  0.25005925  0.25044281  1  0  -0.097801  0  3.768801  0  0  -0.112204  0  4.007131  0  0  -0.118834  0  4.030921  0  0  -0.079461  -0.107593  0  3.990747  0
C  C53  1  0.78823807  0.78988052  0.72786497  1  0  -0.222163  0  3.731146  0  0  -0.180721  0  3.976893  0  0  -0.18343  0  4.000702  0  0  -0.04152  -0.178704  0  3.961109  0
C  C54  1  0.21175880  0.21011709  0.27213929  1  0  -0.222021  0  3.731226  0  0  -0.180618  0  3.97701  0  0  -0.18332  0  4.000809  0  0  -0.041495  -0.178583  0  3.961187  0
C  C55  1  0.67647550  0.89691147  0.77499181  1  0  -0.096645  0  3.746636  0  0  -0.112512  0  3.98572  0  0  -0.118916  0  4.008098  0  0  -0.081337  -0.108801  0  3.971097  0
C  C56  1  0.32352103  0.10308933  0.22501263  1  0  -0.096786  0  3.746811  0  0  -0.112642  0  3.985869  0  0  -0.119047  0  4.008243  0  0  -0.08138  -0.108935  0  3.971247  0
C  C57  1  0.73845772  0.95491027  0.84335471  1  0  0.135066  0  3.68372  0  0  0.107409  0  3.928218  0  0  0.114059  0  3.946189  0  0  0.048395  0.103083  0  3.916231  0
C  C58  1  0.26154322  0.04508839  0.15665244  1  0  0.135174  0  3.683635  0  0  0.107537  0  3.928101  0  0  0.114188  0  3.946071  0  0  0.048465  0.103211  0  3.916117  0
C  C59  1  0.47826330  0.77789248  0.62105119  1  0  -0.481316  0  3.729507  0  0  -0.486473  0  3.960243  0  0  -0.494356  0  3.972888  0  0  -0.201671  -0.480711  0  3.951387  0
C  C60  1  0.52173760  0.22211139  0.37894699  1  0  -0.481346  0  3.729283  0  0  -0.48654  0  3.960048  0  0  -0.494414  0  3.972672  0  0  -0.201702  -0.48078  0  3.951196  0
C  C61  1  0.41933668  0.69266282  0.56585053  1  0  0.03919  0  3.845824  0  0  0.03583  0  4.0934  0  0  0.03571  0  4.117591  0  0  -0.094429  0.035892  0  4.076866  0
C  C62  1  0.58066600  0.30734213  0.43415058  1  0  0.03911  0  3.845824  0  0  0.035766  0  4.093414  0  0  0.035639  0  4.117609  0  0  -0.094529  0.035831  0  4.076882  0
C  C63  1  0.35995432  0.73170741  0.46145946  1  0  -0.315245  0  3.665013  0  0  -0.354104  0  3.897694  0  0  -0.359293  0  3.91435  0  0  -0.197257  -0.3504  0  3.886368  0
C  C64  1  0.64004574  0.26829330  0.53854016  1  0  -0.315229  0  3.665132  0  0  -0.354071  0  3.897814  0  0  -0.359259  0  3.914466  0  0  -0.197227  -0.350368  0  3.88649  0
C  C65  1  0.82937897  0.68141041  0.51836829  1  0  -0.480125  0  3.752556  0  0  -0.488916  0  3.990907  0  0  -0.49603  0  4.002643  0  0  -0.20179  -0.483643  0  3.982568  0
C  C66  1  0.17062320  0.31858819  0.48163408  1  0  -0.480129  0  3.752629  0  0  -0.488892  0  3.990932  0  0  -0.496018  0  4.002684  0  0  -0.201785  -0.483615  0  3.982593  0
C  C67  1  0.79202759  0.82564375  0.44633946  1  0  0.034946  0  3.823132  0  0  0.031572  0  4.073362  0  0  0.031582  0  4.096168  0  0  -0.093668  0.031526  0  4.057777  0
C  C68  1  0.20797295  0.17435591  0.55366115  1  0  0.035041  0  3.823164  0  0  0.031663  0  4.073395  0  0  0.031678  0  4.096205  0  0  -0.09364  0.031614  0  4.05781  0
C  C69  1  0.88910181  0.89822202  0.44109072  1  0  -0.2969  0  3.637551  0  0  -0.339402  0  3.874212  0  0  -0.344177  0  3.891107  0  0  -0.190278  -0.33609  0  3.86281  0
C  C70  1  0.11089872  0.10177765  0.55891068  1  0  -0.296908  0  3.637614  0  0  -0.339428  0  3.874264  0  0  -0.3442  0  3.891157  0  0  -0.190304  -0.336115  0  3.862862  0
Br  Br71  1  0.69785867  0.06787542  0.09935545  1  0  -0.619309  0  0.837807  0  0  -0.571586  0  1.096817  0  0  -0.587651  0  1.07443  0  0  -0.330122  -0.559006  0  1.111876  0
Br  Br72  1  0.30214767  0.93211676  0.90064491  1  0  -0.619285  0  0.837794  0  0  -0.571544  0  1.096783  0  0  -0.587613  0  1.074396  0  0  -0.33009  -0.558965  0  1.111846  0
N  N73  1  0.88155928  0.23581254  0.87961868  1  0  -0.303475  0  3.238543  0  0  -0.225724  0  3.490746  0  0  -0.244639  0  3.511494  0  0  -0.321709  -0.212752  0  3.476745  0
N  N74  1  0.11844109  0.76418500  0.12038235  1  0  -0.303454  0  3.238538  0  0  -0.225687  0  3.490759  0  0  -0.2446  0  3.511507  0  0  -0.321686  -0.212716  0  3.476763  0
N  N75  1  0.90378828  0.91432916  0.86420310  1  0  -0.306495  0  3.241774  0  0  -0.227677  0  3.494072  0  0  -0.246755  0  3.515433  0  0  -0.322426  -0.214575  0  3.479518  0
N  N76  1  0.09621289  0.08567158  0.13579967  1  0  -0.306553  0  3.24171  0  0  -0.227737  0  3.493987  0  0  -0.246814  0  3.515346  0  0  -0.322422  -0.214635  0  3.479436  0
