# generated using pymatgen
data_Zn2H42C38N9O11
_symmetry_space_group_name_H-M   'P 1'
_cell_length_a   10.41218497
_cell_length_b   12.51221331
_cell_length_c   19.65857914
_cell_angle_alpha   74.99866012
_cell_angle_beta   82.15116180
_cell_angle_gamma   81.42963324
_symmetry_Int_Tables_number   1
_chemical_formula_structural   Zn2H42C38N9O11
_chemical_formula_sum   'Zn4 H84 C76 N18 O22'
_cell_volume   2433.29587100
_cell_formula_units_Z   2
loop_
 _symmetry_equiv_pos_site_id
 _symmetry_equiv_pos_as_xyz
  1  'x, y, z'
loop_
 _atom_site_type_symbol
 _atom_site_label
 _atom_site_symmetry_multiplicity
 _atom_site_fract_x
 _atom_site_fract_y
 _atom_site_fract_z
 _atom_site_occupancy
 _atom_site_pbe_bader_charge
 _atom_site_pbe_bader_spin_density
 _atom_site_pbe_cm5_charge
 _atom_site_pbe_ddec_charge
 _atom_site_pbe_ddec_spin_density
 _atom_site_pbe_ddec_sum_bond_order
 _atom_site_pbe_magmom
Zn  Zn0  1  0.31511453  0.87517556  0.15048403  1  1.250338  0  0.696183  0.775927  0  2.427643  0
Zn  Zn1  1  0.68485379  0.12480525  0.84950782  1  1.250582  0  0.69623  0.775886  0  2.427726  0
Zn  Zn2  1  0.37162362  0.88012573  0.66599873  1  1.288379  0  0.694663  0.86735  0  2.328146  0
Zn  Zn3  1  0.62839030  0.11980185  0.33402576  1  1.288545  0  0.694874  0.867346  0  2.328551  0
H  H4  1  0.58348587  0.98958661  0.09909147  1  0.189002  0  0.135441  0.10945  0  1.045301  0
H  H5  1  0.41651083  0.01038980  0.90088113  1  0.189382  0  0.135473  0.109657  0  1.045098  0
H  H6  1  0.14952112  0.58003040  0.37776918  1  0.147899  0  0.119383  0.133523  0  1.000855  0
H  H7  1  0.85060585  0.42000289  0.62234550  1  0.14811  0  0.119608  0.133825  0  1.000657  0
H  H8  1  0.41428984  0.08107172  0.02071466  1  0.197408  0  0.134575  0.111334  0  1.042088  0
H  H9  1  0.58567174  0.91891746  0.97928245  1  0.197939  0  0.134545  0.111271  0  1.041926  0
H  H10  1  0.90411455  0.86852634  0.18042205  1  0.056802  0  0.11581  0.101249  0  0.97588  0
H  H11  1  0.09586922  0.13145430  0.81956356  1  0.05462  0  0.115732  0.101245  0  0.975679  0
H  H12  1  0.81980775  0.00470496  0.15989108  1  0.08486  0  0.111869  0.097472  0  0.974288  0
H  H13  1  0.18017920  0.99528147  0.84009284  1  0.085256  0  0.111956  0.097489  0  0.974085  0
H  H14  1  0.15204843  0.63773368  0.07341179  1  0.159558  0  0.119231  0.136508  0  1.00087  0
H  H15  1  0.84789917  0.36223410  0.92658426  1  0.159952  0  0.119085  0.13634  0  1.000978  0
H  H16  1  0.35026911  0.83200061  0.88640381  1  0.104101  0  0.107871  0.107599  0  1.025579  0
H  H17  1  0.64967740  0.16796051  0.11359646  1  0.103516  0  0.107903  0.107605  0  1.025405  0
H  H18  1  0.78433030  0.97456805  0.04051605  1  0.037742  0  0.089656  0.082937  0  1.049019  0
H  H19  1  0.21562511  0.02540713  0.95947668  1  0.038052  0  0.089608  0.082764  0  1.049423  0
H  H20  1  0.88417348  0.84550193  0.06055652  1  0.00949  0  0.089149  0.08671  0  0.978096  0
H  H21  1  0.11578738  0.15447570  0.93943081  1  0.010078  0  0.08921  0.086865  0  0.978107  0
H  H22  1  0.10459813  0.59802519  0.86587047  1  0.153192  0  0.115619  0.134751  0  1.024856  0
H  H23  1  0.89531228  0.40194637  0.13413594  1  0.15398  0  0.115516  0.13473  0  1.024967  0
H  H24  1  0.53968813  0.42878074  0.94583873  1  0.026977  0  0.088928  0.085743  0  0.984339  0
H  H25  1  0.46024555  0.57122968  0.05414841  1  0.027119  0  0.088868  0.085672  0  0.984311  0
H  H26  1  0.39747848  0.52452412  0.94710439  1  0.020723  0  0.082795  0.074151  0  1.018898  0
H  H27  1  0.60245112  0.47547298  0.05289387  1  0.021088  0  0.082749  0.07402  0  1.018995  0
H  H28  1  0.97204516  0.07230377  0.05383165  1  0.002508  0  0.082337  0.071153  0  1.011218  0
H  H29  1  0.02790237  0.92768504  0.94613098  1  0.003177  0  0.082346  0.071005  0  1.011079  0
H  H30  1  0.07268084  0.94392798  0.06543896  1  0.032836  0  0.086405  0.0836  0  1.010742  0
H  H31  1  0.92728364  0.05607386  0.93452688  1  0.033567  0  0.086464  0.083662  0  1.010459  0
H  H32  1  0.24880697  0.36051132  0.96864965  1  0.038121  0  0.10563  0.081192  0  0.979386  0
H  H33  1  0.75113499  0.63947226  0.03135444  1  0.038272  0  0.105611  0.081099  0  0.979223  0
H  H34  1  0.39932044  0.27581044  0.95849742  1  0.091922  0  0.11522  0.098784  0  0.976003  0
H  H35  1  0.60062431  0.72418147  0.04149951  1  0.092091  0  0.11511  0.098636  0  0.976122  0
H  H36  1  0.46454713  0.31922770  0.06759698  1  0.027019  0  0.092489  0.092541  0  1.001101  0
H  H37  1  0.53541978  0.68077230  0.93238728  1  0.026746  0  0.092428  0.092536  0  1.001055  0
H  H38  1  0.32106573  0.41444747  0.06919272  1  0.050177  0  0.091917  0.091225  0  0.998581  0
H  H39  1  0.67889690  0.58553335  0.93080872  1  0.050796  0  0.091819  0.091111  0  0.99862  0
H  H40  1  0.76456855  0.69098333  0.46799675  1  0.126669  0  0.116625  0.126835  0  1.008545  0
H  H41  1  0.23555352  0.30905834  0.53211694  1  0.126448  0  0.11648  0.126814  0  1.008904  0
H  H42  1  0.11864016  0.29390849  0.10618485  1  0.173141  0  0.12089  0.12975  0  1.057564  0
H  H43  1  0.88132084  0.70607815  0.89381831  1  0.17289  0  0.120883  0.129729  0  1.057811  0
H  H44  1  0.48880431  0.85472425  0.51054998  1  0.220233  0  0.141149  0.126075  0  1.031134  0
H  H45  1  0.51130195  0.14518699  0.48948334  1  0.22027  0  0.141085  0.126012  0  1.031122  0
H  H46  1  0.49700932  0.70311848  0.25862487  1  0.168468  0  0.122188  0.129826  0  1.025901  0
H  H47  1  0.50295998  0.29686827  0.74134966  1  0.16857  0  0.122259  0.129933  0  1.025969  0
H  H48  1  0.75955937  0.73481681  0.25740289  1  0.098918  0  0.127185  0.129833  0  1.001617  0
H  H49  1  0.24039766  0.26518653  0.74259685  1  0.098403  0  0.127125  0.129757  0  1.001873  0
H  H50  1  0.13413366  0.77123663  0.63150071  1  0.142404  0  0.118084  0.125088  0  1.023048  0
H  H51  1  0.86578437  0.22891254  0.36840660  1  0.142141  0  0.11804  0.125079  0  1.023246  0
H  H52  1  0.48395021  0.79058296  0.40684626  1  0.124687  0  0.110548  0.098243  0  1.020017  0
H  H53  1  0.51607660  0.20955437  0.59310249  1  0.125941  0  0.110725  0.098548  0  1.019449  0
H  H54  1  0.32910282  0.78747323  0.37876552  1  0.046593  0  0.10488  0.08748  0  0.991476  0
H  H55  1  0.67093987  0.21262064  0.62118755  1  0.045439  0  0.104812  0.087436  0  0.991407  0
H  H56  1  0.58387264  0.59374485  0.49388886  1  0.002838  0  0.084909  0.076772  0  1.005384  0
H  H57  1  0.41623033  0.40637903  0.50604761  1  0.007858  0  0.084841  0.076902  0  1.005288  0
H  H58  1  0.43005886  0.58025803  0.54390756  1  0.006603  0  0.088396  0.082102  0  0.991066  0
H  H59  1  0.57005341  0.41985323  0.45603178  1  0.004714  0  0.088374  0.082084  0  0.991363  0
H  H60  1  0.15010392  0.71150143  0.50219469  1  0.149082  0  0.116868  0.119797  0  1.049612  0
H  H61  1  0.84983147  0.28877491  0.49767233  1  0.153544  0  0.116884  0.119915  0  1.049756  0
H  H62  1  0.32860969  0.59049842  0.43288235  1  0.061601  0  0.090871  0.093208  0  1.030881  0
H  H63  1  0.67150209  0.40959288  0.56706179  1  0.060692  0  0.090882  0.093255  0  1.030571  0
H  H64  1  0.48006701  0.60963009  0.38252364  1  0.041406  0  0.095826  0.097659  0  0.975347  0
H  H65  1  0.52004033  0.39050619  0.61741405  1  0.04223  0  0.095653  0.097293  0  0.975643  0
H  H66  1  0.87833523  0.84668682  0.55521499  1  0.035297  0  0.10099  0.112194  0  0.986148  0
H  H67  1  0.12169450  0.15329539  0.44480654  1  0.035354  0  0.100922  0.112172  0  0.986238  0
H  H68  1  0.82859126  0.98708260  0.51024250  1  0.048119  0  0.100477  0.11168  0  1.011324  0
H  H69  1  0.17142511  0.01288825  0.48976867  1  0.047909  0  0.100416  0.111608  0  1.011443  0
H  H70  1  0.71283123  0.88831436  0.53477265  1  0.133463  0  0.110639  0.14028  0  1.032578  0
H  H71  1  0.28720061  0.11164879  0.46523859  1  0.13494  0  0.110693  0.140267  0  1.03265  0
H  H72  1  0.90604285  0.05383174  0.59744591  1  0.046237  0  0.100934  0.109563  0  1.008243  0
H  H73  1  0.09392993  0.94618632  0.40255532  1  0.046353  0  0.100896  0.109476  0  1.008449  0
H  H74  1  0.95067109  0.92081671  0.65387811  1  0.078196  0  0.107852  0.126503  0  0.979719  0
H  H75  1  0.04932103  0.07921099  0.34613025  1  0.077911  0  0.107909  0.126625  0  0.979574  0
H  H76  1  0.83798333  0.02198936  0.68718736  1  0.105586  0  0.105819  0.123017  0  1.057089  0
H  H77  1  0.16198718  0.97803124  0.31281211  1  0.105577  0  0.105731  0.122911  0  1.056835  0
H  H78  1  0.53342707  0.03901926  0.71304645  1  0.080702  0  0.10548  0.162622  0  1.001255  0
H  H79  1  0.46656719  0.96095459  0.28693743  1  0.080993  0  0.105494  0.162604  0  1.001173  0
H  H80  1  0.68603657  0.98434365  0.74696263  1  0.065664  0  0.094686  0.142819  0  1.061577  0
H  H81  1  0.31394206  0.01564190  0.25304292  1  0.06555  0  0.094623  0.142703  0  1.0618  0
H  H82  1  0.55853883  0.89793683  0.76038557  1  0.076378  0  0.108471  0.176472  0  0.981412  0
H  H83  1  0.44144799  0.10204606  0.23962692  1  0.076849  0  0.108399  0.176346  0  0.981642  0
H  H84  1  0.95627070  0.90345013  0.28695569  1  0.092868  0  0.110585  0.117395  0  1.021204  0
H  H85  1  0.04372661  0.09649276  0.71305231  1  0.092364  0  0.110469  0.117228  0  1.021387  0
H  H86  1  0.10156266  0.07398135  0.18282323  1  0.127232  0  0.123155  0.123672  0  0.999028  0
H  H87  1  0.89838807  0.92600054  0.81716978  1  0.126969  0  0.123096  0.123688  0  0.998828  0
C  C88  1  0.18202194  0.76350311  0.27362613  1  1.567958  0  0.196353  0.555364  0  4.243037  0
C  C89  1  0.81801456  0.23646319  0.72639798  1  1.565667  0  0.196737  0.555847  0  4.241972  0
C  C90  1  0.59318663  0.91543608  0.14242971  1  0.930716  0  0.141957  0.086025  0  3.882817  0
C  C91  1  0.40679763  0.08454792  0.85754972  1  0.93226  0  0.141959  0.085772  0  3.88283  0
C  C92  1  0.30866722  0.80368205  0.02889310  1  1.580561  0  0.203116  0.563239  0  4.229139  0
C  C93  1  0.69128635  0.19628558  0.97111168  1  1.579944  0  0.203059  0.563075  0  4.228761  0
C  C94  1  0.25444686  0.74285352  0.98448997  1  -0.033688  0  -0.012174  -0.016689  0  3.967923  0
C  C95  1  0.74549404  0.25712182  0.01550791  1  -0.033997  0  -0.012121  -0.016784  0  3.968214  0
C  C96  1  0.06528646  0.64270350  0.37856283  1  -0.005964  0  -0.068526  -0.142747  0  3.934172  0
C  C97  1  0.93482644  0.35731674  0.62154640  1  -0.00763  0  -0.068637  -0.14326  0  3.934647  0
C  C98  1  0.33040771  0.10596053  0.05466542  1  0.943133  0  0.143197  0.089935  0  3.912338  0
C  C99  1  0.66954758  0.89402457  0.94533334  1  0.942703  0  0.143419  0.090001  0  3.912465  0
C  C100  1  0.82995694  0.92219404  0.14840641  1  0.295535  0  -0.04709  -0.058587  0  3.860161  0
C  C101  1  0.17002706  0.07779323  0.85158167  1  0.297178  0  -0.047119  -0.058453  0  3.859986  0
C  C102  1  0.17318066  0.66063530  0.01615040  1  -0.050926  0  -0.069874  -0.140433  0  3.908545  0
C  C103  1  0.82675861  0.33934587  0.98384921  1  -0.050401  0  -0.069808  -0.140145  0  3.908456  0
C  C104  1  0.28453962  0.76962195  0.91102172  1  -0.019057  0  -0.070198  -0.10587  0  3.93347  0
C  C105  1  0.71541134  0.23033413  0.08897699  1  -0.020958  0  -0.070282  -0.105685  0  3.933284  0
C  C106  1  0.86715794  0.93007363  0.06959734  1  0.001103  0  -0.167866  -0.174501  0  3.957475  0
C  C107  1  0.13280677  0.06990397  0.93038717  1  0.001088  0  -0.16795  -0.174773  0  3.95829  0
C  C108  1  0.14671523  0.63616963  0.89987083  1  -0.02085  0  -0.073667  -0.161579  0  3.937566  0
C  C109  1  0.85320292  0.36380184  0.10013247  1  -0.020462  0  -0.074047  -0.162196  0  3.93774  0
C  C110  1  0.25232121  0.75612960  0.78918176  1  1.597674  0  0.197405  0.5711  0  4.230112  0
C  C111  1  0.74765973  0.24380280  0.21081647  1  1.596376  0  0.197502  0.571257  0  4.229738  0
C  C112  1  0.95762507  0.62636442  0.42905325  1  0.204228  0  0.08281  0.096688  0  4.024012  0
C  C113  1  0.04251529  0.37367034  0.57106017  1  0.208018  0  0.082838  0.097134  0  4.023721  0
C  C114  1  0.12045207  0.60687586  0.97389190  1  0.211814  0  0.084965  0.094646  0  3.971756  0
C  C115  1  0.87947385  0.39310380  0.02611253  1  0.212175  0  0.084984  0.09454  0  3.971938  0
C  C116  1  0.46638312  0.46693439  0.98137903  1  -0.010253  0  -0.166725  -0.139284  0  3.942836  0
C  C117  1  0.53355427  0.53306181  0.01861421  1  -0.043698  0  -0.166579  -0.138959  0  3.942891  0
C  C118  1  0.98660401  0.99096413  0.04013198  1  -0.022884  0  -0.168087  -0.131908  0  3.924961  0
C  C119  1  0.01335697  0.00901861  0.95983824  1  0.009831  0  -0.168192  -0.131618  0  3.924456  0
C  C120  1  0.32915799  0.30904425  0.99719733  1  0.278728  0  -0.048405  -0.054544  0  3.881265  0
C  C121  1  0.67079757  0.69094668  0.00280047  1  0.279141  0  -0.048338  -0.054435  0  3.881057  0
C  C122  1  0.39496311  0.37675155  0.03386000  1  0.005214  0  -0.166028  -0.174094  0  3.945006  0
C  C123  1  0.60498537  0.62324117  0.96613296  1  0.004941  0  -0.165822  -0.173989  0  3.944864  0
C  C124  1  0.06456964  0.74344530  0.32709495  1  0.015981  0  -0.01677  -0.023495  0  3.979734  0
C  C125  1  0.93552507  0.25654233  0.67296652  1  0.011232  0  -0.016887  -0.023411  0  3.980506  0
C  C126  1  0.22950808  0.71808266  0.86884108  1  0.035535  0  -0.010611  -0.007761  0  3.955776  0
C  C127  1  0.77044004  0.28186513  0.13116175  1  0.037042  0  -0.010297  -0.007543  0  3.955739  0
C  C128  1  0.84813387  0.80622970  0.37680328  1  -0.013763  0  -0.017477  -0.024845  0  3.981963  0
C  C129  1  0.15196903  0.19373866  0.62326426  1  -0.012577  0  -0.017712  -0.025291  0  3.9831  0
C  C130  1  0.84854300  0.70604895  0.42870155  1  0.005875  0  -0.070726  -0.142875  0  3.927489  0
C  C131  1  0.15158595  0.29396533  0.57139470  1  0.004976  0  -0.0702  -0.14263  0  3.927866  0
C  C132  1  0.17528718  0.21616344  0.10046758  1  0.244877  0  -0.000582  -0.108112  0  3.90352  0
C  C133  1  0.82467517  0.78381909  0.89952852  1  0.243598  0  -0.000476  -0.108199  0  3.903677  0
C  C134  1  0.39379107  0.82549825  0.52698930  1  0.961783  0  0.1493  0.102486  0  3.870775  0
C  C135  1  0.60627040  0.17449120  0.47300421  1  0.958669  0  0.149467  0.1026  0  3.870741  0
C  C136  1  0.55514082  0.76623090  0.22593142  1  0.313579  0  -0.001876  -0.041321  0  3.992211  0
C  C137  1  0.44483440  0.23375572  0.77404828  1  0.314059  0  -0.0021  -0.041827  0  3.992908  0
C  C138  1  0.64523729  0.93129113  0.65441293  1  1.337519  0  0.252796  0.529252  0  4.005864  0
C  C139  1  0.35478093  0.06864809  0.34560171  1  1.3372  0  0.252904  0.529414  0  4.005557  0
C  C140  1  0.68352844  0.78111311  0.22524675  1  0.39985  0  0.003977  -0.105198  0  3.925927  0
C  C141  1  0.31644312  0.21888097  0.77474218  1  0.399395  0  0.004057  -0.10485  0  3.926353  0
C  C142  1  0.20696362  0.78275014  0.58603247  1  0.371341  0  -0.006687  -0.051769  0  4.024357  0
C  C143  1  0.79300115  0.21736747  0.41389470  1  0.373729  0  -0.006627  -0.051517  0  4.023849  0
C  C144  1  0.39338176  0.75119198  0.42089518  1  0.247243  0  -0.054723  -0.067759  0  3.863701  0
C  C145  1  0.60666685  0.24890929  0.57905776  1  0.248293  0  -0.054593  -0.06791  0  3.863347  0
C  C146  1  0.48910382  0.56301946  0.49611649  1  0.020276  0  -0.167315  -0.138113  0  3.942405  0
C  C147  1  0.51101614  0.43707670  0.50382828  1  -0.012215  0  -0.167283  -0.138292  0  3.94245  0
C  C148  1  0.21365312  0.75415264  0.52262294  1  0.302188  0  -0.004333  -0.110471  0  3.93898  0
C  C149  1  0.78632509  0.24602141  0.47728591  1  0.297381  0  -0.004271  -0.110493  0  3.939079  0
C  C150  1  0.42068781  0.62471732  0.43066359  1  -0.013012  0  -0.16516  -0.173821  0  3.935994  0
C  C151  1  0.57941591  0.37538567  0.56928792  1  -0.014404  0  -0.165101  -0.17342  0  3.935561  0
C  C152  1  0.79704788  0.91449464  0.55078781  1  0.256534  0  -0.138539  -0.272913  0  3.896605  0
C  C153  1  0.20297539  0.08548358  0.44922367  1  0.255049  0  -0.138506  -0.272908  0  3.896797  0
C  C154  1  0.86940597  0.98742939  0.64118864  1  0.235606  0  -0.133611  -0.273073  0  3.902863  0
C  C155  1  0.13057668  0.01258768  0.35881607  1  0.236181  0  -0.13363  -0.273227  0  3.902637  0
C  C156  1  0.60666841  0.96519776  0.72288274  1  -0.072885  0  -0.242396  -0.529472  0  3.902226  0
C  C157  1  0.39332352  0.03477349  0.27712005  1  -0.073571  0  -0.242277  -0.529228  0  3.902433  0
C  C158  1  0.95645398  0.82459135  0.32659829  1  -0.029654  0  -0.075246  -0.1149  0  3.941099  0
C  C159  1  0.04359705  0.17536960  0.67344643  1  -0.026559  0  -0.075106  -0.114654  0  3.940796  0
C  C160  1  0.16902398  0.10780162  0.13803260  1  0.419486  0  -0.002467  -0.034431  0  4.000173  0
C  C161  1  0.83092725  0.89218441  0.86196123  1  0.420958  0  -0.002499  -0.03447  0  3.999896  0
C  C162  1  0.73257675  0.89459806  0.37628894  1  1.577445  0  0.198979  0.560905  0  4.254159  0
C  C163  1  0.26746237  0.10535049  0.62377040  1  1.579462  0  0.19927  0.561116  0  4.254056  0
N  N164  1  0.26679369  0.03979831  0.10901884  1  -1.241808  0  -0.363534  -0.300378  0  3.618506  0
N  N165  1  0.73316395  0.96019174  0.89098098  1  -1.242237  0  -0.363833  -0.30057  0  3.618323  0
N  N166  1  0.31993414  0.82733793  0.58792102  1  -1.256156  0  -0.363778  -0.304597  0  3.641568  0
N  N167  1  0.68008728  0.17266048  0.41206138  1  -1.258098  0  -0.363782  -0.304673  0  3.641388  0
N  N168  1  0.50003387  0.85084610  0.17393577  1  -1.21931  0  -0.361177  -0.293195  0  3.638674  0
N  N169  1  0.49994750  0.14913716  0.82603892  1  -1.220394  0  -0.361034  -0.292619  0  3.638815  0
N  N170  1  0.27749512  0.21325821  0.04772409  1  -1.226983  0  -0.242145  0.045657  0  3.770509  0
N  N171  1  0.72247520  0.78673163  0.95227886  1  -1.226614  0  -0.242066  0.04611  0  3.770579  0
N  N172  1  0.70583736  0.87531513  0.17229866  1  -1.245536  0  -0.237379  0.055111  0  3.763984  0
N  N173  1  0.29414058  0.12468220  0.82768875  1  -1.245918  0  -0.237321  0.054801  0  3.764251  0
N  N174  1  0.94914341  0.52188906  0.48133008  1  -0.04598  0  0.007429  0.260774  0  3.898714  0
N  N175  1  0.05101524  0.47813880  0.51878357  1  -0.025863  0  0.008  0.261562  0  3.899839  0
N  N176  1  0.04587133  0.51723202  0.01453531  1  -0.034842  0  0.007473  0.249721  0  3.876919  0
N  N177  1  0.95402642  0.48275633  0.98547138  1  -0.012654  0  0.008041  0.249976  0  3.876266  0
N  N178  1  0.33231859  0.78157834  0.48613328  1  -1.238149  0  -0.243062  0.045341  0  3.75966  0
N  N179  1  0.66771832  0.21851481  0.51381627  1  -1.235196  0  -0.243441  0.044973  0  3.760089  0
N  N180  1  0.76365929  0.94490998  0.61845463  1  -1.188753  0  -0.272212  -0.013914  0  3.634045  0
N  N181  1  0.23634284  0.05508189  0.38154963  1  -1.188681  0  -0.272016  -0.013525  0  3.633732  0
O  O182  1  0.26975745  0.77732922  0.09557557  1  -1.1663  0  -0.328654  -0.536289  0  2.321736  0
O  O183  1  0.73018621  0.22265525  0.90441909  1  -1.16607  0  -0.32864  -0.536079  0  2.321016  0
O  O184  1  0.17447072  0.86191740  0.23017131  1  -1.177504  0  -0.341614  -0.569186  0  2.337304  0
O  O185  1  0.82555640  0.13805482  0.76985662  1  -1.17715  0  -0.342014  -0.569695  0  2.337206  0
O  O186  1  0.38445794  0.87568968  0.99993660  1  -1.196994  0  -0.325047  -0.579087  0  2.19892  0
O  O187  1  0.61550719  0.12426954  0.00006053  1  -1.197409  0  -0.325055  -0.579094  0  2.198932  0
O  O188  1  0.27656803  0.68959125  0.27403907  1  -1.158058  0  -0.319385  -0.531745  0  2.09793  0
O  O189  1  0.72343581  0.31034495  0.72596341  1  -1.157181  0  -0.319484  -0.531886  0  2.097473  0
O  O190  1  0.36245107  0.79687270  0.76582699  1  -1.165994  0  -0.344726  -0.57717  0  2.295666  0
O  O191  1  0.63759213  0.20295996  0.23416946  1  -1.165158  0  -0.344649  -0.576947  0  2.295517  0
O  O192  1  0.56272487  0.89031095  0.62955314  1  -1.159992  0  -0.304886  -0.51627  0  2.327565  0
O  O193  1  0.43732460  0.10956370  0.37048231  1  -1.160029  0  -0.305108  -0.516515  0  2.327534  0
O  O194  1  0.16618172  0.75022459  0.75251101  1  -1.1715  0  -0.332308  -0.548408  0  2.067573  0
O  O195  1  0.83379299  0.24977528  0.24747522  1  -1.170976  0  -0.332458  -0.548715  0  2.067248  0
O  O196  1  0.06685705  0.47445062  0.07891395  1  -0.52961  0  -0.173626  -0.383522  0  1.995921  0
O  O197  1  0.93303741  0.52555691  0.92108937  1  -0.530046  0  -0.173627  -0.383397  0  1.995314  0
O  O198  1  0.84445073  0.47603820  0.49170778  1  -0.51678  0  -0.175882  -0.395051  0  2.001209  0
O  O199  1  0.15570568  0.52397245  0.50837883  1  -0.516354  0  -0.175895  -0.395269  0  2.001944  0
O  O200  1  0.64205716  0.88104588  0.42543342  1  -1.172765  0  -0.319276  -0.559487  0  2.194929  0
O  O201  1  0.35801762  0.11888964  0.57463499  1  -1.174167  0  -0.319663  -0.559659  0  2.19462  0
O  O202  1  0.73850571  0.98063156  0.32318309  1  -1.184554  0  -0.33712  -0.570001  0  2.330047  0
O  O203  1  0.26150692  0.01928506  0.67686362  1  -1.18537  0  -0.336991  -0.569982  0  2.329053  0
