# generated using pymatgen
data_CuH24C28(N2O)5
_symmetry_space_group_name_H-M   'P 1'
_cell_length_a   10.15487115
_cell_length_b   12.12538775
_cell_length_c   13.66500000
_cell_angle_alpha   62.47156501
_cell_angle_beta   77.03519846
_cell_angle_gamma   72.43678201
_symmetry_Int_Tables_number   1
_chemical_formula_structural   CuH24C28(N2O)5
_chemical_formula_sum   'Cu2 H48 C56 N20 O10'
_cell_volume   1415.35194217
_cell_formula_units_Z   2
loop_
 _symmetry_equiv_pos_site_id
 _symmetry_equiv_pos_as_xyz
  1  'x, y, z'
loop_
 _atom_site_type_symbol
 _atom_site_label
 _atom_site_symmetry_multiplicity
 _atom_site_fract_x
 _atom_site_fract_y
 _atom_site_fract_z
 _atom_site_occupancy
 _atom_site_pbe_bader_charge
 _atom_site_pbe_bader_spin_density
 _atom_site_pbe_cm5_charge
 _atom_site_pbe_ddec_charge
 _atom_site_pbe_ddec_spin_density
 _atom_site_pbe_ddec_sum_bond_order
 _atom_site_pbe_magmom
Cu  Cu0  1  0.61106667  0.51994953  0.75073286  1  1.076463  0.581696  0.73647  0.790145  0.764629  2.254137  0.58
Cu  Cu1  1  0.38893975  0.48004543  0.24926828  1  1.076445  -0.581759  0.736491  0.79018  -0.764633  2.254227  -0.58
H  H2  1  0.56403052  0.65213802  0.49454977  1  0.574031  -0.000106  0.298714  0.381942  -3.1e-05  0.913963  0.0
H  H3  1  0.43597049  0.34785026  0.50545575  1  0.573961  0.000107  0.298713  0.381874  3.1e-05  0.914127  0.0
H  H4  1  0.44483944  0.63488271  0.59217157  1  0.6451  -5.2e-05  0.269694  0.358837  -9.3e-05  0.99979  0.0
H  H5  1  0.55516068  0.36511321  0.40783389  1  0.645144  5.2e-05  0.269743  0.358934  9.3e-05  0.999667  0.0
H  H6  1  0.06718968  0.51828133  0.72374037  1  0.110974  0.000619  0.099249  0.100985  0.000497  1.019293  0.0
H  H7  1  0.93281543  0.48171077  0.27627094  1  0.110792  -0.000615  0.099252  0.100942  -0.000495  1.019187  0.0
H  H8  1  0.31322029  0.38246120  0.99180488  1  0.105787  0.000398  0.098536  0.098657  0.000375  1.042344  0.0
H  H9  1  0.68676270  0.61755478  0.00821423  1  0.105826  -0.000391  0.09852  0.098634  -0.000372  1.042304  0.0
H  H10  1  0.11964538  0.29211923  0.12847389  1  0.118468  0.000253  0.093546  0.086781  0.000143  1.063193  0.0
H  H11  1  0.88033678  0.70789198  0.87154000  1  0.118315  -0.00025  0.093515  0.086783  -0.000141  1.063249  0.0
H  H12  1  0.89810271  0.32591327  0.06007688  1  0.076323  -2e-06  0.103185  0.101116  -1e-05  1.016037  0.0
H  H13  1  0.10188338  0.67409029  0.93993218  1  0.076057  6e-06  0.10321  0.101176  1.2e-05  1.016118  0.0
H  H14  1  0.82607737  0.42089774  0.57964435  1  0.138453  0.000394  0.145272  0.116675  0.000101  0.96797  0.0
H  H15  1  0.17392364  0.57909054  0.42036044  1  0.138372  -0.000391  0.14526  0.11668  -9.9e-05  0.968011  0.0
H  H16  1  0.47723546  0.29152972  0.78953331  1  0.167727  0.000689  0.121252  0.118215  0.000278  1.034484  0.001
H  H17  1  0.52275574  0.70847766  0.21046015  1  0.167708  -0.000688  0.121252  0.118213  -0.000277  1.034464  -0.001
H  H18  1  0.59025109  0.14684213  0.67024247  1  0.134391  0.000947  0.128279  0.12784  0.000487  1.021962  0.0
H  H19  1  0.40974088  0.85314998  0.32976299  1  0.134584  -0.000946  0.128292  0.127785  -0.000487  1.022168  0.0
H  H20  1  0.88498646  0.28540438  0.46733945  1  0.126763  2.4e-05  0.141781  0.116628  1.7e-05  0.953803  0.0
H  H21  1  0.11500147  0.71458772  0.53265936  1  0.126772  -2.3e-05  0.141751  0.116486  -1.6e-05  0.954018  0.0
H  H22  1  0.75704840  0.20495411  0.48205502  1  0.149318  0.000209  0.13511  0.107913  0.000104  1.001203  0.0
H  H23  1  0.24294316  0.79502748  0.51795921  1  0.14953  -0.000208  0.135094  0.107848  -0.000103  1.00123  0.0
H  H24  1  0.24548106  0.75822188  0.72228300  1  0.117186  -5.6e-05  0.108747  0.122988  -5.3e-05  1.008506  0.0
H  H25  1  0.75454557  0.24178933  0.27769567  1  0.117037  5.8e-05  0.108728  0.12298  5.4e-05  1.008221  0.0
H  H26  1  0.43261691  0.87910269  0.64088172  1  0.091381  -2.9e-05  0.097711  0.099816  -1.1e-05  1.046633  0.0
H  H27  1  0.56739997  0.12091521  0.35909071  1  0.091382  3e-05  0.09769  0.099912  1.2e-05  1.0465  0.0
H  H28  1  0.37778081  0.11437902  0.53324613  1  0.114896  1e-05  0.103485  0.114943  -3e-06  1.004366  0.0
H  H29  1  0.62222959  0.88564461  0.46672649  1  0.115219  -9e-06  0.103522  0.114958  3e-06  1.004531  0.0
H  H30  1  0.13566945  0.23739907  0.49716372  1  0.038227  1.8e-05  0.107649  0.117933  1.1e-05  0.99464  0.0
H  H31  1  0.86432460  0.76261310  0.50281853  1  0.038329  -1.5e-05  0.107719  0.118019  -9e-06  0.994801  0.0
H  H32  1  0.40946890  0.63184631  0.92211159  1  0.201666  0.00037  0.14253  0.130022  0.000107  1.008895  0.0
H  H33  1  0.59053157  0.36815630  0.07788375  1  0.201635  -0.000366  0.142513  0.130004  -0.000104  1.008898  0.0
H  H34  1  0.73879575  0.75921841  0.68000793  1  0.147611  0.000752  0.121435  0.116946  0.000314  1.019982  0.001
H  H35  1  0.26121798  0.24077561  0.31999165  1  0.147671  -0.000749  0.121428  0.116901  -0.000312  1.020036  -0.001
H  H36  1  0.64279118  0.91665067  0.78880702  1  0.114077  0.001075  0.123808  0.117798  0.000559  1.040655  0.001
H  H37  1  0.35721333  0.08335194  0.21118984  1  0.114102  -0.001074  0.123781  0.117768  -0.000559  1.040794  -0.001
H  H38  1  0.36439090  0.77192389  0.01825242  1  0.183504  2.3e-05  0.141067  0.130391  1e-06  0.985244  0.0
H  H39  1  0.63560417  0.22807203  0.98174363  1  0.183481  -2.1e-05  0.141057  0.13039  0.0  0.98525  0.0
H  H40  1  0.49890670  0.85150852  0.99743113  1  0.127171  0.000317  0.135173  0.102422  0.000185  0.968989  0.0
H  H41  1  0.50109063  0.14848644  0.00257152  1  0.127115  -0.000316  0.13517  0.102416  -0.000184  0.968978  0.0
H  H42  1  0.12745518  0.81576633  0.96628689  1  0.105743  4.2e-05  0.102468  0.112519  2.2e-05  1.072777  0.0
H  H43  1  0.87254167  0.18423054  0.03371360  1  0.105768  -3.9e-05  0.102452  0.112446  -2e-05  1.072962  0.0
H  H44  1  0.88885473  0.93096799  0.90781056  1  0.075874  8e-06  0.100185  0.101045  7e-06  0.998218  0.0
H  H45  1  0.11114324  0.06903653  0.09218587  1  0.075826  -6e-06  0.100182  0.101065  -6e-06  0.998125  0.0
H  H46  1  0.82842860  0.16567583  0.80328375  1  0.032766  -4.5e-05  0.093019  0.09054  -3.6e-05  1.052765  0.0
H  H47  1  0.17157365  0.83432774  0.19671309  1  0.032805  4.7e-05  0.093046  0.090623  3.7e-05  1.052631  0.0
H  H48  1  0.00600732  0.29497697  0.74407966  1  0.079036  2.7e-05  0.103077  0.112666  5.3e-05  1.025669  0.0
H  H49  1  0.99399940  0.70502087  0.25591367  1  0.07894  -2.4e-05  0.103098  0.112718  -5.2e-05  1.025663  0.0
C  C50  1  0.83497214  0.43471728  0.85141732  1  1.53448  -0.001225  0.193853  0.559896  0.000132  4.209982  -0.003
C  C51  1  0.16502412  0.56529011  0.14858555  1  1.534571  0.00122  0.193926  0.559864  -0.000137  4.210102  0.003
C  C52  1  0.31868393  0.50972438  0.77036264  1  1.514382  -0.000317  0.205686  0.566622  0.001052  4.21552  -0.002
C  C53  1  0.68130994  0.49027632  0.22965215  1  1.514449  0.00031  0.205621  0.566472  -0.001059  4.215204  0.002
C  C54  1  0.96992274  0.42010472  0.88780722  1  -0.051766  0.009519  -0.020644  -0.041338  0.006768  3.970823  0.008
C  C55  1  0.03007649  0.57989884  0.11219891  1  -0.052264  -0.009519  -0.020668  -0.041309  -0.006767  3.971056  -0.008
C  C56  1  0.07863562  0.46885050  0.81217244  1  -0.076619  0.000924  -0.075251  -0.092042  0.000748  3.926425  0.001
C  C57  1  0.92136859  0.53114924  0.18783589  1  -0.075704  -0.00092  -0.075309  -0.092039  -0.000745  3.926413  -0.001
C  C58  1  0.20217392  0.45506823  0.84996719  1  0.052563  0.009928  -0.023158  -0.048734  0.007052  3.986137  0.008
C  C59  1  0.79782601  0.54493247  0.15004658  1  0.05204  -0.009921  -0.023137  -0.048806  -0.007048  3.986189  -0.008
C  C60  1  0.21721081  0.39023182  0.96391737  1  -0.137276  -0.00067  -0.083436  -0.079073  -0.000384  3.942514  -0.001
C  C61  1  0.78277938  0.60977556  0.03609894  1  -0.137052  0.000662  -0.083503  -0.079045  0.000378  3.942511  0.001
C  C62  1  0.10946423  0.34093476  0.03973203  1  -0.047009  0.000956  -0.094494  -0.088832  0.000601  4.008918  0.001
C  C63  1  0.89052019  0.65907550  0.96028041  1  -0.04678  -0.000952  -0.094324  -0.088673  -0.000599  4.008795  -0.001
C  C64  1  0.98571164  0.35784420  0.00160526  1  0.007779  0.000116  -0.075947  -0.06853  9.8e-05  3.943085  0.0
C  C65  1  0.01427974  0.64215841  0.99840184  1  0.008101  -0.000116  -0.07598  -0.068653  -9.8e-05  3.943159  0.0
C  C66  1  0.74594106  0.36751806  0.62113601  1  0.969231  -0.001449  0.148713  0.10071  -0.000221  3.907757  0.0
C  C67  1  0.25405805  0.63247786  0.37886816  1  0.969166  0.00145  0.148647  0.100588  0.000222  3.907976  0.0
C  C68  1  0.56742963  0.29678371  0.72930490  1  0.428693  0.000132  0.001223  -0.02643  0.000574  3.989829  0.0
C  C69  1  0.43256579  0.70321890  0.27069494  1  0.428868  -0.000135  0.001273  -0.026396  -0.000576  3.989823  0.0
C  C70  1  0.62137507  0.22441650  0.67062428  1  0.266171  0.003192  0.005426  -0.105018  0.002128  3.934843  0.002
C  C71  1  0.37861952  0.77558133  0.32938058  1  0.266064  -0.003187  0.00537  -0.104979  -0.002124  3.935163  -0.002
C  C72  1  0.82322088  0.21782394  0.52738659  1  0.663228  0.001057  0.070494  0.009517  0.000814  3.856351  0.001
C  C73  1  0.17677430  0.78216338  0.47261956  1  0.662842  -0.001056  0.070587  0.009876  -0.000813  3.856233  -0.001
C  C74  1  0.05502597  0.06450677  0.58963454  1  0.323045  -1e-06  0.102635  0.079023  5e-06  4.052487  0.0
C  C75  1  0.94497432  0.93548437  0.41035821  1  0.323315  2e-06  0.102626  0.079175  -5e-06  4.052247  0.0
C  C76  1  0.08477076  0.93058581  0.65358899  1  0.363583  2.7e-05  0.086437  0.097382  2.5e-05  4.080938  0.0
C  C77  1  0.91524903  0.06940820  0.34640738  1  0.363773  -2.7e-05  0.08633  0.097068  -2.5e-05  4.080854  0.0
C  C78  1  0.22168060  0.86144609  0.67417929  1  -0.034971  -3.9e-05  -0.084212  -0.132623  -3.2e-05  3.954384  0.0
C  C79  1  0.77834305  0.13855270  0.32580350  1  -0.035199  4e-05  -0.084144  -0.132352  3.3e-05  3.953973  0.0
C  C80  1  0.32477347  0.92986445  0.62893342  1  -0.016096  1e-05  -0.095955  -0.089194  1e-05  3.991149  0.0
C  C81  1  0.67524091  0.07013911  0.37104749  1  -0.015993  -1e-05  -0.095932  -0.089541  -1e-05  3.991422  0.0
C  C82  1  0.29361693  0.06417523  0.56637097  1  -0.032094  -1.2e-05  -0.084401  -0.063125  -8e-06  3.972541  0.0
C  C83  1  0.70638538  0.93583215  0.43361039  1  -0.032391  1.3e-05  -0.084476  -0.063003  8e-06  3.972943  0.0
C  C84  1  0.15853401  0.13409842  0.54561946  1  0.027461  5e-06  -0.093975  -0.166158  -1e-06  4.014207  0.0
C  C85  1  0.84145630  0.86590037  0.45436816  1  0.027416  -4e-06  -0.094001  -0.16625  1e-06  4.014427  0.0
C  C86  1  0.48535108  0.68692572  0.86880847  1  0.97591  -0.001411  0.152183  0.10726  -0.000395  3.851922  0.0
C  C87  1  0.51465111  0.31307402  0.13118996  1  0.975679  0.001412  0.152258  0.107381  0.000396  3.851876  0.0
C  C88  1  0.65492574  0.75706292  0.74506964  1  0.391433  0.001456  0.006569  -0.014294  0.001684  3.966751  0.002
C  C89  1  0.34507997  0.24293491  0.25492898  1  0.391489  -0.001458  0.006533  -0.01427  -0.001685  3.966919  -0.002
C  C90  1  0.60894973  0.83526694  0.79872083  1  0.327056  0.003664  0.005417  -0.105027  0.002494  3.922265  0.003
C  C91  1  0.39105318  0.16472994  0.20127938  1  0.327055  -0.00366  0.00542  -0.104996  -0.002491  3.922684  -0.003
C  C92  1  0.42523654  0.84025244  0.95680999  1  0.625095  0.000953  0.069989  0.000461  0.000755  3.838987  0.001
C  C93  1  0.57476185  0.15974635  0.04319019  1  0.625172  -0.000951  0.069984  0.000492  -0.000753  3.838926  -0.001
C  C94  1  0.19798022  0.99252244  0.88514566  1  0.350698  -1.2e-05  0.104099  0.085174  -6e-06  4.03439  0.0
C  C95  1  0.80201491  0.00747730  0.11485613  1  0.350904  1.4e-05  0.104087  0.08517  6e-06  4.034579  0.0
C  C96  1  0.10062346  0.91854722  0.91696771  1  0.007227  0.0001  -0.093393  -0.157976  6.6e-05  3.99172  0.0
C  C97  1  0.89936745  0.08145730  0.08303137  1  0.007024  -0.0001  -0.093343  -0.157853  -6.7e-05  3.991706  0.0
C  C98  1  0.96869829  0.98438302  0.88466350  1  -0.028907  -2e-06  -0.088518  -0.061895  5e-06  3.993089  0.0
C  C99  1  0.03129671  0.01562532  0.11533260  1  -0.028727  3e-06  -0.088555  -0.061983  -5e-06  3.992809  0.0
C  C100  1  0.93488397  0.11879986  0.82352664  1  0.028946  3e-05  -0.102158  -0.100859  7e-06  4.015841  0.0
C  C101  1  0.06511507  0.88120849  0.17646878  1  0.029114  -3e-05  -0.102178  -0.100888  -7e-06  4.015842  0.0
C  C102  1  0.03248214  0.19162472  0.79083280  1  0.002293  2.1e-05  -0.088921  -0.140978  -1.6e-05  3.96374  0.0
C  C103  1  0.96752089  0.80837980  0.20916352  1  0.002264  -2.2e-05  -0.088971  -0.141137  1.5e-05  3.963999  0.0
C  C104  1  0.16684842  0.12643767  0.82277717  1  0.321709  5.7e-05  0.088206  0.110388  4e-05  4.061326  0.0
C  C105  1  0.83315378  0.87356207  0.17721979  1  0.321484  -5.5e-05  0.088259  0.110483  -4e-05  4.061302  0.0
N  N106  1  0.64576159  0.38578041  0.69747261  1  -1.186138  0.070144  -0.37558  -0.295845  0.048292  3.656185  0.061
N  N107  1  0.35423662  0.61422315  0.30252564  1  -1.18626  -0.070141  -0.375641  -0.295894  -0.048287  3.656275  -0.061
N  N108  1  0.73388935  0.27038576  0.60232866  1  -1.209128  0.00207  -0.240095  0.020774  0.001269  3.779249  0.002
N  N109  1  0.26611190  0.72960157  0.39767794  1  -1.209153  -0.002068  -0.240029  0.020769  -0.001269  3.779418  -0.002
N  N110  1  0.91441525  0.09601921  0.58543378  1  -0.802192  0.000126  -0.140889  0.040465  6.8e-05  3.741752  0.0
N  N111  1  0.08558249  0.90397002  0.41457409  1  -0.802241  -0.000126  -0.140955  0.040222  -6.9e-05  3.741349  0.0
N  N112  1  0.86140086  0.98901119  0.64298441  1  -0.103829  0.000183  -0.078166  -0.08624  0.000122  3.17687  0.0
N  N113  1  0.13861311  0.01098187  0.35702138  1  -0.104014  -0.000181  -0.078092  -0.086155  -0.000121  3.176647  0.0
N  N114  1  0.96207926  0.89022023  0.68406041  1  -0.557221  0.00013  -0.189868  -0.205175  8.1e-05  3.226469  0.0
N  N115  1  0.03794541  0.10977856  0.31594125  1  -0.55707  -0.000127  -0.189836  -0.205042  -8e-05  3.226458  0.0
N  N116  1  0.57703549  0.66570819  0.78923480  1  -1.200949  0.077436  -0.372945  -0.279397  0.053099  3.619063  0.067
N  N117  1  0.42296314  0.33428965  0.21076573  1  -1.200819  -0.077432  -0.372927  -0.279421  -0.053094  3.61912  -0.066
N  N118  1  0.50236294  0.78950119  0.87694876  1  -1.234844  0.00265  -0.242092  0.014288  0.001687  3.769559  0.002
N  N119  1  0.49763325  0.21050238  0.12304983  1  -1.234861  -0.002645  -0.242136  0.014141  -0.001685  3.769868  -0.002
N  N120  1  0.33356572  0.96355244  0.90442000  1  -0.816648  0.000121  -0.14201  0.047862  5.9e-05  3.73545  0.0
N  N121  1  0.66643469  0.03644635  0.09557838  1  -0.816744  -0.000122  -0.142022  0.047879  -6e-05  3.735533  0.0
N  N122  1  0.38334873  0.07264524  0.85540932  1  -0.109188  0.000107  -0.089077  -0.110531  7.3e-05  3.185535  0.0
N  N123  1  0.61665472  0.92735355  0.14458782  1  -0.109096  -0.000103  -0.089035  -0.110501  -7.1e-05  3.185635  0.0
N  N124  1  0.28477597  0.16985876  0.80685312  1  -0.535199  0.000142  -0.193974  -0.207075  7.9e-05  3.224006  0.0
N  N125  1  0.71522700  0.83014194  0.19314258  1  -0.535239  -0.000141  -0.194009  -0.207103  -7.9e-05  3.224038  0.0
O  O126  1  0.81820585  0.50087410  0.74670388  1  -1.114084  0.120917  -0.336494  -0.556868  0.079358  2.241779  0.108
O  O127  1  0.18179919  0.49913042  0.25329504  1  -1.114226  -0.120887  -0.336566  -0.556901  -0.079334  2.241939  -0.108
O  O128  1  0.74229019  0.38426795  0.92264846  1  -1.193696  0.001071  -0.329228  -0.585345  0.00041  2.204091  0.002
O  O129  1  0.25770672  0.61573275  0.07734972  1  -1.193678  -0.001061  -0.329244  -0.58535  -0.000405  2.204177  -0.002
O  O130  1  0.31013420  0.56397542  0.66719351  1  -1.172546  0.001543  -0.322707  -0.563833  0.000709  2.192119  0.002
O  O131  1  0.68985795  0.43602815  0.33281965  1  -1.172949  -0.001542  -0.322638  -0.563714  -0.000707  2.191881  -0.002
O  O132  1  0.42307369  0.49589911  0.81758487  1  -1.130375  0.107932  -0.331828  -0.553862  0.071125  2.394284  0.098
O  O133  1  0.57692780  0.50408726  0.18242721  1  -1.130083  -0.107902  -0.331875  -0.553913  -0.071099  2.394299  -0.098
O  O134  1  0.52261530  0.68006946  0.55318652  1  -1.243123  0.000858  -0.602909  -0.789228  0.000647  1.971276  0.002
O  O135  1  0.47738553  0.31992360  0.44681634  1  -1.243087  -0.000851  -0.602925  -0.789207  -0.000644  1.971483  -0.002
