# generated using pymatgen
data_RbH4C12N7O12
_symmetry_space_group_name_H-M   'P 1'
_cell_length_a   11.03337336
_cell_length_b   12.31096946
_cell_length_c   13.27830260
_cell_angle_alpha   90.00000983
_cell_angle_beta   90.00002383
_cell_angle_gamma   94.04568554
_symmetry_Int_Tables_number   1
_chemical_formula_structural   RbH4C12N7O12
_chemical_formula_sum   'Rb4 H16 C48 N28 O48'
_cell_volume   1799.11766043
_cell_formula_units_Z   4
loop_
 _symmetry_equiv_pos_site_id
 _symmetry_equiv_pos_as_xyz
  1  'x, y, z'
loop_
 _atom_site_type_symbol
 _atom_site_label
 _atom_site_symmetry_multiplicity
 _atom_site_fract_x
 _atom_site_fract_y
 _atom_site_fract_z
 _atom_site_occupancy
 _atom_site_hle17_bader_spin_density
 _atom_site_hle17_ddec_charge
 _atom_site_hle17_ddec_spin_density
 _atom_site_hle17_ddec_sum_bond_order
 _atom_site_hle17_magmom
 _atom_site_hse06_10hf_bader_spin_density
 _atom_site_hse06_10hf_ddec_charge
 _atom_site_hse06_10hf_ddec_spin_density
 _atom_site_hse06_10hf_ddec_sum_bond_order
 _atom_site_hse06_10hf_magmom
 _atom_site_hse06_bader_spin_density
 _atom_site_hse06_ddec_charge
 _atom_site_hse06_ddec_spin_density
 _atom_site_hse06_ddec_sum_bond_order
 _atom_site_hse06_magmom
 _atom_site_pbe_bader_spin_density
 _atom_site_pbe_cm5_charge
 _atom_site_pbe_ddec_charge
 _atom_site_pbe_ddec_spin_density
 _atom_site_pbe_ddec_sum_bond_order
 _atom_site_pbe_magmom
Rb  Rb0  1  0.15205460  0.89688174  0.98619618  1  0  0.894073  0  0.507809  0  0  0.821338  0  0.740706  0  0  0.840731  0  0.713297  0  0  0.827625  0.807158  0  0.760174  0
Rb  Rb1  1  0.34794486  0.60311829  0.48619553  1  0  0.894077  0  0.507802  0  0  0.821344  0  0.7407  0  0  0.840739  0  0.713288  0  0  0.827621  0.807164  0  0.760167  0
Rb  Rb2  1  0.84794582  0.10311797  0.01380388  1  0  0.894079  0  0.507802  0  0  0.821346  0  0.740696  0  0  0.840739  0  0.713286  0  0  0.82762  0.807165  0  0.760164  0
Rb  Rb3  1  0.65205472  0.39688222  0.51380377  1  0  0.894076  0  0.507801  0  0  0.821339  0  0.740699  0  0  0.840734  0  0.713287  0  0  0.82762  0.807159  0  0.760166  0
H  H4  1  0.36378545  0.58089136  0.77894154  1  0  0.149402  0  0.945091  0  0  0.146318  0  1.020716  0  0  0.151056  0  1.014875  0  0  0.1314  0.142919  0  1.024754  0
H  H5  1  0.13621389  0.91910862  0.27894162  1  0  0.149417  0  0.945107  0  0  0.146339  0  1.02073  0  0  0.151077  0  1.014888  0  0  0.1314  0.14294  0  1.024768  0
H  H6  1  0.63621406  0.41910834  0.22105777  1  0  0.149423  0  0.945022  0  0  0.146332  0  1.020661  0  0  0.151075  0  1.014825  0  0  0.131404  0.142933  0  1.0247  0
H  H7  1  0.86378478  0.08089189  0.72105768  1  0  0.149409  0  0.945078  0  0  0.146321  0  1.020711  0  0  0.151059  0  1.01487  0  0  0.131403  0.142923  0  1.02475  0
H  H8  1  0.52344920  0.88129722  0.79773465  1  0  0.155655  0  0.929077  0  0  0.155203  0  1.000442  0  0  0.160397  0  0.994135  0  0  0.13029  0.151435  0  1.004925  0
H  H9  1  0.97655139  0.61870311  0.29773481  1  0  0.15562  0  0.929095  0  0  0.155166  0  1.000462  0  0  0.160359  0  0.994155  0  0  0.130271  0.151398  0  1.004946  0
H  H10  1  0.47655128  0.11870330  0.20226465  1  0  0.155675  0  0.929104  0  0  0.15521  0  1.000472  0  0  0.160403  0  0.994165  0  0  0.130293  0.151443  0  1.004955  0
H  H11  1  0.02345084  0.38129659  0.70226901  1  0  0.155641  0  0.929119  0  0  0.155178  0  1.000496  0  0  0.16037  0  0.994192  0  0  0.130271  0.151411  0  1.004978  0
H  H12  1  0.10821132  0.41913105  0.98558084  1  0  0.145023  0  0.954875  0  0  0.146079  0  1.027316  0  0  0.150592  0  1.021855  0  0  0.12574  0.142887  0  1.031059  0
H  H13  1  0.39178830  0.08086972  0.48558096  1  0  0.145038  0  0.954858  0  0  0.146089  0  1.027307  0  0  0.150602  0  1.021846  0  0  0.125746  0.142897  0  1.03105  0
H  H14  1  0.89178735  0.58086947  0.01441921  1  0  0.145016  0  0.954905  0  0  0.146072  0  1.027338  0  0  0.150585  0  1.021877  0  0  0.125741  0.142879  0  1.031084  0
H  H15  1  0.60821218  0.91913079  0.51441984  1  0  0.14501  0  0.954902  0  0  0.146063  0  1.027343  0  0  0.150576  0  1.021883  0  0  0.125739  0.14287  0  1.03109  0
H  H16  1  0.19886209  0.94501315  0.63349524  1  0  0.143075  0  0.934722  0  0  0.146164  0  0.999753  0  0  0.150566  0  0.995048  0  0  0.128714  0.142923  0  1.003114  0
H  H17  1  0.30113808  0.55498680  0.13349532  1  0  0.143078  0  0.934708  0  0  0.146169  0  0.999739  0  0  0.15057  0  0.995034  0  0  0.128721  0.142927  0  1.003101  0
H  H18  1  0.80113742  0.05498655  0.36650407  1  0  0.143052  0  0.934721  0  0  0.146137  0  0.999767  0  0  0.150537  0  0.995065  0  0  0.128693  0.142895  0  1.003129  0
H  H19  1  0.69886149  0.44501372  0.86650473  1  0  0.143113  0  0.93469  0  0  0.146174  0  0.999758  0  0  0.150574  0  0.995054  0  0  0.128725  0.142933  0  1.003119  0
C  C20  1  0.37197658  0.12033286  0.78949330  1  0  0.251287  0  3.815615  0  0  0.225395  0  4.0856  0  0  0.247322  0  4.100746  0  0  0.165394  0.21125  0  4.074937  0
C  C21  1  0.12802384  0.37966787  0.28949263  1  0  0.251246  0  3.815649  0  0  0.22534  0  4.085663  0  0  0.247265  0  4.100811  0  0  0.165329  0.211196  0  4.074999  0
C  C22  1  0.62802293  0.87966684  0.21050751  1  0  0.251279  0  3.815633  0  0  0.225373  0  4.085631  0  0  0.247301  0  4.100776  0  0  0.165367  0.21123  0  4.074968  0
C  C23  1  0.87197755  0.62033265  0.71050818  1  0  0.251263  0  3.815551  0  0  0.225373  0  4.085533  0  0  0.2473  0  4.100677  0  0  0.165368  0.211229  0  4.07487  0
C  C24  1  0.18436964  0.41659473  0.93372408  1  0  -0.077961  0  3.676365  0  0  -0.122014  0  3.95093  0  0  -0.111973  0  3.966407  0  0  -0.056287  -0.128031  0  3.940099  0
C  C25  1  0.31562989  0.08340522  0.43372417  1  0  -0.077979  0  3.676356  0  0  -0.12202  0  3.950924  0  0  -0.11198  0  3.966403  0  0  -0.05629  -0.128038  0  3.940093  0
C  C26  1  0.81562994  0.58340579  0.06627598  1  0  -0.077923  0  3.676355  0  0  -0.121974  0  3.950904  0  0  -0.111933  0  3.966383  0  0  -0.056259  -0.127992  0  3.940073  0
C  C27  1  0.68436962  0.91659448  0.56627588  1  0  -0.07791  0  3.676324  0  0  -0.121953  0  3.950899  0  0  -0.111914  0  3.966382  0  0  -0.056253  -0.127971  0  3.940068  0
C  C28  1  0.45568474  0.93682568  0.77517604  1  0  -0.083613  0  3.684908  0  0  -0.125735  0  3.952584  0  0  -0.115523  0  3.967225  0  0  -0.053348  -0.131716  0  3.942335  0
C  C29  1  0.04431551  0.56317430  0.27517604  1  0  -0.083589  0  3.684892  0  0  -0.125695  0  3.952571  0  0  -0.115483  0  3.967214  0  0  -0.053346  -0.131675  0  3.94232  0
C  C30  1  0.54431484  0.06317483  0.22482326  1  0  -0.083621  0  3.684936  0  0  -0.125708  0  3.952549  0  0  -0.115497  0  3.967194  0  0  -0.053325  -0.131689  0  3.942299  0
C  C31  1  0.95568582  0.43682540  0.72482552  1  0  -0.083581  0  3.684913  0  0  -0.125668  0  3.952529  0  0  -0.115464  0  3.967179  0  0  -0.053323  -0.13165  0  3.942282  0
C  C32  1  0.23070983  0.31765509  0.91186812  1  0  0.004621  0  3.593852  0  0  -0.016254  0  3.849983  0  0  -0.028853  0  3.870756  0  0  0.083364  -0.008443  0  3.836249  0
C  C33  1  0.26928969  0.18234486  0.41186822  1  0  0.004623  0  3.59385  0  0  -0.016259  0  3.849969  0  0  -0.028858  0  3.870741  0  0  0.083364  -0.008448  0  3.836235  0
C  C34  1  0.76928968  0.68234462  0.08813193  1  0  0.004623  0  3.593903  0  0  -0.016252  0  3.850037  0  0  -0.028852  0  3.870809  0  0  0.083373  -0.008442  0  3.836303  0
C  C35  1  0.73070983  0.81765485  0.58813184  1  0  0.00463  0  3.593881  0  0  -0.016239  0  3.850009  0  0  -0.028838  0  3.870781  0  0  0.083373  -0.008428  0  3.836275  0
C  C36  1  0.45867521  0.04047246  0.81490093  1  0  -0.014079  0  3.599757  0  0  -0.022017  0  3.85868  0  0  -0.034101  0  3.879684  0  0  0.081184  -0.01475  0  3.844763  0
C  C37  1  0.04132517  0.45952746  0.31490099  1  0  -0.014099  0  3.599794  0  0  -0.022026  0  3.858698  0  0  -0.034105  0  3.879695  0  0  0.081177  -0.014759  0  3.844781  0
C  C38  1  0.54132528  0.95952806  0.18509838  1  0  -0.014104  0  3.599813  0  0  -0.022021  0  3.858674  0  0  -0.034106  0  3.879676  0  0  0.081192  -0.014753  0  3.844756  0
C  C39  1  0.95867616  0.54047224  0.68510058  1  0  -0.014091  0  3.599715  0  0  -0.022028  0  3.858607  0  0  -0.034108  0  3.879603  0  0  0.081179  -0.014762  0  3.844691  0
C  C40  1  0.27259750  0.97316251  0.68337964  1  0  -0.083114  0  3.718354  0  0  -0.129484  0  3.997214  0  0  -0.119089  0  4.012049  0  0  -0.058679  -0.135532  0  3.986762  0
C  C41  1  0.22740180  0.52683746  0.18337969  1  0  -0.083091  0  3.7183  0  0  -0.129445  0  3.997191  0  0  -0.119048  0  4.012027  0  0  -0.058674  -0.135493  0  3.986742  0
C  C42  1  0.72740201  0.02683720  0.31662042  1  0  -0.083047  0  3.718308  0  0  -0.129404  0  3.997176  0  0  -0.119007  0  4.01201  0  0  -0.058651  -0.135451  0  3.986727  0
C  C43  1  0.77259869  0.47316306  0.81662111  1  0  -0.083105  0  3.718339  0  0  -0.129454  0  3.997226  0  0  -0.119057  0  4.012056  0  0  -0.058659  -0.135501  0  3.986774  0
C  C44  1  0.27824309  0.07885563  0.71875457  1  0  -0.013599  0  3.601589  0  0  -0.031264  0  3.861641  0  0  -0.043588  0  3.882433  0  0  0.076195  -0.023747  0  3.847704  0
C  C45  1  0.22175542  0.42114427  0.21875318  1  0  -0.013542  0  3.601527  0  0  -0.031224  0  3.86161  0  0  -0.043547  0  3.882401  0  0  0.076226  -0.023711  0  3.847682  0
C  C46  1  0.72175551  0.92114407  0.28124548  1  0  -0.013565  0  3.601571  0  0  -0.031265  0  3.861675  0  0  -0.043589  0  3.882466  0  0  0.076205  -0.023753  0  3.847747  0
C  C47  1  0.77824319  0.57885543  0.78124537  1  0  -0.013565  0  3.601572  0  0  -0.031257  0  3.861654  0  0  -0.043581  0  3.882445  0  0  0.076192  -0.023742  0  3.847719  0
C  C48  1  0.33094587  0.30693166  0.84261305  1  0  0.264093  0  3.802291  0  0  0.235696  0  4.073641  0  0  0.25887  0  4.087599  0  0  0.168267  0.220499  0  4.064057  0
C  C49  1  0.16905361  0.19306827  0.34261311  1  0  0.264074  0  3.802321  0  0  0.235674  0  4.073677  0  0  0.258847  0  4.087636  0  0  0.168251  0.220476  0  4.064094  0
C  C50  1  0.66905273  0.69306805  0.15738625  1  0  0.264114  0  3.802335  0  0  0.235681  0  4.07372  0  0  0.258855  0  4.087677  0  0  0.168258  0.220483  0  4.064137  0
C  C51  1  0.83094681  0.80693143  0.65738694  1  0  0.264119  0  3.802371  0  0  0.235688  0  4.073744  0  0  0.258863  0  4.087699  0  0  0.168291  0.220491  0  4.06416  0
C  C52  1  0.36084951  0.90300550  0.71024302  1  0  0.064903  0  3.742724  0  0  0.045756  0  4.002485  0  0  0.032801  0  4.027672  0  0  0.071148  0.053816  0  3.985526  0
C  C53  1  0.13915071  0.59699447  0.21024306  1  0  0.064931  0  3.742648  0  0  0.045734  0  4.00248  0  0  0.032772  0  4.027677  0  0  0.071192  0.053796  0  3.985519  0
C  C54  1  0.63915000  0.09699420  0.28975628  1  0  0.064901  0  3.742645  0  0  0.045742  0  4.002402  0  0  0.032786  0  4.027587  0  0  0.071165  0.053803  0  3.985443  0
C  C55  1  0.86085159  0.40300605  0.78975926  1  0  0.064871  0  3.742743  0  0  0.045726  0  4.002498  0  0  0.032774  0  4.027675  0  0  0.071127  0.053786  0  3.985538  0
C  C56  1  0.23348049  0.51109777  0.88713380  1  0  0.063317  0  3.720876  0  0  0.049546  0  3.983361  0  0  0.037433  0  4.007999  0  0  0.073304  0.057176  0  3.96659  0
C  C57  1  0.26651891  0.98890224  0.38713394  1  0  0.063339  0  3.720893  0  0  0.049541  0  3.983427  0  0  0.037431  0  4.008064  0  0  0.073297  0.057173  0  3.966655  0
C  C58  1  0.76651818  0.48890275  0.11286625  1  0  0.063324  0  3.720775  0  0  0.049577  0  3.983244  0  0  0.037465  0  4.007883  0  0  0.073278  0.057208  0  3.966473  0
C  C59  1  0.73348060  0.01109746  0.61286611  1  0  0.063321  0  3.720761  0  0  0.049515  0  3.983292  0  0  0.037401  0  4.007932  0  0  0.073255  0.057146  0  3.966522  0
C  C60  1  0.32730770  0.50752683  0.81711056  1  0  -0.049951  0  3.662722  0  0  -0.092513  0  3.928826  0  0  -0.080199  0  3.93958  0  0  -0.044525  -0.099943  0  3.921148  0
C  C61  1  0.17269257  0.99247317  0.31710992  1  0  -0.049977  0  3.662725  0  0  -0.092552  0  3.928859  0  0  -0.080238  0  3.939612  0  0  -0.04454  -0.099981  0  3.921179  0
C  C62  1  0.67269188  0.49247369  0.18288950  1  0  -0.049986  0  3.662671  0  0  -0.092568  0  3.928772  0  0  -0.080264  0  3.939533  0  0  -0.04454  -0.099998  0  3.921095  0
C  C63  1  0.82730784  0.00752654  0.68288939  1  0  -0.049951  0  3.6627  0  0  -0.092498  0  3.928788  0  0  -0.080184  0  3.939542  0  0  -0.044513  -0.099928  0  3.921109  0
C  C64  1  0.37436477  0.40919889  0.79683990  1  0  0.002942  0  3.587108  0  0  -0.001712  0  3.838498  0  0  -0.013699  0  3.857327  0  0  0.091402  0.005463  0  3.826213  0
C  C65  1  0.12563475  0.09080184  0.29683993  1  0  0.002951  0  3.587078  0  0  -0.001695  0  3.838468  0  0  -0.013681  0  3.857296  0  0  0.091424  0.00548  0  3.826183  0
C  C66  1  0.62563390  0.59080163  0.20315940  1  0  0.00293  0  3.587195  0  0  -0.001687  0  3.83856  0  0  -0.013673  0  3.857389  0  0  0.091435  0.005488  0  3.826275  0
C  C67  1  0.87436573  0.90919867  0.70315937  1  0  0.002925  0  3.58719  0  0  -0.001697  0  3.838536  0  0  -0.013684  0  3.857365  0  0  0.091418  0.005479  0  3.82625  0
N  N68  1  0.46850189  0.41115970  0.72084827  1  0  0.530545  0  3.888722  0  0  0.556484  0  4.187438  0  0  0.580008  0  4.195103  0  0  0.036135  0.540772  0  4.182213  0
N  N69  1  0.03149843  0.08884020  0.22084827  1  0  0.530515  0  3.8887  0  0  0.556452  0  4.187419  0  0  0.579977  0  4.195085  0  0  0.036133  0.540742  0  4.182195  0
N  N70  1  0.53149853  0.58884000  0.27915178  1  0  0.530543  0  3.888683  0  0  0.556475  0  4.187398  0  0  0.58  0  4.195062  0  0  0.036153  0.540764  0  4.182173  0
N  N71  1  0.96850205  0.91116032  0.77915103  1  0  0.530505  0  3.888753  0  0  0.556431  0  4.187478  0  0  0.579957  0  4.195143  0  0  0.036086  0.54072  0  4.182253  0
N  N72  1  0.38500990  0.21778704  0.82608459  1  0  -0.31503  0  3.371825  0  0  -0.288677  0  3.660875  0  0  -0.319762  0  3.679933  0  0  -0.285997  -0.267754  0  3.647246  0
N  N73  1  0.11499048  0.28221289  0.32608464  1  0  -0.315011  0  3.371832  0  0  -0.288668  0  3.660892  0  0  -0.319754  0  3.679953  0  0  -0.285982  -0.267745  0  3.647262  0
N  N74  1  0.61498961  0.78221267  0.17391547  1  0  -0.315037  0  3.371848  0  0  -0.288698  0  3.660915  0  0  -0.319783  0  3.679971  0  0  -0.286009  -0.267775  0  3.647285  0
N  N75  1  0.88501001  0.71778763  0.67391541  1  0  -0.314988  0  3.371813  0  0  -0.288662  0  3.660875  0  0  -0.319748  0  3.679931  0  0  -0.285988  -0.26774  0  3.647246  0
N  N76  1  0.55251259  0.06569952  0.88998509  1  0  0.522589  0  3.898965  0  0  0.548924  0  4.201683  0  0  0.571906  0  4.210292  0  0  0.046527  0.533527  0  4.195935  0
N  N77  1  0.94748725  0.43430076  0.38998453  1  0  0.522519  0  3.898962  0  0  0.548849  0  4.201684  0  0  0.571829  0  4.210293  0  0  0.046491  0.533452  0  4.195936  0
N  N78  1  0.44748693  0.93430019  0.11001497  1  0  0.522534  0  3.898951  0  0  0.548856  0  4.201669  0  0  0.571839  0  4.210276  0  0  0.046489  0.533458  0  4.195921  0
N  N79  1  0.05251408  0.56569894  0.61001628  1  0  0.522524  0  3.898852  0  0  0.548852  0  4.201574  0  0  0.571833  0  4.210182  0  0  0.046506  0.533456  0  4.195826  0
N  N80  1  0.18629536  0.61441063  0.91072643  1  0  0.472204  0  3.957907  0  0  0.518085  0  4.235219  0  0  0.539406  0  4.24724  0  0  0.041115  0.503866  0  4.22706  0
N  N81  1  0.31370406  0.88558938  0.41072657  1  0  0.472235  0  3.957906  0  0  0.518127  0  4.235222  0  0  0.539449  0  4.247243  0  0  0.041165  0.503908  0  4.227063  0
N  N82  1  0.81370422  0.38558989  0.08927363  1  0  0.472241  0  3.957912  0  0  0.518121  0  4.235226  0  0  0.539443  0  4.247245  0  0  0.04114  0.503903  0  4.227066  0
N  N83  1  0.68629552  0.11441114  0.58927349  1  0  0.472244  0  3.957912  0  0  0.518135  0  4.235233  0  0  0.539456  0  4.247255  0  0  0.041166  0.503915  0  4.227074  0
N  N84  1  0.18388277  0.14516341  0.68072109  1  0  0.487325  0  3.941187  0  0  0.540825  0  4.201963  0  0  0.564339  0  4.209697  0  0  0.051574  0.525097  0  4.196759  0
N  N85  1  0.31611669  0.35483729  0.18072047  1  0  0.487251  0  3.941128  0  0  0.540742  0  4.201925  0  0  0.564257  0  4.20966  0  0  0.051549  0.525017  0  4.19672  0
N  N86  1  0.81611674  0.85483629  0.31927897  1  0  0.487262  0  3.941165  0  0  0.540755  0  4.201963  0  0  0.564269  0  4.209699  0  0  0.051554  0.52503  0  4.196758  0
N  N87  1  0.68388288  0.64516323  0.81927808  1  0  0.487212  0  3.941215  0  0  0.540723  0  4.201998  0  0  0.564237  0  4.209734  0  0  0.051541  0.524997  0  4.196792  0
N  N88  1  0.17094483  0.22307137  0.96048275  1  0  0.490287  0  3.947453  0  0  0.555964  0  4.192169  0  0  0.579629  0  4.199171  0  0  0.048585  0.540099  0  4.187581  0
N  N89  1  0.32905556  0.27692777  0.46048288  1  0  0.490254  0  3.947436  0  0  0.555967  0  4.192113  0  0  0.579633  0  4.199113  0  0  0.048589  0.540102  0  4.187525  0
N  N90  1  0.82905469  0.77692834  0.03951730  1  0  0.490263  0  3.947424  0  0  0.555951  0  4.192122  0  0  0.579616  0  4.199123  0  0  0.048591  0.540086  0  4.187533  0
N  N91  1  0.67094486  0.72307193  0.53951717  1  0  0.490244  0  3.947489  0  0  0.555919  0  4.192205  0  0  0.579585  0  4.199206  0  0  0.048561  0.540054  0  4.187616  0
N  N92  1  0.35222640  0.79444050  0.67071311  1  0  0.467057  0  3.987265  0  0  0.530521  0  4.23547  0  0  0.552909  0  4.246386  0  0  0.021356  0.515617  0  4.228054  0
N  N93  1  0.14777386  0.70556028  0.17071317  1  0  0.467014  0  3.9872  0  0  0.530495  0  4.235406  0  0  0.552885  0  4.246321  0  0  0.02134  0.51559  0  4.22799  0
N  N94  1  0.64777318  0.20556002  0.32928619  1  0  0.467019  0  3.987205  0  0  0.530476  0  4.235432  0  0  0.552865  0  4.246346  0  0  0.021324  0.515572  0  4.228016  0
N  N95  1  0.85222662  0.29444024  0.82928764  1  0  0.466999  0  3.98732  0  0  0.530465  0  4.235535  0  0  0.552853  0  4.246451  0  0  0.021354  0.515561  0  4.228118  0
O  O96  1  0.25683933  0.76207289  0.62605377  1  0  -0.381632  0  1.800788  0  0  -0.382508  0  2.01118  0  0  -0.395217  0  2.007606  0  0  -0.191172  -0.373915  0  2.013689  0
O  O97  1  0.24316001  0.73792787  0.12605311  1  0  -0.381648  0  1.800791  0  0  -0.382515  0  2.011172  0  0  -0.395223  0  2.007598  0  0  -0.191188  -0.373922  0  2.013682  0
O  O98  1  0.74316025  0.23792762  0.37394629  1  0  -0.381668  0  1.800745  0  0  -0.382531  0  2.011141  0  0  -0.395236  0  2.00756  0  0  -0.191198  -0.373937  0  2.01365  0
O  O99  1  0.75683957  0.26207265  0.87394619  1  0  -0.381644  0  1.800839  0  0  -0.382502  0  2.011227  0  0  -0.395213  0  2.007659  0  0  -0.191179  -0.373908  0  2.013734  0
O  O100  1  0.10622873  0.23774840  0.03531931  1  0  -0.365478  0  1.807624  0  0  -0.373317  0  2.023925  0  0  -0.386748  0  2.021115  0  0  -0.148253  -0.364287  0  2.025898  0
O  O101  1  0.39377143  0.26225064  0.53531926  1  0  -0.365459  0  1.807654  0  0  -0.373314  0  2.023955  0  0  -0.386747  0  2.021145  0  0  -0.148263  -0.364283  0  2.025928  0
O  O102  1  0.89377169  0.76225130  0.96468075  1  0  -0.36547  0  1.807634  0  0  -0.373303  0  2.023903  0  0  -0.38674  0  2.021107  0  0  -0.148254  -0.364272  0  2.025875  0
O  O103  1  0.60622892  0.73774824  0.46468079  1  0  -0.36548  0  1.807637  0  0  -0.373308  0  2.023938  0  0  -0.386741  0  2.021128  0  0  -0.148251  -0.364278  0  2.02591  0
O  O104  1  0.19754064  0.24594044  0.68935172  1  0  -0.346183  0  1.797597  0  0  -0.337755  0  1.997567  0  0  -0.350128  0  1.994001  0  0  -0.122099  -0.329223  0  2.000142  0
O  O105  1  0.30245967  0.25405945  0.18935183  1  0  -0.346148  0  1.797562  0  0  -0.337709  0  1.997527  0  0  -0.350082  0  1.99396  0  0  -0.12208  -0.329178  0  2.000101  0
O  O106  1  0.80245978  0.75405926  0.31064834  1  0  -0.346158  0  1.797611  0  0  -0.337733  0  1.997577  0  0  -0.350107  0  1.994013  0  0  -0.122093  -0.329202  0  2.000151  0
O  O107  1  0.69754075  0.74594025  0.81064747  1  0  -0.34612  0  1.797628  0  0  -0.337731  0  1.997599  0  0  -0.350103  0  1.994031  0  0  -0.122094  -0.3292  0  2.000173  0
O  O108  1  0.09447152  0.09758549  0.63824651  1  0  -0.360845  0  1.739062  0  0  -0.355663  0  1.929731  0  0  -0.370247  0  1.927103  0  0  -0.142386  -0.345658  0  1.931515  0
O  O109  1  0.40552876  0.40241439  0.13824669  1  0  -0.360801  0  1.739027  0  0  -0.355611  0  1.929697  0  0  -0.370193  0  1.927069  0  0  -0.142364  -0.345603  0  1.931474  0
O  O110  1  0.90552890  0.90241421  0.36175279  1  0  -0.360796  0  1.739019  0  0  -0.355598  0  1.929687  0  0  -0.370181  0  1.927061  0  0  -0.142354  -0.345591  0  1.931466  0
O  O111  1  0.59447081  0.59758613  0.86175261  1  0  -0.360798  0  1.739025  0  0  -0.355592  0  1.929685  0  0  -0.370173  0  1.927058  0  0  -0.142357  -0.345583  0  1.931463  0
O  O112  1  0.46852007  0.48385339  0.65517648  1  0  -0.427989  0  1.807703  0  0  -0.417734  0  2.046867  0  0  -0.433654  0  2.042896  0  0  -0.21132  -0.406765  0  2.049438  0
O  O113  1  0.03147931  0.01614650  0.15517647  1  0  -0.428005  0  1.807682  0  0  -0.417732  0  2.046838  0  0  -0.43365  0  2.042866  0  0  -0.211345  -0.406763  0  2.049409  0
O  O114  1  0.53147944  0.51614632  0.34482357  1  0  -0.428028  0  1.807668  0  0  -0.417742  0  2.046833  0  0  -0.433658  0  2.042858  0  0  -0.211353  -0.406774  0  2.049404  0
O  O115  1  0.96852020  0.98385320  0.84482359  1  0  -0.428022  0  1.807692  0  0  -0.417745  0  2.046887  0  0  -0.433659  0  2.042909  0  0  -0.211324  -0.406775  0  2.049458  0
O  O116  1  0.44080811  0.73738648  0.68142910  1  0  -0.379737  0  1.768472  0  0  -0.374574  0  1.970966  0  0  -0.388137  0  1.968082  0  0  -0.162507  -0.365439  0  1.973029  0
O  O117  1  0.05919209  0.76261348  0.18142913  1  0  -0.379731  0  1.768439  0  0  -0.374568  0  1.970929  0  0  -0.388127  0  1.968042  0  0  -0.162522  -0.365433  0  1.972992  0
O  O118  1  0.55919231  0.26261322  0.31857020  1  0  -0.379707  0  1.768488  0  0  -0.374528  0  1.97098  0  0  -0.388091  0  1.968097  0  0  -0.162486  -0.365393  0  1.973043  0
O  O119  1  0.94080735  0.23738541  0.81857168  1  0  -0.379706  0  1.768503  0  0  -0.374533  0  1.970999  0  0  -0.388092  0  1.968111  0  0  -0.162492  -0.365397  0  1.973061  0
O  O120  1  0.09570653  0.61472819  0.96707623  1  0  -0.377251  0  1.791631  0  0  -0.366748  0  2.008017  0  0  -0.380213  0  2.006448  0  0  -0.146007  -0.357737  0  2.009192  0
O  O121  1  0.40429298  0.88527265  0.46707565  1  0  -0.377253  0  1.791726  0  0  -0.366728  0  2.008073  0  0  -0.380196  0  2.006506  0  0  -0.146014  -0.357719  0  2.009249  0
O  O122  1  0.90429214  0.38527232  0.03292382  1  0  -0.377255  0  1.791742  0  0  -0.366752  0  2.008117  0  0  -0.380218  0  2.006548  0  0  -0.146007  -0.357742  0  2.009291  0
O  O123  1  0.59570751  0.11472787  0.53292365  1  0  -0.377286  0  1.791743  0  0  -0.36676  0  2.008107  0  0  -0.380225  0  2.006538  0  0  -0.146024  -0.35775  0  2.009282  0
O  O124  1  0.54568781  0.34257153  0.72429225  1  0  -0.349473  0  1.779749  0  0  -0.335674  0  1.999422  0  0  -0.347234  0  1.99567  0  0  -0.142122  -0.327581  0  2.001825  0
O  O125  1  0.95431187  0.15742789  0.22429165  1  0  -0.349452  0  1.779751  0  0  -0.335664  0  1.999427  0  0  -0.347223  0  1.995675  0  0  -0.142115  -0.327566  0  2.00182  0
O  O126  1  0.45431171  0.65742817  0.27570781  1  0  -0.349442  0  1.779726  0  0  -0.335677  0  1.999411  0  0  -0.347234  0  1.995653  0  0  -0.142127  -0.327578  0  2.001803  0
O  O127  1  0.04568764  0.84257181  0.77570766  1  0  -0.349415  0  1.779727  0  0  -0.335639  0  1.999399  0  0  -0.347201  0  1.995649  0  0  -0.142097  -0.327546  0  2.001802  0
O  O128  1  0.53205407  0.12961004  0.95917541  1  0  -0.334698  0  1.724486  0  0  -0.32491  0  1.927257  0  0  -0.335274  0  1.923402  0  0  -0.118525  -0.317633  0  1.929925  0
O  O129  1  0.96794580  0.37039025  0.45917560  1  0  -0.33465  0  1.72444  0  0  -0.324861  0  1.927191  0  0  -0.335222  0  1.923337  0  0  -0.118502  -0.317587  0  1.929868  0
O  O130  1  0.46794551  0.87039048  0.04082389  1  0  -0.334635  0  1.724435  0  0  -0.324866  0  1.927199  0  0  -0.335229  0  1.923343  0  0  -0.118507  -0.317593  0  1.929875  0
O  O131  1  0.03205365  0.62960864  0.54082521  1  0  -0.334651  0  1.724438  0  0  -0.324875  0  1.927193  0  0  -0.335236  0  1.923338  0  0  -0.118508  -0.317598  0  1.929862  0
O  O132  1  0.23896652  0.69863353  0.87481297  1  0  -0.364069  0  1.75587  0  0  -0.354715  0  1.959411  0  0  -0.366508  0  1.95648  0  0  -0.162423  -0.34676  0  1.961516  0
O  O133  1  0.26103287  0.80136647  0.37481308  1  0  -0.364114  0  1.755813  0  0  -0.354767  0  1.959371  0  0  -0.36656  0  1.956439  0  0  -0.162457  -0.346812  0  1.961476  0
O  O134  1  0.76103299  0.30136617  0.12518709  1  0  -0.364144  0  1.755819  0  0  -0.354778  0  1.95937  0  0  -0.366571  0  1.956437  0  0  -0.162459  -0.346823  0  1.961475  0
O  O135  1  0.73896670  0.19863405  0.62518698  1  0  -0.364138  0  1.755811  0  0  -0.354781  0  1.959374  0  0  -0.366572  0  1.956442  0  0  -0.162467  -0.346824  0  1.961478  0
O  O136  1  0.64844335  0.01809478  0.88194793  1  0  -0.403464  0  1.756843  0  0  -0.390139  0  1.97897  0  0  -0.4062  0  1.975953  0  0  -0.187242  -0.379263  0  1.981051  0
O  O137  1  0.85155648  0.48190549  0.38194810  1  0  -0.403428  0  1.756859  0  0  -0.390084  0  1.978976  0  0  -0.406148  0  1.975964  0  0  -0.187212  -0.379209  0  1.981057  0
O  O138  1  0.35155616  0.98190492  0.11805137  1  0  -0.403458  0  1.756838  0  0  -0.390109  0  1.978969  0  0  -0.406171  0  1.975951  0  0  -0.187237  -0.379233  0  1.981051  0
O  O139  1  0.14844394  0.51809421  0.61805120  1  0  -0.403446  0  1.756816  0  0  -0.390106  0  1.978956  0  0  -0.406168  0  1.975939  0  0  -0.187241  -0.379232  0  1.981038  0
O  O140  1  0.18475661  0.13138984  0.92415205  1  0  -0.380237  0  1.821088  0  0  -0.378904  0  2.032267  0  0  -0.391637  0  2.028638  0  0  -0.166416  -0.370344  0  2.03482  0
O  O141  1  0.31524466  0.36860929  0.42415219  1  0  -0.380211  0  1.821039  0  0  -0.378887  0  2.032189  0  0  -0.391621  0  2.028559  0  0  -0.166403  -0.370328  0  2.034743  0
O  O142  1  0.81524381  0.86860986  0.07584801  1  0  -0.380225  0  1.821067  0  0  -0.37889  0  2.032224  0  0  -0.391622  0  2.028594  0  0  -0.166418  -0.37033  0  2.034777  0
O  O143  1  0.68475666  0.63139041  0.57584787  1  0  -0.380207  0  1.821089  0  0  -0.37888  0  2.032265  0  0  -0.391614  0  2.028634  0  0  -0.166404  -0.370321  0  2.034817  0
