# generated using pymatgen
data_MnH15C23N(O2F3)2
_symmetry_space_group_name_H-M   'P 1'
_cell_length_a   7.37341442
_cell_length_b   12.28090090
_cell_length_c   14.45352932
_cell_angle_alpha   105.68345089
_cell_angle_beta   104.84857293
_cell_angle_gamma   89.99425322
_symmetry_Int_Tables_number   1
_chemical_formula_structural   MnH15C23N(O2F3)2
_chemical_formula_sum   'Mn2 H30 C46 N2 O8 F12'
_cell_volume   1214.62407075
_cell_formula_units_Z   2
loop_
 _symmetry_equiv_pos_site_id
 _symmetry_equiv_pos_as_xyz
  1  'x, y, z'
loop_
 _atom_site_type_symbol
 _atom_site_label
 _atom_site_symmetry_multiplicity
 _atom_site_fract_x
 _atom_site_fract_y
 _atom_site_fract_z
 _atom_site_occupancy
 _atom_site_hle17_ddec_charge
 _atom_site_hle17_ddec_spin_density
 _atom_site_hle17_ddec_sum_bond_order
 _atom_site_hle17_magmom
 _atom_site_hse06_10hf_ddec_charge
 _atom_site_hse06_10hf_ddec_spin_density
 _atom_site_hse06_10hf_ddec_sum_bond_order
 _atom_site_hse06_10hf_magmom
 _atom_site_hse06_ddec_charge
 _atom_site_hse06_ddec_spin_density
 _atom_site_hse06_ddec_sum_bond_order
 _atom_site_hse06_magmom
 _atom_site_pbe_cm5_charge
 _atom_site_pbe_ddec_charge
 _atom_site_pbe_ddec_spin_density
 _atom_site_pbe_ddec_sum_bond_order
 _atom_site_pbe_magmom
Mn  Mn0  1  0.16550183  0.00006669  0.00010053  1  1.124535  -4.769163  1.919998  -4.654  0.970558  -4.673518  2.423822  -4.496  1.018955  -4.731566  2.359697  -4.574  0.637674  0.935099  -4.606603  2.471099  -4.409
Mn  Mn1  1  0.68049267  0.00027323  0.99993722  1  1.178571  -4.80967  1.686035  -4.671  1.022285  -4.740417  2.174158  -4.536  1.091174  -4.782393  2.096644  -4.6  0.59247  0.968135  -4.696857  2.23207  -4.471
H  H2  1  0.49809825  0.67771942  0.75424931  1  0.107877  0.000259  0.93355  0.0  0.116894  7.1e-05  0.991712  0.0  0.121113  0.000141  0.988384  0.0  0.106307  0.113677  -9e-06  0.994366  0.0
H  H3  1  0.74443329  0.32256682  0.24643924  1  0.107701  0.000258  0.933401  0.0  0.116724  7.1e-05  0.991567  0.0  0.120956  0.00014  0.988238  0.0  0.105982  0.113507  -9e-06  0.994231  0.0
H  H4  1  0.33051991  0.49829186  0.64132606  1  0.099124  -4.5e-05  0.976231  0.0  0.101933  2.4e-05  1.049407  0.0  0.10608  1.8e-05  1.045808  0.0  0.088985  0.098909  2.9e-05  1.05212  0.0
H  H5  1  0.68919256  0.50185870  0.35906989  1  0.098084  -4.6e-05  0.978237  0.0  0.100984  2.4e-05  1.051432  0.0  0.105129  1.8e-05  1.0478  0.0  0.088688  0.097948  2.9e-05  1.05419  0.0
H  H6  1  0.92978901  0.52842858  0.81736752  1  0.102653  -7.5e-05  0.93968  0.0  0.114679  -2.2e-05  0.993489  0.0  0.117648  -1.5e-05  0.99272  0.0  0.103538  0.112518  -4.1e-05  0.994223  0.0
H  H7  1  0.11231201  0.47129721  0.18203530  1  0.102768  -7.5e-05  0.939218  0.0  0.114838  -2.2e-05  0.992934  0.0  0.117739  -1.5e-05  0.992275  0.0  0.103635  0.112712  -4.1e-05  0.993626  0.0
H  H8  1  0.09346944  0.71207485  0.92583303  1  0.109049  0.000759  0.966584  0.0  0.116027  0.000666  1.031128  0.0  0.119729  0.000714  1.0286  0.0  0.108121  0.113189  0.000598  1.033195  0.0
H  H9  1  0.16809808  0.28773131  0.07383450  1  0.108281  0.000766  0.967175  0.0  0.115086  0.000669  1.031887  0.0  0.118689  0.000717  1.029437  0.0  0.107728  0.112325  0.000601  1.033894  0.0
H  H10  1  0.23048312  0.34234475  0.81601316  1  0.104067  -6.2e-05  0.939848  0.0  0.116132  -2.1e-05  0.992906  0.0  0.11927  -1.4e-05  0.99189  0.0  0.103877  0.113872  -4e-05  0.993787  0.0
H  H11  1  0.41394868  0.65742311  0.18388950  1  0.10373  -6.2e-05  0.939421  0.0  0.116404  -2.1e-05  0.991971  0.0  0.119473  -1.4e-05  0.991044  0.0  0.103813  0.114172  -3.9e-05  0.992816  0.0
H  H12  1  0.16064125  0.22663222  0.92025284  1  0.112034  0.000813  0.978597  0.0  0.118456  0.000712  1.043655  0.0  0.122266  0.000764  1.040945  0.0  0.108177  0.115557  0.000641  1.045804  0.0
H  H13  1  0.23980765  0.77309492  0.07951878  1  0.113098  0.000807  0.9775  0.0  0.119077  0.000706  1.042958  0.0  0.122869  0.000758  1.04029  0.0  0.108201  0.116182  0.000635  1.045083  0.0
H  H14  1  0.58313567  0.17182752  0.74746127  1  0.104138  0.000193  0.950956  0.0  0.111287  9e-06  1.014343  0.0  0.115328  7.7e-05  1.011291  0.0  0.10429  0.108229  -6.5e-05  1.016759  0.0
H  H15  1  0.83540912  0.82824347  0.25202388  1  0.103401  0.000191  0.952142  0.0  0.11082  5e-06  1.015234  0.0  0.114665  7.3e-05  1.012396  0.0  0.104243  0.107901  -7e-05  1.017484  0.0
H  H16  1  0.65227191  0.28100062  0.63857528  1  0.093711  -3.6e-05  0.977001  0.0  0.09683  2.5e-05  1.05009  0.0  0.100929  2.1e-05  1.046519  0.0  0.089841  0.093831  3e-05  1.052798  0.0
H  H17  1  0.01348703  0.71899707  0.36101472  1  0.094099  -3.6e-05  0.977428  0.0  0.09736  2.1e-05  1.050327  0.0  0.101461  1.8e-05  1.04677  0.0  0.090389  0.094339  2.3e-05  1.053051  0.0
H  H18  1  0.83848187  0.85390056  0.83296286  1  0.092658  -0.000204  0.950051  0.0  0.1001  -0.000802  1.01702  -0.001  0.10295  -0.000531  1.013984  -0.001  0.122691  0.098134  -0.001056  1.01913  -0.001
H  H19  1  0.00587219  0.14603101  0.16694053  1  0.093125  -0.000216  0.951073  0.0  0.100315  -0.000823  1.018302  -0.001  0.103133  -0.00055  1.01532  -0.001  0.123179  0.09835  -0.001079  1.020407  -0.001
H  H20  1  0.73713236  0.78154311  0.64728000  1  0.102436  -0.000202  0.959942  0.0  0.11088  -0.000214  1.020134  0.0  0.114381  -0.000164  1.018075  0.0  0.100186  0.108522  -0.000262  1.021565  0.0
H  H21  1  0.09023183  0.21843907  0.35257243  1  0.101725  -0.000198  0.960207  0.0  0.110511  -0.00021  1.020097  0.0  0.113973  -0.000162  1.018102  0.0  0.099903  0.108192  -0.000256  1.021466  0.0
H  H22  1  0.93993473  0.83411958  0.54807668  1  0.091202  7.4e-05  0.943395  0.0  0.101804  -2.8e-05  1.004842  0.0  0.10498  -9e-06  1.001974  0.0  0.099693  0.099597  -4.9e-05  1.006791  0.0
H  H23  1  0.39241820  0.16589130  0.45212523  1  0.090691  7.2e-05  0.944115  0.0  0.101499  -3.1e-05  1.005295  0.0  0.104657  -1.1e-05  1.002435  0.0  0.099345  0.099298  -5.2e-05  1.007233  0.0
H  H24  1  0.31578569  0.02737356  0.82567117  1  0.101697  3.5e-05  0.943048  0.0  0.109189  -0.000385  1.009733  -0.001  0.111944  -0.000187  1.007124  0.0  0.124012  0.107294  -0.000572  1.011559  -0.001
H  H25  1  0.49101753  0.97291774  0.17480628  1  0.100716  4.3e-05  0.943567  0.0  0.108369  -0.000369  1.010012  -0.001  0.111137  -0.000174  1.007417  0.0  0.123805  0.106477  -0.000555  1.011825  -0.001
H  H26  1  0.41935860  0.95486438  0.65564343  1  0.120578  0.00014  0.932793  0.0  0.143657  0.000107  0.98875  0.0  0.144784  0.000135  0.988856  0.0  0.097172  0.14282  7.5e-05  0.988692  0.0
H  H27  1  0.76455490  0.04533699  0.34518055  1  0.120333  0.000137  0.934709  0.0  0.1434  0.000105  0.990702  0.0  0.144525  0.000133  0.990807  0.0  0.09726  0.14258  7.1e-05  0.990627  0.0
H  H28  1  0.26906512  0.06188568  0.63089563  1  0.107032  9.8e-05  0.955687  0.0  0.126288  8.6e-05  1.021208  0.0  0.12721  9.8e-05  1.020949  0.0  0.087105  0.125671  7.4e-05  1.021334  0.0
H  H29  1  0.63887339  0.93825810  0.36971062  1  0.107292  0.0001  0.955794  0.0  0.12678  8.8e-05  1.021045  0.0  0.127727  0.000101  1.020736  0.0  0.087519  0.126157  7.7e-05  1.021188  0.0
H  H30  1  0.23076709  0.92480922  0.54458773  1  0.110907  -5.1e-05  0.9456  0.0  0.131007  -9.6e-05  1.006104  0.0  0.132479  -7.2e-05  1.005751  0.0  0.088176  0.129998  -0.000123  1.006299  0.0
H  H31  1  0.68689011  0.07535995  0.45603121  1  0.110988  -5.1e-05  0.946588  0.0  0.131331  -8.6e-05  1.006787  0.0  0.132768  -6.6e-05  1.006481  0.0  0.088309  0.130337  -0.000106  1.006966  0.0
C  C32  1  0.41181969  0.81425326  0.91473671  1  0.654256  -0.016456  3.88632  -0.015  0.599378  -0.026913  4.181901  -0.023  0.636558  -0.020349  4.174152  -0.018  0.219633  0.572997  -0.034104  4.186515  -0.028
C  C33  1  0.49797981  0.18588221  0.08556914  1  0.65197  -0.016432  3.88842  -0.015  0.597293  -0.026872  4.183552  -0.022  0.634435  -0.020327  4.175852  -0.017  0.219001  0.570955  -0.034057  4.188105  -0.028
C  C34  1  0.30986492  0.70482136  0.84866399  1  -0.057292  0.004309  3.751983  0.003  -0.037383  0.003013  3.987299  0.002  -0.045445  0.003706  4.009993  0.002  -0.015009  -0.032583  0.002257  3.973063  0.002
C  C35  1  0.46173517  0.29519127  0.15155826  1  -0.058765  0.004392  3.754289  0.003  -0.03922  0.003059  3.989674  0.002  -0.047256  0.003736  4.012289  0.002  -0.016246  -0.034438  0.002305  3.97548  0.002
C  C36  1  0.37358468  0.64389703  0.76762315  1  -0.048519  -0.003989  3.713241  -0.004  -0.072285  -0.004334  3.964227  -0.004  -0.071287  -0.003559  3.982852  -0.003  -0.081064  -0.073066  -0.005834  3.952211  -0.005
C  C37  1  0.60636366  0.35620529  0.23280703  1  -0.047432  -0.004011  3.711377  -0.004  -0.071237  -0.004321  3.962246  -0.004  -0.070252  -0.003554  3.98088  -0.003  -0.080302  -0.072016  -0.005809  3.950217  -0.005
C  C38  1  0.27850578  0.54231692  0.70431717  1  -0.119219  0.003332  3.744021  0.002  -0.149085  0.001927  4.008989  0.001  -0.151836  0.002293  4.028209  0.002  -0.103182  -0.147297  0.001926  3.996323  0.002
C  C39  1  0.57425444  0.45774770  0.29593081  1  -0.117028  0.003365  3.745289  0.002  -0.147196  0.001917  4.009482  0.001  -0.149936  0.002303  4.028726  0.002  -0.102109  -0.145406  0.001918  3.996783  0.002
C  C40  1  0.11903395  0.49892943  0.72215252  1  0.066576  -0.003823  3.730796  -0.003  0.082703  -0.004337  3.969698  -0.004  0.083415  -0.003467  3.994655  -0.003  -0.017837  0.082038  -0.006138  3.952991  -0.005
C  C41  1  0.39677879  0.50097166  0.27773549  1  0.064397  -0.003832  3.736655  -0.003  0.081509  -0.004312  3.973715  -0.004  0.082216  -0.003471  3.998707  -0.003  -0.019039  0.080854  -0.006113  3.956969  -0.005
C  C42  1  0.05421287  0.56077439  0.80285924  1  -0.107348  0.003106  3.728465  0.002  -0.130572  0.001566  3.980606  0.001  -0.134029  0.002076  4.001458  0.001  -0.092253  -0.128324  0.001374  3.966831  0.001
C  C43  1  0.25136296  0.43904620  0.19682301  1  -0.105859  0.003134  3.730055  0.002  -0.129242  0.001559  3.981331  0.001  -0.132651  0.002088  4.002217  0.001  -0.091735  -0.127026  0.001378  3.96753  0.001
C  C44  1  0.14746614  0.66304854  0.86501312  1  -0.056782  -0.003804  3.714228  -0.004  -0.079673  -0.003959  3.963249  -0.003  -0.079271  -0.00324  3.982921  -0.003  -0.079434  -0.080079  -0.005347  3.95059  -0.005
C  C45  1  0.28281589  0.33681444  0.13483292  1  -0.05676  -0.003829  3.715523  -0.004  -0.079561  -0.00395  3.964704  -0.003  -0.07903  -0.003235  3.984335  -0.003  -0.079542  -0.080055  -0.005331  3.952053  -0.004
C  C46  1  0.00409208  0.38828184  0.65516047  1  -0.269468  0.000286  3.640927  0.001  -0.278709  -8.8e-05  3.869646  0.0  -0.2861  1.8e-05  3.882018  0.0  -0.011923  -0.27357  -0.000201  3.861574  0.0
C  C47  1  0.34887146  0.61157662  0.34464342  1  -0.270571  0.000275  3.645045  0.001  -0.279796  -9.2e-05  3.873993  0.0  -0.287188  2e-05  3.886172  0.0  -0.011369  -0.274645  -0.000205  3.866094  0.0
C  C48  1  0.11636445  0.30857925  0.59003476  1  0.765637  -0.00014  3.604076  0.0  0.694835  -0.00018  3.944835  0.0  0.725154  -0.000143  3.920846  0.0  0.304468  0.67337  -0.000267  3.961907  0.0
C  C49  1  0.52643139  0.69137147  0.40989314  1  0.765607  -0.000153  3.605957  0.0  0.69435  -0.000184  3.94716  0.0  0.724434  -0.000145  3.923794  0.0  0.304891  0.672881  -0.000273  3.964201  0.0
C  C50  1  0.83264298  0.42423616  0.58360792  1  0.776305  -0.000197  3.59316  0.0  0.699857  -0.000234  3.942708  0.0  0.730212  -0.000176  3.918707  0.0  0.303421  0.678341  -0.000347  3.959858  0.0
C  C51  1  0.24908471  0.57550830  0.41606584  1  0.77958  -0.000172  3.592656  0.0  0.703131  -0.000227  3.941939  0.0  0.733968  -0.00018  3.917091  0.0  0.304045  0.681329  -0.000344  3.959568  0.0
C  C52  1  0.94711112  0.31999557  0.71940166  1  0.068248  -0.003242  3.739432  -0.003  0.083065  -0.00376  3.980178  -0.003  0.084226  -0.002995  4.004728  -0.003  -0.018626  0.082169  -0.00534  3.963685  -0.004
C  C53  1  0.22735902  0.67984539  0.28034451  1  0.06929  -0.003261  3.738628  -0.003  0.083066  -0.003774  3.980902  -0.003  0.084241  -0.003008  4.005425  -0.003  -0.018425  0.082173  -0.005373  3.96439  -0.004
C  C54  1  0.08837472  0.30424105  0.79979087  1  -0.109432  0.002683  3.725027  0.002  -0.131119  0.001379  3.97569  0.001  -0.134764  0.00181  3.996174  0.001  -0.091576  -0.128746  0.00122  3.962122  0.001
C  C55  1  0.28805945  0.69554552  0.20000906  1  -0.109047  0.002674  3.724157  0.002  -0.131092  0.001363  3.9752  0.001  -0.134698  0.001806  3.995718  0.001  -0.091805  -0.128733  0.001205  3.961579  0.001
C  C56  1  0.04896867  0.24114316  0.85984379  1  -0.055621  -0.003262  3.706731  -0.003  -0.079433  -0.003526  3.956822  -0.003  -0.078708  -0.002844  3.976027  -0.003  -0.078599  -0.079997  -0.004779  3.944402  -0.004
C  C57  1  0.18853507  0.75863109  0.13985222  1  -0.056601  -0.003258  3.706888  -0.003  -0.080069  -0.003551  3.956768  -0.003  -0.079324  -0.002859  3.975965  -0.003  -0.078553  -0.08064  -0.004818  3.944335  -0.004
C  C58  1  0.86583488  0.19405335  0.84161965  1  -0.051698  0.004607  3.753682  0.003  -0.032259  0.003149  3.988677  0.002  -0.040165  0.003699  4.010879  0.002  -0.01471  -0.02759  0.002541  3.974718  0.002
C  C59  1  0.02372756  0.80586723  0.15798506  1  -0.054678  0.004576  3.755753  0.003  -0.034337  0.003126  3.989607  0.002  -0.042259  0.003678  4.011753  0.002  -0.015269  -0.029664  0.002498  3.975689  0.002
C  C60  1  0.72482359  0.20938941  0.76145438  1  -0.053872  -0.003479  3.721797  -0.003  -0.076396  -0.003891  3.969595  -0.003  -0.075439  -0.003189  3.988489  -0.003  -0.081769  -0.077083  -0.00521  3.957339  -0.004
C  C61  1  0.96311285  0.79065566  0.23816132  1  -0.052232  -0.00343  3.723167  -0.003  -0.075125  -0.003809  3.970968  -0.003  -0.074011  -0.003132  3.989923  -0.003  -0.081527  -0.075914  -0.005093  3.958659  -0.004
C  C62  1  0.76503970  0.27102365  0.70030246  1  -0.121337  0.002811  3.753492  0.002  -0.149715  0.001616  4.016695  0.001  -0.153017  0.001937  4.036434  0.001  -0.102093  -0.147578  0.001609  4.003671  0.001
C  C63  1  0.06446719  0.72894116  0.29934461  1  -0.121642  0.002813  3.751967  0.002  -0.150066  0.001609  4.015912  0.001  -0.153358  0.001941  4.035587  0.001  -0.102673  -0.147929  0.001602  4.002931  0.001
C  C64  1  0.81946293  0.12628864  0.90476293  1  0.644123  -0.013526  3.887835  -0.012  0.59141  -0.023276  4.179062  -0.019  0.627804  -0.017511  4.172542  -0.015  0.21474  0.565733  -0.029531  4.182728  -0.024
C  C65  1  0.91399556  0.87384045  0.09495324  1  0.644533  -0.013457  3.886255  -0.012  0.591843  -0.023172  4.177418  -0.019  0.628251  -0.017428  4.170897  -0.015  0.215263  0.566161  -0.029402  4.1811  -0.024
C  C66  1  0.92158859  0.87586683  0.78722289  1  0.116424  -0.002731  3.699995  -0.003  0.083893  -0.004816  3.954419  -0.004  0.089151  -0.004235  3.975094  -0.004  0.047187  0.08053  -0.005395  3.939895  -0.005
C  C67  1  0.13483238  0.12411984  0.21279658  1  0.115805  -0.00277  3.701589  -0.003  0.083413  -0.004851  3.956289  -0.004  0.08871  -0.00427  3.9769  -0.004  0.046524  0.080056  -0.005431  3.94178  -0.005
C  C68  1  0.86629955  0.83581961  0.68390521  1  -0.115722  0.001295  3.769989  0.001  -0.127977  0.000829  4.024349  0.0  -0.134792  0.001366  4.047413  0.001  -0.088478  -0.123372  0.000393  4.008239  0.0
C  C69  1  0.18288187  0.16419345  0.31610170  1  -0.115729  0.001319  3.770275  0.001  -0.128441  0.000846  4.024996  0.0  -0.135228  0.001385  4.047983  0.001  -0.088724  -0.123861  0.000404  4.008907  0.0
C  C70  1  0.97948663  0.86548166  0.62927746  1  -0.072028  -0.00217  3.711618  -0.002  -0.098363  -0.003167  3.954963  -0.002  -0.097165  -0.002959  3.975722  -0.002  -0.072933  -0.098581  -0.003486  3.940245  -0.003
C  C71  1  0.35074665  0.13453324  0.37092028  1  -0.071212  -0.002192  3.712894  -0.002  -0.097469  -0.003194  3.955905  -0.002  -0.096217  -0.00298  3.976614  -0.002  -0.072373  -0.09771  -0.003517  3.941226  -0.003
C  C72  1  0.14490898  0.93547516  0.67857429  1  0.102822  0.001139  3.743526  0.001  0.134965  0.00072  3.976517  0.0  0.130504  0.00124  4.004176  0.001  -0.00062  0.137798  0.000299  3.957568  0.0
C  C73  1  0.46700337  0.06464313  0.32179396  1  0.101208  0.001153  3.7446  0.001  0.13334  0.000722  3.977799  0.0  0.128894  0.001246  4.005367  0.001  -0.001334  0.136183  0.00029  3.958879  0.0
C  C74  1  0.18855993  0.97262708  0.78278767  1  0.068715  -0.002609  3.636251  -0.003  0.033275  -0.00455  3.881733  -0.004  0.038423  -0.004007  3.901248  -0.004  0.05267  0.030019  -0.005095  3.868015  -0.004
C  C75  1  0.40650356  0.02753711  0.21756120  1  0.071627  -0.002626  3.633085  -0.003  0.03656  -0.004575  3.877634  -0.004  0.041506  -0.004026  3.897513  -0.004  0.053843  0.033284  -0.005125  3.863948  -0.004
C  C76  1  0.27271407  0.97061420  0.62418974  1  -0.332284  -0.000289  3.73041  0.0  -0.41211  -0.000239  3.959633  0.0  -0.413859  -0.000183  3.970508  0.0  -0.237147  -0.410601  -0.000301  3.951972  0.0
C  C77  1  0.64927282  0.02954028  0.37644881  1  -0.331695  -0.000287  3.732786  0.0  -0.412075  -0.000243  3.962084  0.0  -0.413819  -0.000187  3.973008  0.0  -0.237316  -0.410568  -0.000308  3.954338  0.0
N  N78  1  0.08050944  0.94338754  0.83576245  1  -0.341377  -0.026791  3.296456  -0.014  -0.266437  -0.028182  3.568011  -0.012  -0.287135  -0.025927  3.587839  -0.01  -0.326055  -0.251125  -0.030079  3.553804  -0.013
N  N79  1  0.24533960  0.05667456  0.16442894  1  -0.342005  -0.02673  3.295631  -0.014  -0.267563  -0.028154  3.568222  -0.011  -0.288197  -0.025888  3.587884  -0.01  -0.326399  -0.252246  -0.030073  3.554007  -0.013
O  O80  1  0.35604056  0.86819357  0.99042135  1  -0.666483  -0.034565  2.083792  -0.016  -0.602921  -0.047618  2.362917  -0.024  -0.632337  -0.04197  2.346296  -0.02  -0.307621  -0.580723  -0.053737  2.373657  -0.03
O  O81  1  0.36645305  0.13174182  0.00979984  1  -0.66576  -0.034708  2.082796  -0.016  -0.602036  -0.047855  2.361878  -0.025  -0.631588  -0.0422  2.345533  -0.02  -0.307219  -0.579738  -0.053968  2.372388  -0.03
O  O82  1  0.55171593  0.85108457  0.89224367  1  -0.626639  -0.039006  2.035143  -0.028  -0.566135  -0.046183  2.297312  -0.032  -0.598358  -0.039275  2.284509  -0.025  -0.307183  -0.542065  -0.053366  2.305265  -0.038
O  O83  1  0.66065579  0.14930309  0.10810903  1  -0.625305  -0.038817  2.03579  -0.028  -0.564578  -0.045951  2.297145  -0.031  -0.596724  -0.039086  2.28438  -0.025  -0.306424  -0.540553  -0.053083  2.305064  -0.038
O  O84  1  0.94428099  0.11762434  0.98285610  1  -0.678378  -0.041092  2.075649  -0.021  -0.610309  -0.055039  2.352409  -0.03  -0.641858  -0.049113  2.337151  -0.025  -0.306008  -0.586367  -0.061234  2.361943  -0.035
O  O85  1  0.96062058  0.88277783  0.01699775  1  -0.678664  -0.041296  2.07598  -0.021  -0.611141  -0.055328  2.353782  -0.03  -0.642637  -0.049372  2.338264  -0.025  -0.306956  -0.587173  -0.061546  2.363376  -0.036
O  O86  1  0.65546637  0.07703396  0.87963734  1  -0.61543  -0.034656  1.999607  -0.026  -0.557743  -0.042768  2.251968  -0.032  -0.588401  -0.036777  2.24106  -0.026  -0.302657  -0.53505  -0.048893  2.258738  -0.037
O  O87  1  0.77524306  0.92306944  0.12009396  1  -0.613706  -0.034615  1.998672  -0.026  -0.556766  -0.04279  2.251436  -0.032  -0.58734  -0.036783  2.240403  -0.026  -0.302185  -0.534124  -0.048938  2.258258  -0.038
F  F88  1  0.02506392  0.20372779  0.54520536  1  -0.246498  -2.1e-05  1.162269  0.0  -0.212321  -5.4e-05  1.329018  0.0  -0.222666  -3.9e-05  1.31503  0.0  -0.092931  -0.205028  -8e-05  1.338737  0.0
F  F89  1  0.47976822  0.79616892  0.45466557  1  -0.246937  -1.7e-05  1.161714  0.0  -0.212881  -5.5e-05  1.328672  0.0  -0.223175  -4.2e-05  1.314791  0.0  -0.093791  -0.205586  -8.7e-05  1.338399  0.0
F  F90  1  0.28862143  0.29245035  0.64589861  1  -0.242485  1.4e-05  1.163191  0.0  -0.206119  7e-06  1.335809  0.0  -0.21705  1.5e-05  1.321361  0.0  -0.085708  -0.198267  -2e-06  1.345792  0.0
F  F91  1  0.64275406  0.70764608  0.35417740  1  -0.241962  2.2e-05  1.162614  0.0  -0.205408  4e-06  1.335305  0.0  -0.21629  1.7e-05  1.320971  0.0  -0.085456  -0.197549  -2e-06  1.34528  0.0
F  F92  1  0.14778214  0.34865700  0.51585121  1  -0.24497  -3.9e-05  1.196519  0.0  -0.212594  -8e-05  1.377568  0.0  -0.222341  -5.9e-05  1.36037  0.0  -0.089193  -0.205641  -0.000106  1.389465  0.0
F  F93  1  0.63227709  0.65136637  0.48414133  1  -0.244227  -4e-05  1.198113  0.0  -0.211722  -7.7e-05  1.379514  0.0  -0.221435  -6.1e-05  1.362452  0.0  -0.088866  -0.204749  -0.000106  1.391393  0.0
F  F94  1  0.73183416  0.33507999  0.50879593  1  -0.257786  -2.6e-05  1.153666  0.0  -0.214875  -6.9e-05  1.313612  0.0  -0.224908  -4.8e-05  1.298406  0.0  -0.097123  -0.207777  -0.000105  1.324185  0.0
F  F95  1  0.22290382  0.66460148  0.49077736  1  -0.258842  -3.3e-05  1.152743  0.0  -0.21546  -7.1e-05  1.312241  0.0  -0.225603  -4.7e-05  1.296816  0.0  -0.097617  -0.208294  -0.000106  1.322946  0.0
F  F96  1  0.88913378  0.49753779  0.53913517  1  -0.238325  -3e-06  1.179116  0.0  -0.210587  -3.4e-05  1.357239  0.0  -0.220342  -1.7e-05  1.3413  0.0  -0.098284  -0.203635  -5.8e-05  1.368308  0.0
F  F97  1  0.35019147  0.50231565  0.46069094  1  -0.238791  -7e-06  1.17919  0.0  -0.21145  -3.2e-05  1.357346  0.0  -0.22132  -1.8e-05  1.34122  0.0  -0.098442  -0.204432  -5.8e-05  1.368526  0.0
F  F98  1  0.71056947  0.47811167  0.63411076  1  -0.24493  2e-05  1.159103  0.0  -0.199476  6e-06  1.317704  0.0  -0.209951  1.1e-05  1.303051  0.0  -0.088939  -0.191949  -6e-06  1.327861  0.0
F  F99  1  0.07645861  0.52148325  0.36534074  1  -0.246049  1.5e-05  1.160252  0.0  -0.200863  2e-06  1.318905  0.0  -0.211465  1.3e-05  1.304052  0.0  -0.089346  -0.193256  -6e-06  1.329174  0.0
