# generated using pymatgen
data_ZnH16C26N3(O2F3)3
_symmetry_space_group_name_H-M   'P 1'
_cell_length_a   16.20314264
_cell_length_b   17.08986267
_cell_length_c   17.06187166
_cell_angle_alpha   91.19110200
_cell_angle_beta   90.57756755
_cell_angle_gamma   94.91220362
_symmetry_Int_Tables_number   1
_chemical_formula_structural   ZnH16C26N3(O2F3)3
_chemical_formula_sum   'Zn2 H32 C52 N6 O12 F18'
_cell_volume   4705.89027301
_cell_formula_units_Z   2
loop_
 _symmetry_equiv_pos_site_id
 _symmetry_equiv_pos_as_xyz
  1  'x, y, z'
loop_
 _atom_site_type_symbol
 _atom_site_label
 _atom_site_symmetry_multiplicity
 _atom_site_fract_x
 _atom_site_fract_y
 _atom_site_fract_z
 _atom_site_occupancy
 _atom_site_pbe_bader_charge
 _atom_site_pbe_bader_spin_density
 _atom_site_pbe_cm5_charge
 _atom_site_pbe_ddec_charge
 _atom_site_pbe_ddec_spin_density
 _atom_site_pbe_ddec_sum_bond_order
 _atom_site_pbe_magmom
Zn  Zn0  1  0.41488194  0.49599019  0.49894173  1  1.309015  0  0.685945  0.881559  0  2.322657  0
Zn  Zn1  1  0.59277868  0.48889572  0.49600208  1  1.304475  0  0.682091  0.871733  0  2.339134  0
H  H2  1  0.42102476  0.64730405  0.87423066  1  0.099276  0  0.111245  0.133113  0  0.997424  0
H  H3  1  0.59319117  0.50554071  0.09206161  1  0.109645  0  0.113243  0.136514  0  0.988159  0
H  H4  1  0.46949748  0.89477155  0.40509243  1  0.118795  0  0.122323  0.152634  0  0.987579  0
H  H5  1  0.55647038  0.09979482  0.60491399  1  0.145347  0  0.121382  0.153513  0  0.98849  0
H  H6  1  0.70187551  0.51763077  0.29852704  1  0.06512  0  0.093116  0.062268  0  0.991283  0
H  H7  1  0.69729050  0.54537306  0.19831932  1  0.02467  0  0.097474  0.05828  0  0.981819  0
H  H8  1  0.75772931  0.39086299  0.25524039  1  0.006092  0  0.088257  0.081268  0  1.00577  0
H  H9  1  0.75257116  0.41946763  0.15641188  1  0.03596  0  0.092911  0.087238  0  0.969206  0
H  H10  1  0.85515479  0.53676912  0.18658149  1  0.01907  0  0.087074  0.113083  0  0.99892  0
H  H11  1  0.89761184  0.44799948  0.21127818  1  0.030795  0  0.089301  0.119546  0  0.995113  0
H  H12  1  0.86012545  0.50888134  0.28595199  1  0.007297  0  0.075963  0.096541  0  1.027235  0
H  H13  1  0.27224248  0.62239234  0.71616234  1  0.041476  0  0.101156  0.066134  0  0.988285  0
H  H14  1  0.30720017  0.61048967  0.81394164  1  0.021079  0  0.09502  0.053575  0  0.99019  0
H  H15  1  0.30766957  0.48658406  0.68106395  1  0.024495  0  0.089127  0.093716  0  0.990463  0
H  H16  1  0.34708031  0.47543433  0.77629399  1  0.028253  0  0.092558  0.089225  0  0.972788  0
H  H17  1  0.20579790  0.48953380  0.83377644  1  0.020308  0  0.087093  0.113094  0  1.000693  0
H  H18  1  0.20282267  0.41011227  0.76493196  1  -0.009146  0  0.089535  0.118523  0  0.997591  0
H  H19  1  0.16423224  0.50015202  0.73827021  1  0.002336  0  0.079722  0.102103  0  1.014738  0
H  H20  1  0.67598424  0.28178026  0.46904002  1  0.067032  0  0.102579  0.075098  0  0.981969  0
H  H21  1  0.75647229  0.27644720  0.39752507  1  0.071021  0  0.097074  0.06056  0  0.998268  0
H  H22  1  0.57237418  0.28890470  0.36174367  1  0.057208  0  0.097311  0.102561  0  0.971069  0
H  H23  1  0.65011707  0.28385602  0.29056353  1  0.058367  0  0.097542  0.094698  0  0.972678  0
H  H24  1  0.67888268  0.14838911  0.33705091  1  0.025266  0  0.085772  0.110685  0  1.001922  0
H  H25  1  0.57364869  0.15063167  0.30818586  1  0.055383  0  0.092468  0.124822  0  0.990741  0
H  H26  1  0.60116193  0.15366852  0.40916770  1  0.010409  0  0.078714  0.10384  0  1.039781  0
H  H27  1  0.35632450  0.72988746  0.58399725  1  0.090055  0  0.114993  0.094048  0  0.959394  0
H  H28  1  0.24827848  0.71444509  0.60344422  1  0.050799  0  0.099845  0.06362  0  0.999479  0
H  H29  1  0.32665635  0.72214970  0.44008759  1  0.062312  0  0.095222  0.101331  0  0.986461  0
H  H30  1  0.21902428  0.70679245  0.45741791  1  0.025399  0  0.087571  0.079457  0  0.987052  0
H  H31  1  0.22052961  0.83930458  0.52558740  1  0.016168  0  0.08733  0.112552  0  0.998941  0
H  H32  1  0.25829442  0.84834399  0.42866287  1  0.027927  0  0.094939  0.128191  0  0.985368  0
H  H33  1  0.32867986  0.85606163  0.50896828  1  0.059652  0  0.083023  0.112051  0  1.02869  0
C  C34  1  0.47862025  0.34266897  0.51778190  1  1.657721  0  0.221493  0.633291  0  4.179503  0
C  C35  1  0.52837058  0.64320146  0.48369084  1  1.670005  0  0.216374  0.628531  0  4.186713  0
C  C36  1  0.46931394  0.25404186  0.51948930  1  0.019127  0  -0.015915  -0.206199  0  3.951472  0
C  C37  1  0.52952556  0.73084528  0.49549922  1  0.023713  0  -0.017262  -0.205918  0  3.953722  0
C  C38  1  0.51783780  0.21159490  0.56933589  1  0.506272  0  0.100984  0.282124  0  4.081412  0
C  C39  1  0.50008989  0.77959111  0.43814676  1  0.467604  0  0.101834  0.283989  0  4.078855  0
C  C40  1  0.51732479  0.13097807  0.56624448  1  0.018387  0  -0.096921  -0.2773  0  3.983195  0
C  C41  1  0.49286149  0.85853475  0.45061747  1  0.12407  0  -0.096118  -0.277722  0  3.990856  0
C  C42  1  0.46651143  0.08811732  0.50996591  1  0.407881  0  0.082188  0.092823  0  4.112976  0
C  C43  1  0.51596462  0.89292706  0.52429479  1  0.396163  0  0.081282  0.092656  0  4.116996  0
C  C44  1  0.41561090  0.12866880  0.46070104  1  0.537672  0  0.10133  0.109794  0  4.046518  0
C  C45  1  0.54787523  0.84618142  0.58218650  1  0.509757  0  0.097995  0.103608  0  4.05686  0
C  C46  1  0.41727082  0.21042170  0.46609821  1  0.614662  0  0.100337  0.176788  0  4.075806  0
C  C47  1  0.55401757  0.76625668  0.56745660  1  0.563446  0  0.100785  0.178107  0  4.071619  0
C  C48  1  0.77336740  0.53015098  0.53997322  1  1.226127  0  0.237471  0.339079  0  4.106747  0
C  C49  1  0.23417793  0.44275768  0.46773230  1  1.150837  0  0.235759  0.340754  0  4.119574  0
C  C50  1  0.85930520  0.52991466  0.53934052  1  0.553988  0  0.108898  0.084076  0  4.052417  0
C  C51  1  0.14817155  0.44055763  0.46989291  1  0.640793  0  0.101885  0.070446  0  4.064478  0
C  C52  1  0.89496588  0.47582534  0.48919003  1  0.489278  0  0.093982  0.012815  0  4.083688  0
C  C53  1  0.11256695  0.50351434  0.50720228  1  0.482084  0  0.093504  0.01708  0  4.107798  0
C  C54  1  0.84002117  0.42383034  0.44474687  1  0.545498  0  0.112814  0.090204  0  4.025977  0
C  C55  1  0.16654873  0.56571422  0.53740061  1  0.473069  0  0.103042  0.072466  0  4.029273  0
C  C56  1  0.49637371  0.48720529  0.34943551  1  1.615615  0  0.220155  0.634516  0  4.151193  0
C  C57  1  0.51527459  0.52748112  0.64413761  1  1.606331  0  0.217538  0.626233  0  4.150311  0
C  C58  1  0.75394549  0.42632361  0.44960253  1  1.202022  0  0.217314  0.29646  0  4.118143  0
C  C59  1  0.25274478  0.56579489  0.52980067  1  1.216042  0  0.221067  0.306435  0  4.110533  0
C  C60  1  0.48926675  0.50899784  0.26497883  1  -0.016367  0  -0.019918  -0.202623  0  3.910941  0
C  C61  1  0.52396357  0.55673028  0.72789565  1  0.074384  0  -0.02298  -0.219145  0  3.89509  0
C  C62  1  0.55126496  0.49466180  0.21013420  1  0.564852  0  0.087737  0.25203  0  4.063211  0
C  C63  1  0.46247585  0.59727084  0.76675132  1  0.520887  0  0.090883  0.259076  0  4.043571  0
C  C64  1  0.54603104  0.52022984  0.13355301  1  0.021755  0  -0.097155  -0.232139  0  3.984785  0
C  C65  1  0.46926725  0.61630697  0.84659497  1  0.017839  0  -0.103315  -0.245453  0  3.993038  0
C  C66  1  0.47987767  0.56162676  0.10809265  1  0.091858  0  -0.024566  -0.041386  0  4.128746  0
C  C67  1  0.53638085  0.59625736  0.89212451  1  0.099461  0  -0.021637  -0.028819  0  4.126335  0
C  C68  1  0.41844407  0.57619007  0.16223789  1  0.533678  0  0.087978  0.130058  0  4.059129  0
C  C69  1  0.59973760  0.56076197  0.85341146  1  0.519568  0  0.084113  0.121413  0  4.059187  0
C  C70  1  0.42284828  0.54952751  0.23880268  1  0.533769  0  0.101201  0.184123  0  4.048679  0
C  C71  1  0.59361939  0.54188196  0.77363376  1  0.518263  0  0.101747  0.189652  0  4.049726  0
C  C72  1  0.47371211  0.58077791  0.02541515  1  0.510261  0  0.084945  0.124999  0  4.035344  0
C  C73  1  0.53722226  0.60281875  0.97750815  1  0.507675  0  0.083338  0.120976  0  4.037583  0
C  C74  1  0.69523647  0.49478573  0.23762389  1  0.387555  0  -0.066013  0.046153  0  3.875767  0
C  C75  1  0.76276542  0.44200249  0.21696825  1  0.033926  0  -0.171277  -0.138542  0  3.998065  0
C  C76  1  0.84857113  0.48624876  0.22562215  1  -0.061263  0  -0.243417  -0.348459  0  3.985623  0
C  C77  1  0.31551223  0.59207530  0.75228984  1  0.443891  0  -0.064475  0.040062  0  3.890406  0
C  C78  1  0.29942533  0.50327693  0.74284086  1  0.00651  0  -0.173603  -0.138843  0  3.972461  0
C  C79  1  0.21338328  0.47426799  0.77145760  1  -0.022753  0  -0.243283  -0.351433  0  3.989221  0
C  C80  1  0.69507077  0.29676847  0.40908710  1  0.359596  0  -0.05942  0.036436  0  3.838242  0
C  C81  1  0.63120298  0.26391845  0.34910641  1  -0.054855  0  -0.164917  -0.125564  0  3.961516  0
C  C82  1  0.62077836  0.17424381  0.35105888  1  -0.029883  0  -0.243123  -0.351819  0  3.971263  0
C  C83  1  0.29657858  0.70395182  0.56070382  1  0.365126  0  -0.05672  0.03538  0  3.834397  0
C  C84  1  0.27759329  0.73612112  0.48083595  1  0.004157  0  -0.170701  -0.144424  0  3.98076  0
C  C85  1  0.27086936  0.82480712  0.48652921  1  -0.084049  0  -0.241088  -0.347638  0  3.957078  0
N  N86  1  0.46643529  0.00713744  0.49569519  1  -0.463834  0  -0.148645  -0.110099  0  3.274299  0
N  N87  1  0.51075559  0.97242078  0.54354504  1  -0.472741  0  -0.149817  -0.111756  0  3.2639  0
N  N88  1  0.72287336  0.48038556  0.49729592  1  -1.224687  0  -0.304774  -0.333207  0  3.468014  0
N  N89  1  0.28422137  0.50247174  0.49609209  1  -1.221554  0  -0.309444  -0.349041  0  3.47316  0
N  N90  1  0.97946478  0.47409481  0.47221511  1  -0.413135  0  -0.119822  -0.057648  0  3.221614  0
N  N91  1  0.02819729  0.50528865  0.52462327  1  -0.38041  0  -0.119558  -0.054519  0  3.22091  0
O  O92  1  0.41526250  0.37864643  0.53156006  1  -1.153916  0  -0.31088  -0.536856  0  2.287016  0
O  O93  1  0.59543498  0.61265406  0.49592923  1  -1.144319  0  -0.311099  -0.537813  0  2.298159  0
O  O94  1  0.55072425  0.37116649  0.50020041  1  -1.153885  0  -0.300391  -0.538925  0  2.345015  0
O  O95  1  0.45805851  0.60927055  0.46502580  1  -1.150544  0  -0.30713  -0.544339  0  2.32981  0
O  O96  1  0.43009646  0.46397368  0.38439685  1  -1.151249  0  -0.323211  -0.559877  0  2.333293  0
O  O97  1  0.57846968  0.50064641  0.61326797  1  -1.143934  0  -0.319755  -0.550285  0  2.376061  0
O  O98  1  0.56860462  0.49657085  0.37962563  1  -1.140966  0  -0.303232  -0.533017  0  2.371148  0
O  O99  1  0.44541292  0.53073571  0.61031189  1  -1.146062  0  -0.307673  -0.541086  0  2.404253  0
O  O100  1  0.61501906  0.45076783  0.23015161  1  -1.062612  0  -0.201336  -0.230559  0  2.49504  0
O  O101  1  0.39650062  0.62083883  0.72522947  1  -1.055099  0  -0.197596  -0.219375  0  2.520846  0
O  O102  1  0.69955676  0.38268435  0.40430348  1  -1.075135  0  -0.160621  -0.192977  0  2.575655  0
O  O103  1  0.30947029  0.62035882  0.55734399  1  -1.051389  0  -0.149183  -0.171763  0  2.603546  0
F  F104  1  0.26888233  0.38245761  0.43484020  1  -0.600291  0  -0.054121  -0.08463  0  1.407128  0
F  F105  1  0.73975877  0.58267351  0.58556981  1  -0.591324  0  -0.051472  -0.079968  0  1.401152  0
F  F106  1  0.10219133  0.37711303  0.44120976  1  -0.604513  0  -0.077232  -0.08505  0  1.399731  0
F  F107  1  0.90498472  0.58370829  0.58312983  1  -0.602707  0  -0.072299  -0.083205  0  1.415473  0
F  F108  1  0.87090417  0.37223745  0.39463038  1  -0.613842  0  -0.064584  -0.081399  0  1.408914  0
F  F109  1  0.13385580  0.62615062  0.57478702  1  -0.616974  0  -0.071316  -0.089093  0  1.404633  0
F  F110  1  0.65703614  0.50462866  0.74432670  1  -0.611664  0  -0.092696  -0.106898  0  1.397864  0
F  F111  1  0.36174923  0.56735592  0.28770468  1  -0.619462  0  -0.094094  -0.109085  0  1.370998  0
F  F112  1  0.61257414  0.62399463  0.01207320  1  -0.616696  0  -0.100214  -0.125588  0  1.368412  0
F  F113  1  0.39686666  0.56376334  0.99205899  1  -0.616992  0  -0.100016  -0.125719  0  1.361149  0
F  F114  1  0.35389602  0.61721164  0.14169422  1  -0.616398  0  -0.102739  -0.12387  0  1.353466  0
F  F115  1  0.66636365  0.53877715  0.89354633  1  -0.617002  0  -0.105458  -0.126272  0  1.36637  0
F  F116  1  0.47805302  0.74687660  0.36674940  1  -0.625219  0  -0.09988  -0.135149  0  1.318593  0
F  F117  1  0.56828176  0.25285413  0.62263373  1  -0.627613  0  -0.103107  -0.135939  0  1.309647  0
F  F118  1  0.36601499  0.08994902  0.40617399  1  -0.615171  0  -0.090964  -0.109403  0  1.368642  0
F  F119  1  0.57075547  0.87681792  0.65336191  1  -0.60998  0  -0.091711  -0.107577  0  1.368843  0
F  F120  1  0.36976199  0.24707079  0.41549432  1  -0.617059  0  -0.085616  -0.098991  0  1.367543  0
F  F121  1  0.58185147  0.72302008  0.62591342  1  -0.616982  0  -0.08338  -0.095403  0  1.368646  0
