# generated using pymatgen
data_AlH7C11NO7
_symmetry_space_group_name_H-M   'P 1'
_cell_length_a   6.77672863
_cell_length_b   11.20928556
_cell_length_c   16.92768532
_cell_angle_alpha   85.72192824
_cell_angle_beta   82.77651545
_cell_angle_gamma   71.18557925
_symmetry_Int_Tables_number   1
_chemical_formula_structural   AlH7C11NO7
_chemical_formula_sum   'Al2 H14 C22 N2 O14'
_cell_volume   1206.70531685
_cell_formula_units_Z   2
loop_
 _symmetry_equiv_pos_site_id
 _symmetry_equiv_pos_as_xyz
  1  'x, y, z'
loop_
 _atom_site_type_symbol
 _atom_site_label
 _atom_site_symmetry_multiplicity
 _atom_site_fract_x
 _atom_site_fract_y
 _atom_site_fract_z
 _atom_site_occupancy
 _atom_site_pbe_bader_charge
 _atom_site_pbe_bader_spin_density
 _atom_site_pbe_cm5_charge
 _atom_site_pbe_ddec_charge
 _atom_site_pbe_ddec_spin_density
 _atom_site_pbe_ddec_sum_bond_order
 _atom_site_pbe_magmom
Al  Al0  1  0.49999469  0.50000362  0.49999986  1  2.50711  0  0.408229  1.644626  0  2.556984  0
Al  Al1  1  0.99999882  0.50000227  0.49999877  1  2.508248  0  0.405712  1.655501  0  2.565769  0
H  H2  1  0.20499266  0.63033157  0.42877011  1  0.618035  0  0.356125  0.434187  0  0.846368  0
H  H3  1  0.79500311  0.36967189  0.57122826  1  0.618088  0  0.356118  0.434199  0  0.846413  0
H  H4  1  0.85811494  0.49977513  0.73729398  1  0.151176  0  0.105773  0.113816  0  1.04158  0
H  H5  1  0.79339062  0.50125238  0.88530620  1  0.107687  0  0.103985  0.108112  0  1.03989  0
H  H6  1  0.42128607  0.50856639  0.89632942  1  0.091393  0  0.116099  0.138172  0  0.995003  0
H  H7  1  0.57872257  0.49143228  0.10366908  1  0.091356  0  0.116066  0.138132  0  0.994897  0
H  H8  1  0.20662289  0.49873680  0.11469542  1  0.107622  0  0.103994  0.108079  0  1.039954  0
H  H9  1  0.14189410  0.50021408  0.26270786  1  0.151153  0  0.105764  0.113794  0  1.041521  0
H  H10  1  0.23746760  0.88799238  0.50009668  1  0.162489  0  0.110981  0.138629  0  1.037163  0
H  H11  1  0.76252757  0.11201215  0.49989400  1  0.162373  0  0.11103  0.138687  0  1.037098  0
H  H12  1  0.51486064  0.51539843  0.68409928  1  0.628495  0  0.315317  0.354911  0  0.966303  0
H  H13  1  0.48513997  0.48459844  0.31589736  1  0.628523  0  0.315302  0.354904  0  0.966174  0
H  H14  1  0.06738005  0.21982127  0.48178721  1  0.622222  0  0.313384  0.347859  0  0.984163  0
H  H15  1  0.93261427  0.78018788  0.51820803  1  0.622381  0  0.313417  0.347868  0  0.984123  0
C  C16  1  0.62909171  0.72828928  0.50792241  1  1.506039  0  0.269894  0.659425  0  4.05163  0
C  C17  1  0.79353874  0.49983345  0.35505963  1  1.451801  0  0.264199  0.656996  0  4.066832  0
C  C18  1  0.37090949  0.27170941  0.49207765  1  1.506045  0  0.269841  0.65928  0  4.051912  0
C  C19  1  0.20645652  0.50016810  0.64494003  1  1.451871  0  0.26428  0.657101  0  4.066783  0
C  C20  1  0.17478555  0.50362029  0.73222211  1  0.081503  0  -0.036424  -0.205988  0  3.982005  0
C  C21  1  0.98054120  0.50140943  0.77246258  1  -0.016196  0  -0.079991  -0.046051  0  3.994714  0
C  C22  1  0.94347486  0.50209878  0.85434743  1  -0.05388  0  -0.095399  -0.172341  0  3.973056  0
C  C23  1  0.10534631  0.50364614  0.89885751  1  0.328456  0  0.094855  0.199674  0  4.050077  0
C  C24  1  0.29896641  0.50671209  0.86079680  1  0.077135  0  -0.088012  -0.259015  0  3.880749  0
C  C25  1  0.33519160  0.50796835  0.77742480  1  0.478804  0  0.100165  0.330738  0  4.047145  0
C  C26  1  0.70104026  0.49328753  0.13920176  1  0.077076  0  -0.087969  -0.25896  0  3.880432  0
C  C27  1  0.89466479  0.49635062  0.10114154  1  0.328603  0  0.09496  0.199817  0  4.049966  0
C  C28  1  0.05653913  0.49788946  0.14565421  1  -0.053966  0  -0.09544  -0.172327  0  3.973093  0
C  C29  1  0.01946782  0.49857979  0.22753867  1  -0.01622  0  -0.079916  -0.046009  0  3.994546  0
C  C30  1  0.82521416  0.49637840  0.26777862  1  0.081448  0  -0.036434  -0.206014  0  3.982022  0
C  C31  1  0.66481499  0.49202561  0.22257519  1  0.478983  0  0.100085  0.330607  0  4.047199  0
C  C32  1  0.43598490  0.13259671  0.49452404  1  0.022039  0  -0.027614  -0.166802  0  3.998541  0
C  C33  1  0.56400484  0.86740398  0.50547357  1  0.022243  0  -0.027622  -0.166966  0  3.998485  0
C  C34  1  0.28658309  0.06768314  0.49390027  1  0.466929  0  0.08578  0.291836  0  4.059  0
C  C35  1  0.71341012  0.93231946  0.50609414  1  0.466804  0  0.0857  0.291807  0  4.059129  0
C  C36  1  0.35317184  0.93636655  0.49978975  1  0.028261  0  -0.093003  -0.186117  0  3.93385  0
C  C37  1  0.64682229  0.06363420  0.50020292  1  0.028403  0  -0.093003  -0.186235  0  3.933919  0
N  N38  1  0.08752616  0.50261080  0.98315939  1  -0.480737  0  -0.140308  -0.124389  0  3.247779  0
N  N39  1  0.91248546  0.49738499  0.01684145  1  -0.521426  0  -0.140354  -0.124476  0  3.247849  0
O  O40  1  0.49624070  0.67254286  0.50090923  1  -1.258618  0  -0.231367  -0.58046  0  2.33033  0
O  O41  1  0.93728333  0.51254331  0.39216720  1  -1.271538  0  -0.235157  -0.591634  0  2.347352  0
O  O42  1  0.17494295  0.33043139  0.48421955  1  -1.267715  0  -0.23712  -0.6137  0  2.400914  0
O  O43  1  0.38363619  0.50866656  0.60974648  1  -1.261441  0  -0.239841  -0.615587  0  2.378216  0
O  O44  1  0.50375599  0.32745588  0.49908929  1  -1.258679  0  -0.231349  -0.580388  0  2.330409  0
O  O45  1  0.06270953  0.48746295  0.60783297  1  -1.271585  0  -0.23521  -0.591698  0  2.347326  0
O  O46  1  0.82505381  0.66957016  0.51578004  1  -1.267638  0  -0.23711  -0.613711  0  2.400976  0
O  O47  1  0.61635955  0.49133407  0.39025260  1  -1.261366  0  -0.239814  -0.615524  0  2.37811  0
O  O48  1  0.22955696  0.55885454  0.46640958  1  -1.422712  0  -0.448696  -0.993408  0  2.160252  0
O  O49  1  0.77043393  0.44115267  0.53359065  1  -1.422783  0  -0.448699  -0.993418  0  2.160225  0
O  O50  1  0.52320332  0.51281122  0.74286157  1  -1.142079  0  -0.340844  -0.431624  0  2.302314  0
O  O51  1  0.47680818  0.48718182  0.25713525  1  -1.142063  0  -0.340815  -0.431552  0  2.302154  0
O  O52  1  0.08043056  0.12852875  0.48784230  1  -1.135064  0  -0.349794  -0.437232  0  2.313976  0
O  O53  1  0.91956069  0.87147765  0.51215027  1  -1.135089  0  -0.349746  -0.437126  0  2.314019  0
