# generated using pymatgen
data_MnH8C4O7
_symmetry_space_group_name_H-M   'P 1'
_cell_length_a   9.11146360
_cell_length_b   8.49199073
_cell_length_c   10.23526032
_cell_angle_alpha   90.17006122
_cell_angle_beta   89.86746186
_cell_angle_gamma   87.28371455
_symmetry_Int_Tables_number   1
_chemical_formula_structural   MnH8C4O7
_chemical_formula_sum   'Mn4 H32 C16 O28'
_cell_volume   791.05211747
_cell_formula_units_Z   4
loop_
 _symmetry_equiv_pos_site_id
 _symmetry_equiv_pos_as_xyz
  1  'x, y, z'
loop_
 _atom_site_type_symbol
 _atom_site_label
 _atom_site_symmetry_multiplicity
 _atom_site_fract_x
 _atom_site_fract_y
 _atom_site_fract_z
 _atom_site_occupancy
 _atom_site_hle17_ddec_charge
 _atom_site_hle17_ddec_spin_density
 _atom_site_hle17_ddec_sum_bond_order
 _atom_site_hle17_magmom
 _atom_site_hse06_10hf_ddec_charge
 _atom_site_hse06_10hf_ddec_spin_density
 _atom_site_hse06_10hf_ddec_sum_bond_order
 _atom_site_hse06_10hf_magmom
 _atom_site_hse06_ddec_charge
 _atom_site_hse06_ddec_spin_density
 _atom_site_hse06_ddec_sum_bond_order
 _atom_site_hse06_magmom
 _atom_site_pbe_cm5_charge
 _atom_site_pbe_ddec_charge
 _atom_site_pbe_ddec_spin_density
 _atom_site_pbe_ddec_sum_bond_order
 _atom_site_pbe_magmom
Mn  Mn0  1  0.77508302  0.30692691  0.59413351  1  1.2589  -4.862343  1.676946  -4.668  1.089524  -4.735157  2.188546  -4.526  1.152304  -4.799897  2.110002  -4.59  0.618617  1.039536  -4.678113  2.245511  -4.464
Mn  Mn1  1  0.74238658  0.66419765  0.10376044  1  0.971516  -1.001076  2.510663  -0.979  0.853806  -1.014998  3.089643  -0.981  0.908837  -0.993646  3.009129  -0.961  0.565146  0.821845  -1.029346  3.137382  -0.993
Mn  Mn2  1  0.23418138  0.80354669  0.90981076  1  1.248002  4.83602  1.686621  4.659  1.075479  4.736144  2.202681  4.52  1.141993  4.787392  2.120589  4.585  0.613241  1.020196  4.684292  2.263885  4.453
Mn  Mn3  1  0.27381412  0.19388847  0.40450222  1  1.255359  4.844622  1.66744  4.667  1.085938  4.743936  2.179311  4.526  1.150212  4.793656  2.099655  4.589  0.621163  1.034982  4.698119  2.236764  4.464
H  H4  1  0.78634771  0.49294747  0.82609761  1  0.388888  0.000155  0.895564  -0.001  0.360466  -0.000575  0.968026  -0.002  0.371819  -0.000389  0.956894  -0.001  0.30757  0.352495  -0.000728  0.975476  -0.002
H  H5  1  0.71626411  0.50828940  0.32643090  1  0.384755  0.001385  0.898454  0.001  0.35749  -0.000107  0.969366  -0.001  0.368642  -5.1e-05  0.958337  -0.001  0.306718  0.350267  -0.000122  0.976577  -0.001
H  H6  1  0.21562002  0.99246793  0.67773144  1  0.389638  -0.000243  0.895463  0.001  0.361691  0.000298  0.967044  0.002  0.373628  2e-06  0.954901  0.001  0.303468  0.353137  0.000558  0.975597  0.002
H  H7  1  0.28121464  0.00488328  0.17504126  1  0.390652  -0.000158  0.90371  0.001  0.36297  0.000444  0.974197  0.002  0.37443  0.0001  0.962673  0.002  0.304603  0.35483  0.000764  0.982268  0.002
H  H8  1  0.66131270  0.69371957  0.72413325  1  0.058932  -0.000108  0.940372  0.0  0.06856  -0.00036  1.002447  0.0  0.070333  -0.000271  1.000933  0.0  0.11818  0.067018  -0.000391  1.003856  0.0
H  H9  1  0.83624608  0.30212528  0.23090576  1  0.054387  0.000621  0.942784  0.001  0.062308  0.000198  1.00872  0.0  0.064294  0.00018  1.006579  0.0  0.117709  0.060836  0.000313  1.010184  0.0
H  H10  1  0.33375997  0.18449653  0.78213076  1  0.062742  8e-06  0.929152  0.0  0.072078  0.000226  0.990382  0.0  0.074066  9.2e-05  0.988733  0.0  0.119151  0.070614  0.000256  0.991433  0.0
H  H11  1  0.18237522  0.80323594  0.27637767  1  0.051258  -0.000208  0.93484  0.0  0.059025  0.000418  1.000907  0.0  0.061807  0.000222  0.997934  0.0  0.110725  0.056672  0.000335  1.003426  0.0
H  H12  1  0.98840046  0.75146898  0.67869723  1  0.127622  0.000257  0.921633  0.0  0.139143  0.000368  0.981933  0.0  0.142223  0.000284  0.980119  0.0  0.107598  0.136952  0.00049  0.983026  0.0
H  H13  1  0.50787070  0.26126046  0.18154995  1  0.125576  0.0001  0.922173  0.0  0.138452  0.000363  0.98101  0.0  0.140677  0.000292  0.979692  0.0  0.108885  0.136882  0.000441  0.981872  0.0
H  H14  1  0.00170848  0.25258847  0.81721277  1  0.122962  -0.000289  0.93627  0.0  0.133121  -0.000608  1.0005  0.0  0.136072  -0.000526  0.998614  0.0  0.106373  0.130864  -0.000702  1.001968  0.0
H  H15  1  0.51507736  0.76435889  0.31873711  1  0.126949  0.000311  0.945612  0.0  0.13987  0.000451  1.004849  0.0  0.143385  0.000415  1.002922  0.0  0.108443  0.136683  0.000499  1.00705  0.001
H  H16  1  0.84097078  0.89532142  0.69773343  1  0.137778  -0.000369  0.919722  0.0  0.147367  0.000478  0.983884  0.001  0.152985  0.000203  0.979104  0.0  0.11365  0.142839  0.000662  0.987916  0.001
H  H17  1  0.64718111  0.10598948  0.17957555  1  0.150773  -0.000322  0.92304  0.0  0.163316  -5.3e-05  0.980997  0.0  0.166479  2.2e-05  0.979198  0.0  0.118994  0.160607  -0.000136  0.9829  0.0
H  H18  1  0.13941627  0.39554319  0.82063644  1  0.143519  0.000239  0.910718  0.0  0.155389  0.000562  0.970671  0.001  0.158793  0.000398  0.968004  0.0  0.11703  0.152608  0.000734  0.973242  0.001
H  H19  1  0.38976268  0.61080885  0.32803786  1  0.134235  0.0006  0.909679  0.001  0.145676  0.001155  0.970608  0.001  0.150609  0.000628  0.966481  0.001  0.112124  0.141507  0.001707  0.974414  0.002
H  H20  1  0.72189267  0.20530702  0.83959446  1  0.425587  -1.3e-05  0.886348  -0.001  0.39131  -0.000842  0.954625  -0.002  0.403409  -0.000566  0.937555  -0.002  0.292984  0.382916  -0.001001  0.966361  -0.002
H  H21  1  0.74373997  0.81671018  0.32649730  1  0.418284  0.000782  0.89219  0.001  0.387275  9.6e-05  0.956368  0.0  0.398872  0.00019  0.939717  0.0  0.293429  0.379343  0.000111  0.967774  0.0
H  H22  1  0.31131714  0.71932182  0.66558618  1  0.425295  0.000135  0.885064  0.001  0.390979  0.000988  0.953431  0.002  0.402974  0.000674  0.936537  0.002  0.292434  0.382726  0.001229  0.964932  0.003
H  H23  1  0.19884931  0.29741401  0.15884600  1  0.431085  -5.1e-05  0.880611  0.001  0.394046  0.000699  0.952718  0.002  0.406824  0.000409  0.934684  0.002  0.291533  0.385287  0.000891  0.964967  0.002
H  H24  1  0.62075529  0.09055725  0.75865542  1  0.451088  -0.000325  0.841878  -0.002  0.420943  -0.000855  0.901771  -0.003  0.432313  -0.000603  0.885519  -0.003  0.297743  0.412819  -0.001118  0.913274  -0.003
H  H25  1  0.83581527  0.91768382  0.22678875  1  0.42542  2.6e-05  0.871645  0.0  0.401885  0.000319  0.925597  0.0  0.411769  0.000216  0.911179  0.0  0.300469  0.394675  0.000204  0.936005  0.0
H  H26  1  0.40908830  0.59788753  0.75209676  1  0.454737  0.000196  0.839598  0.002  0.424039  0.000795  0.900133  0.003  0.43567  0.000554  0.883504  0.002  0.298508  0.415615  0.001036  0.912081  0.003
H  H27  1  0.09670230  0.40994461  0.25226539  1  0.44206  0.000553  0.817736  0.002  0.419678  0.001302  0.873873  0.003  0.429683  0.000736  0.859536  0.002  0.320442  0.412262  0.001806  0.884482  0.003
H  H28  1  0.52734942  0.34642144  0.73791928  1  0.411679  -7e-05  0.892685  0.0  0.381909  -0.000595  0.955374  0.0  0.392376  -0.000459  0.939567  0.0  0.291324  0.374496  -0.000737  0.966464  0.0
H  H29  1  0.99059698  0.69064017  0.21293135  1  0.412438  0.00019  0.830001  0.0  0.396195  0.000413  0.884158  0.0  0.404211  0.000568  0.875971  0.0  0.327293  0.390991  -3e-05  0.889359  -0.001
H  H30  1  0.48953823  0.86110313  0.78343661  1  0.413626  0.000133  0.89077  0.0  0.383115  0.000696  0.955408  0.0  0.39335  0.000528  0.939961  0.0  0.290526  0.375949  0.000846  0.966166  0.0
H  H31  1  0.01888078  0.11892347  0.25371834  1  0.407324  -7.1e-05  0.882551  0.0  0.379406  0.000291  0.951763  0.0  0.388381  0.000152  0.938062  0.0  0.293598  0.373267  0.000418  0.961098  0.0
H  H32  1  0.38700131  0.38841987  0.64920476  1  0.425594  -0.000835  0.875337  0.0  0.394018  -0.000954  0.939858  0.0  0.404591  -0.00093  0.92452  0.0  0.295021  0.386668  -0.000856  0.950448  0.0
H  H33  1  0.01046682  0.64214204  0.06535181  1  0.427229  -0.001084  0.870281  -0.001  0.395744  -0.001644  0.940813  -0.001  0.40652  -0.0015  0.925443  -0.001  0.304868  0.387298  -0.001661  0.953346  -0.001
H  H34  1  0.62035376  0.88918507  0.88026086  1  0.426004  0.000256  0.867838  0.0  0.397618  0.00012  0.928892  0.0  0.407635  0.000203  0.914298  0.0  0.300771  0.390452  8e-06  0.93934  0.0
H  H35  1  0.89347626  0.08819569  0.35359308  1  0.421529  0.000872  0.878399  0.0  0.392269  0.000995  0.939821  0.0  0.402648  0.000963  0.924697  0.0  0.295798  0.385167  0.000983  0.95012  0.0
C  C36  1  0.75197214  0.65483859  0.53565303  1  0.654299  -0.00113  3.822289  -0.002  0.601582  -0.003006  4.123131  -0.003  0.633771  -0.002203  4.118275  -0.003  0.227703  0.579517  -0.003645  4.125959  -0.004
C  C37  1  0.75707416  0.34191277  0.03881442  1  0.645808  0.001017  3.797715  0.0  0.595709  -0.003097  4.092214  -0.003  0.631348  -0.002667  4.085568  -0.002  0.228637  0.570014  -0.003338  4.09675  -0.003
C  C38  1  0.23985773  0.15166717  0.96866788  1  0.660604  0.002114  3.811833  0.002  0.607911  0.00508  4.109282  0.005  0.641196  0.003392  4.103307  0.003  0.232406  0.585116  0.006406  4.112787  0.006
C  C39  1  0.26133927  0.85022319  0.46646492  1  0.651744  0.001815  3.819382  0.002  0.599666  0.004766  4.119308  0.004  0.63325  0.003109  4.112965  0.003  0.226257  0.576401  0.006313  4.123085  0.006
C  C40  1  0.77001020  0.65747302  0.68420147  1  0.1406  -0.001499  3.606199  -0.002  0.117215  -0.001024  3.854737  -0.001  0.120792  -0.001053  3.862842  -0.001  0.006522  0.114071  -0.001118  3.849478  -0.001
C  C41  1  0.73088000  0.33900909  0.18548469  1  0.13802  -0.000112  3.611461  -0.001  0.113682  0.002425  3.859423  0.002  0.117071  0.00259  3.868096  0.002  0.007079  0.110724  0.002004  3.853881  0.002
C  C42  1  0.22542394  0.15510416  0.82043398  1  0.13738  0.000809  3.634374  0.001  0.114081  0.00191  3.882715  0.002  0.11666  0.001351  3.891522  0.001  0.005111  0.111925  0.002584  3.876732  0.002
C  C43  1  0.28545894  0.84250317  0.31891404  1  0.146001  0.001512  3.627814  0.002  0.119371  0.003067  3.882774  0.003  0.122443  0.002045  3.890351  0.002  0.004125  0.117218  0.004081  3.877137  0.004
C  C44  1  0.88247726  0.77724065  0.72732401  1  -0.33092  0.000344  3.650063  0.001  -0.379729  0.000715  3.913308  -0.001  -0.387521  0.000435  3.913189  0.0  -0.162535  -0.373824  0.001097  3.913805  -0.001
C  C45  1  0.61505879  0.22195488  0.22159101  1  -0.342859  -0.000789  3.657013  -0.001  -0.388267  0.00134  3.906053  0.001  -0.395083  0.001117  3.911559  0.001  -0.16321  -0.383493  0.001528  3.902987  0.001
C  C46  1  0.10951812  0.28209979  0.77892103  1  -0.338198  -0.000231  3.6604  0.0  -0.385721  -0.000508  3.914163  0.0  -0.391978  -0.000593  3.918845  0.0  -0.164069  -0.38156  -0.000265  3.911911  0.0
C  C47  1  0.41084526  0.72414050  0.28128208  1  -0.324546  -0.000502  3.645118  -0.001  -0.370894  0.000186  3.89766  -0.001  -0.377876  -0.000123  3.898314  0.0  -0.163971  -0.366074  0.000685  3.899369  -0.001
C  C48  1  0.90101698  0.76632016  0.87364048  1  0.727601  -0.008294  3.714676  -0.007  0.661476  0.030751  4.029325  0.026  0.710965  0.0181  4.008853  0.015  0.220874  0.624993  0.039616  4.044339  0.033
C  C49  1  0.60830223  0.20872331  0.36852154  1  0.758703  0.00062  3.770442  0.002  0.704256  0.00047  4.070392  0.002  0.742325  0.000519  4.061014  0.002  0.238185  0.676491  0.000714  4.076744  0.002
C  C50  1  0.10748219  0.29142157  0.63164459  1  0.745096  -0.000993  3.787656  -0.002  0.6936  -0.001078  4.083929  -0.003  0.730128  -0.00096  4.076179  -0.002  0.234313  0.66744  -0.001478  4.088777  -0.003
C  C51  1  0.41721321  0.70166633  0.13418638  1  0.721378  0.013148  3.752137  0.009  0.671006  0.017524  4.053491  0.014  0.717166  0.008432  4.038259  0.007  0.219114  0.635414  0.025741  4.065241  0.02
O  O52  1  0.75493522  0.51829439  0.47900667  1  -0.660427  -0.032658  2.066239  -0.022  -0.587092  -0.037489  2.319887  -0.024  -0.6185  -0.034103  2.305557  -0.021  -0.305768  -0.564273  -0.040933  2.329191  -0.027
O  O53  1  0.75350537  0.47912030  0.98436436  1  -0.590246  0.004076  2.164394  0.008  -0.518524  -0.000881  2.417723  0.005  -0.55537  -0.001489  2.407216  0.004  -0.297132  -0.491677  -0.000564  2.421999  0.005
O  O54  1  0.23197857  0.01754774  0.02544633  1  -0.650082  0.031386  2.077709  0.021  -0.575894  0.03727  2.329659  0.024  -0.607837  0.033617  2.314736  0.021  -0.29954  -0.55214  0.040596  2.339276  0.026
O  O55  1  0.25861078  0.98714362  0.52179064  1  -0.65915  0.034443  2.06861  0.025  -0.583899  0.039121  2.320325  0.027  -0.616916  0.034925  2.306631  0.023  -0.305032  -0.559319  0.043244  2.329003  0.031
O  O56  1  0.73308792  0.78467884  0.47951920  1  -0.57421  -0.002356  1.95576  -0.003  -0.52481  -0.004283  2.166462  -0.005  -0.548508  -0.003259  2.157225  -0.004  -0.300401  -0.508982  -0.005164  2.173216  -0.006
O  O57  1  0.78214133  0.21388454  0.97973195  1  -0.584183  1.1e-05  1.95183  0.0  -0.532186  -0.002539  2.158419  -0.003  -0.558441  -0.002298  2.149113  -0.003  -0.305623  -0.513588  -0.003189  2.164885  -0.004
O  O58  1  0.25894154  0.28046578  0.02559645  1  -0.581083  0.001831  1.959196  0.003  -0.529998  0.003445  2.169641  0.004  -0.553941  0.002336  2.158597  0.003  -0.304468  -0.513753  0.004933  2.177254  0.006
O  O59  1  0.24479426  0.72308316  0.52561386  1  -0.589197  0.002405  1.944907  0.003  -0.540552  0.004109  2.156  0.005  -0.564762  0.002791  2.145748  0.004  -0.311105  -0.523847  0.005859  2.162932  0.007
O  O60  1  0.78782349  0.78847180  0.94640512  1  -0.590806  0.011746  2.153694  0.02  -0.52406  0.000169  2.426564  0.005  -0.554756  0.000176  2.405845  0.005  -0.29398  -0.503593  0.003034  2.440214  0.007
O  O61  1  0.72971534  0.17715259  0.42857941  1  -0.674947  -0.029181  2.047808  -0.013  -0.593269  -0.030969  2.304784  -0.01  -0.62716  -0.029044  2.288098  -0.009  -0.308433  -0.568312  -0.03303  2.31576  -0.012
O  O62  1  0.22711913  0.32501011  0.57392679  1  -0.665471  0.027095  2.049457  0.012  -0.58627  0.028466  2.303377  0.009  -0.619705  0.026727  2.287472  0.008  -0.304582  -0.561508  0.03032  2.313574  0.011
O  O63  1  0.29262511  0.68913435  0.07659030  1  -0.685982  0.043872  2.016941  0.03  -0.622423  0.048539  2.297022  0.03  -0.655232  0.039387  2.275959  0.021  -0.340134  -0.596509  0.057935  2.313514  0.04
O  O64  1  0.02675957  0.71648346  0.92078735  1  -0.679577  0.032197  2.070118  0.014  -0.605921  0.048288  2.348677  0.027  -0.634177  0.041502  2.321375  0.021  -0.315811  -0.585229  0.054479  2.36905  0.032
O  O65  1  0.48927941  0.23792846  0.43011088  1  -0.659906  0.033798  2.04581  0.02  -0.59587  0.035819  2.333177  0.017  -0.628978  0.032024  2.313653  0.014  -0.306915  -0.57102  0.04021  2.3457  0.022
O  O66  1  0.99503813  0.25540231  0.56706301  1  -0.663028  -0.03207  2.037529  -0.019  -0.600392  -0.033429  2.322272  -0.016  -0.63194  -0.030085  2.303152  -0.013  -0.307535  -0.576852  -0.037451  2.334719  -0.02
O  O67  1  0.53688303  0.69996346  0.06976635  1  -0.582605  0.00084  2.169676  0.008  -0.528854  -0.006415  2.459567  0.001  -0.565845  -0.00374  2.442463  0.004  -0.304455  -0.501352  -0.007751  2.46873  -0.001
O  O68  1  0.80991806  0.50159245  0.72987492  1  -0.599223  -0.028338  2.164306  -0.017  -0.529296  -0.035903  2.41566  -0.023  -0.553265  -0.032671  2.402441  -0.02  -0.384044  -0.51124  -0.039063  2.424193  -0.027
O  O69  1  0.68745250  0.49567711  0.23101378  1  -0.550169  -0.000878  2.248184  0.001  -0.483693  -0.001425  2.50669  0.0  -0.512592  -0.00104  2.498401  -0.001  -0.378981  -0.463355  -0.000912  2.510803  0.001
O  O70  1  0.18981208  0.00226099  0.77391693  1  -0.596018  0.027416  2.146451  0.017  -0.52624  0.035243  2.39454  0.023  -0.550597  0.031787  2.380902  0.02  -0.382596  -0.507723  0.038607  2.40325  0.026
O  O71  1  0.31125979  0.99727029  0.27035341  1  -0.602744  0.030054  2.154863  0.019  -0.530581  0.037362  2.405801  0.025  -0.555188  0.033503  2.391908  0.021  -0.385433  -0.512137  0.041318  2.414737  0.028
O  O72  1  0.67254180  0.19355623  0.75057477  1  -0.89569  -0.036844  1.913624  -0.018  -0.819141  -0.046217  2.135954  -0.023  -0.847597  -0.041924  2.094587  -0.02  -0.566894  -0.798023  -0.050168  2.163937  -0.027
O  O73  1  0.75358273  0.84412754  0.23069837  1  -0.824731  -0.012559  2.029612  -0.009  -0.771633  -0.004823  2.258014  -0.001  -0.80159  -0.004611  2.222737  0.0  -0.574171  -0.748725  -0.005778  2.279187  -0.002
O  O74  1  0.36221023  0.70925200  0.75438334  1  -0.892547  0.038112  1.920292  0.02  -0.81524  0.047087  2.143959  0.025  -0.844318  0.042376  2.102754  0.021  -0.565913  -0.79365  0.051233  2.17197  0.028
O  O75  1  0.14874810  0.30644892  0.25062742  1  -0.875942  0.03349  1.888647  0.015  -0.806779  0.044125  2.116096  0.021  -0.83276  0.039699  2.073638  0.017  -0.555495  -0.787556  0.048126  2.144864  0.024
O  O76  1  0.46805619  0.43439959  0.69898879  1  -0.834549  -0.0032  1.848181  -0.001  -0.783278  -0.006547  2.01492  -0.003  -0.802169  -0.005809  1.981541  -0.003  -0.578488  -0.769201  -0.00724  2.037778  -0.004
O  O77  1  0.96462426  0.60861843  0.15113616  1  -0.781076  -0.005912  1.946418  0.001  -0.725342  -0.000217  2.151005  0.008  -0.75445  -0.001033  2.125749  0.007  -0.54144  -0.703656  0.000338  2.168425  0.009
O  O78  1  0.54517740  0.94478805  0.82535512  1  -0.827369  0.001881  1.831204  0.0  -0.777478  0.004137  1.991619  0.002  -0.796766  0.003684  1.960571  0.002  -0.576463  -0.76323  0.004585  2.012891  0.002
O  O79  1  0.96462461  0.03402793  0.29306294  1  -0.823175  0.001614  1.821061  0.001  -0.778328  0.003431  1.981357  0.002  -0.796113  0.002833  1.950834  0.002  -0.581836  -0.765223  0.003736  2.001751  0.002
