# generated using pymatgen
data_CuH5C10N3O4
_symmetry_space_group_name_H-M   'P 1'
_cell_length_a   12.08493474
_cell_length_b   14.58707909
_cell_length_c   20.42761651
_cell_angle_alpha   90.00002130
_cell_angle_beta   90.00002425
_cell_angle_gamma   90.00008878
_symmetry_Int_Tables_number   1
_chemical_formula_structural   CuH5C10N3O4
_chemical_formula_sum   'Cu8 H40 C80 N24 O32'
_cell_volume   3601.05988242
_cell_formula_units_Z   8
loop_
 _symmetry_equiv_pos_site_id
 _symmetry_equiv_pos_as_xyz
  1  'x, y, z'
loop_
 _atom_site_type_symbol
 _atom_site_label
 _atom_site_symmetry_multiplicity
 _atom_site_fract_x
 _atom_site_fract_y
 _atom_site_fract_z
 _atom_site_occupancy
 _atom_site_pbe_bader_charge
 _atom_site_pbe_bader_spin_density
 _atom_site_pbe_cm5_charge
 _atom_site_pbe_ddec_charge
 _atom_site_pbe_ddec_spin_density
 _atom_site_pbe_ddec_sum_bond_order
 _atom_site_pbe_magmom
Cu  Cu0  1  0.42784320  0.36643228  0.70236202  1  1.095446  0.588262  0.692154  0.782299  0.741834  2.380678  0.589
Cu  Cu1  1  0.07215698  0.13356693  0.20236333  1  1.092007  0.588122  0.69214  0.782253  0.741827  2.380751  0.589
Cu  Cu2  1  0.92784471  0.13356682  0.29763789  1  1.094886  0.588245  0.692169  0.782312  0.741852  2.380609  0.589
Cu  Cu3  1  0.57215597  0.36643446  0.79763650  1  1.091295  0.588098  0.69216  0.782337  0.741828  2.380594  0.589
Cu  Cu4  1  0.57215356  0.63356594  0.29763645  1  1.091267  0.588085  0.692112  0.782283  0.741821  2.380727  0.589
Cu  Cu5  1  0.92784475  0.86643334  0.79763612  1  1.091365  0.588099  0.692165  0.782313  0.74183  2.380601  0.589
Cu  Cu6  1  0.07215702  0.86643414  0.70236156  1  1.095468  0.588263  0.692149  0.782257  0.741832  2.380714  0.589
Cu  Cu7  1  0.42784079  0.63356719  0.20236149  1  1.095549  0.588275  0.692214  0.782355  0.741846  2.380519  0.589
H  H8  1  0.13100462  0.72887894  0.94127635  1  0.107954  0.000301  0.111317  0.121901  0.000206  1.001716  0.0
H  H9  1  0.36899336  0.77111977  0.44127924  1  0.107972  0.000302  0.11135  0.121923  0.000206  1.001689  0.0
H  H10  1  0.63100622  0.77112053  0.05872216  1  0.107966  0.000301  0.111372  0.122017  0.000206  1.001619  0.0
H  H11  1  0.86899192  0.72888069  0.55871982  1  0.107913  0.000302  0.111348  0.121944  0.000206  1.001679  0.0
H  H12  1  0.86899462  0.27112065  0.05872212  1  0.107978  0.000301  0.111351  0.12192  0.000206  1.001672  0.0
H  H13  1  0.63100589  0.22887913  0.55872266  1  0.107966  0.000302  0.111313  0.121868  0.000206  1.001698  0.0
H  H14  1  0.36899220  0.22888044  0.94127925  1  0.107954  0.000302  0.111355  0.121978  0.000206  1.001619  0.0
H  H15  1  0.13100650  0.27112028  0.44127914  1  0.107964  0.000301  0.111345  0.121893  0.000206  1.001701  0.0
H  H16  1  0.37735991  0.51356458  0.94354289  1  0.081065  0.000368  0.109915  0.120603  0.000264  1.004833  0.0
H  H17  1  0.12263807  0.98643414  0.44354626  1  0.081007  0.000368  0.109918  0.120618  0.000264  1.004855  0.0
H  H18  1  0.87736273  0.98643521  0.05645715  1  0.081044  0.000368  0.109901  0.12057  0.000264  1.004837  0.0
H  H19  1  0.62263540  0.51356669  0.55645371  1  0.081133  0.000368  0.109941  0.120632  0.000264  1.004814  0.0
H  H20  1  0.62263768  0.48643433  0.05645509  1  0.08101  0.000368  0.109908  0.120593  0.000264  1.004868  0.0
H  H21  1  0.87736200  0.01356545  0.55645661  1  0.081047  0.000369  0.109903  0.120581  0.000264  1.004851  0.0
H  H22  1  0.12263734  0.01356507  0.94354524  1  0.081011  0.000368  0.109912  0.120585  0.000264  1.004818  0.0
H  H23  1  0.37736384  0.48643496  0.44354378  1  0.081037  0.000368  0.109923  0.1206  0.000264  1.004783  0.0
H  H24  1  0.24905143  0.61345148  0.76046769  1  0.102203  0.000606  0.122682  0.140375  0.000444  0.969684  0.0
H  H25  1  0.25095056  0.88654989  0.26047009  1  0.102214  0.000606  0.122658  0.140305  0.000444  0.969648  0.0
H  H26  1  0.74905171  0.88654746  0.23953134  1  0.102246  0.000606  0.12264  0.140281  0.000444  0.969703  0.0
H  H27  1  0.75094987  0.61345111  0.73952894  1  0.102264  0.000606  0.122669  0.140328  0.000444  0.969631  0.0
H  H28  1  0.75094865  0.38654949  0.23952980  1  0.102269  0.000606  0.122675  0.140338  0.000444  0.969722  0.0
H  H29  1  0.74905200  0.11345176  0.73953230  1  0.102204  0.000606  0.122674  0.140347  0.000444  0.969719  0.0
H  H30  1  0.25095084  0.11345076  0.76047007  1  0.102271  0.000606  0.12265  0.140298  0.000444  0.969665  0.0
H  H31  1  0.24905021  0.38654711  0.26046904  1  0.102235  0.000605  0.122703  0.140394  0.000443  0.969741  0.0
H  H32  1  0.07982148  0.63430525  0.04404586  1  0.141336  -5.3e-05  0.146331  0.117527  -5.2e-05  0.965482  0.0
H  H33  1  0.42017787  0.86569257  0.54404700  1  0.141351  -5.3e-05  0.146373  0.117601  -5.1e-05  0.965459  0.0
H  H34  1  0.57982224  0.86569552  0.95595508  1  0.14134  -5.3e-05  0.146345  0.117558  -5.2e-05  0.965435  0.0
H  H35  1  0.92017701  0.63430727  0.45595403  1  0.141356  -5.3e-05  0.146351  0.117564  -5.2e-05  0.965464  0.0
H  H36  1  0.92017777  0.36569365  0.95595506  1  0.141327  -5.2e-05  0.146343  0.117557  -5.1e-05  0.965437  0.0
H  H37  1  0.57982138  0.13430497  0.45595441  1  0.14133  -5.3e-05  0.146328  0.117535  -5.2e-05  0.96549  0.0
H  H38  1  0.42017783  0.13430681  0.04404633  1  0.141351  -5.3e-05  0.146351  0.117552  -5.2e-05  0.965449  0.0
H  H39  1  0.07982223  0.36569438  0.54404689  1  0.141364  -5.2e-05  0.14637  0.117581  -5.1e-05  0.96548  0.0
H  H40  1  0.42912331  0.61879792  0.04451145  1  0.175182  -6.1e-05  0.146039  0.119211  -7.3e-05  0.975311  0.0
H  H41  1  0.07087604  0.88120059  0.54451152  1  0.175172  -6e-05  0.146022  0.11922  -7.3e-05  0.97535  0.0
H  H42  1  0.92912327  0.88120194  0.95548860  1  0.175159  -6e-05  0.146055  0.119244  -7.3e-05  0.975378  0.0
H  H43  1  0.57087515  0.61879880  0.45548893  1  0.175145  -6.1e-05  0.146048  0.119238  -7.3e-05  0.975355  0.0
H  H44  1  0.57087676  0.38120099  0.95548898  1  0.175173  -6e-05  0.146024  0.119213  -7.3e-05  0.975327  0.0
H  H45  1  0.92912238  0.11879832  0.45548891  1  0.175182  -6.1e-05  0.146028  0.119208  -7.3e-05  0.975333  0.0
H  H46  1  0.07087515  0.11879903  0.04451134  1  0.175148  -6.1e-05  0.146035  0.119226  -7.3e-05  0.975368  0.0
H  H47  1  0.42912409  0.38120216  0.54451248  1  0.175368  -6e-05  0.146016  0.1192  -7.3e-05  0.975347  0.0
C  C48  1  0.39060608  0.48877001  0.81281643  1  1.567943  -0.00164  0.215747  0.577778  -0.002092  4.163606  -0.004
C  C49  1  0.10939418  0.01123064  0.31281967  1  1.568361  -0.001642  0.215757  0.577827  -0.002092  4.163505  -0.004
C  C50  1  0.89060811  0.01122974  0.18718348  1  1.568304  -0.001642  0.215672  0.577735  -0.002091  4.163583  -0.004
C  C51  1  0.60939166  0.48877080  0.68718016  1  1.568412  -0.001643  0.215722  0.577834  -0.002091  4.163219  -0.004
C  C52  1  0.60938902  0.51123096  0.18717959  1  1.568045  -0.001637  0.215695  0.577661  -0.002088  4.163637  -0.004
C  C53  1  0.89060921  0.98877101  0.68718222  1  1.568293  -0.001643  0.215685  0.577747  -0.002092  4.163548  -0.004
C  C54  1  0.10939444  0.98876986  0.81281793  1  1.568366  -0.001644  0.215796  0.577862  -0.002093  4.16337  -0.004
C  C55  1  0.39060262  0.51122948  0.31281586  1  1.568442  -0.001639  0.215739  0.577812  -0.002088  4.163448  -0.004
C  C56  1  0.32017384  0.55710442  0.84863069  1  0.018599  0.016789  -0.004295  0.006882  0.011676  3.953091  0.013
C  C57  1  0.17982655  0.94289631  0.34863358  1  0.018622  0.016777  -0.004331  0.006814  0.011668  3.953308  0.013
C  C58  1  0.82017500  0.94289530  0.15136933  1  0.018645  0.016778  -0.004243  0.006882  0.011668  3.95326  0.013
C  C59  1  0.67982486  0.55710460  0.65136641  1  0.018613  0.016788  -0.0043  0.006842  0.011674  3.953256  0.013
C  C60  1  0.67982375  0.44289655  0.15136729  1  0.018636  0.016774  -0.004308  0.00684  0.011665  3.953266  0.013
C  C61  1  0.82017517  0.05710466  0.65136881  1  0.018622  0.016789  -0.004271  0.006852  0.011676  3.953321  0.013
C  C62  1  0.17982590  0.05710430  0.84863257  1  0.018642  0.016788  -0.004298  0.006856  0.011674  3.953278  0.013
C  C63  1  0.32017190  0.44289637  0.34863157  1  0.018583  0.016772  -0.004314  0.006877  0.011664  3.953158  0.013
C  C64  1  0.11143808  0.74446735  0.81107663  1  1.580163  -0.001908  0.216616  0.577678  -0.002334  4.164926  -0.005
C  C65  1  0.38856063  0.75553267  0.31107903  1  1.579773  -0.001901  0.216664  0.577679  -0.002329  4.16496  -0.005
C  C66  1  0.61143395  0.75553210  0.18891894  1  1.579694  -0.001903  0.216649  0.577799  -0.002331  4.164787  -0.005
C  C67  1  0.88856428  0.74446919  0.68891759  1  1.579778  -0.001904  0.216716  0.577726  -0.002334  4.164885  -0.005
C  C68  1  0.88856365  0.25553293  0.18892135  1  1.579655  -0.001904  0.216561  0.577555  -0.002332  4.16504  -0.005
C  C69  1  0.61143613  0.24446761  0.68892091  1  1.579654  -0.001903  0.216566  0.577574  -0.002331  4.165141  -0.005
C  C70  1  0.38856282  0.24446750  0.81107953  1  1.579611  -0.001904  0.216568  0.577651  -0.002332  4.164918  -0.005
C  C71  1  0.11143662  0.25553178  0.31107990  1  1.579622  -0.001904  0.216583  0.577638  -0.002333  4.164909  -0.005
C  C72  1  0.25382108  0.62125090  0.95013544  1  0.274027  0.001554  0.09014  0.158356  0.000903  4.066082  0.001
C  C73  1  0.24617691  0.87874714  0.45013685  1  0.27381  0.001544  0.090087  0.158405  0.000896  4.066069  0.001
C  C74  1  0.75382369  0.87874805  0.04986457  1  0.274004  0.001548  0.090187  0.158418  0.000899  4.066078  0.001
C  C75  1  0.74617692  0.62125248  0.54986315  1  0.274006  0.001553  0.090146  0.158455  0.000902  4.066144  0.001
C  C76  1  0.74617817  0.37874527  0.04986352  1  0.274012  0.001541  0.090165  0.158494  0.000894  4.065924  0.001
C  C77  1  0.75382316  0.12125177  0.54986407  1  0.274003  0.001552  0.090119  0.158355  0.000902  4.066117  0.001
C  C78  1  0.24617721  0.12125223  0.95013635  1  0.274011  0.001552  0.090132  0.158437  0.000901  4.066116  0.001
C  C79  1  0.25382232  0.37874848  0.45013630  1  0.274009  0.001545  0.090168  0.158501  0.000897  4.066006  0.001
C  C80  1  0.18366766  0.67995142  0.91576432  1  -0.11591  0.001144  -0.079443  -0.178147  0.000483  3.944086  0.001
C  C81  1  0.31632948  0.82004728  0.41576623  1  -0.115951  0.001155  -0.079448  -0.17813  0.000491  3.944217  0.001
C  C82  1  0.68366936  0.82004812  0.08423420  1  -0.115948  0.001149  -0.079565  -0.178332  0.000486  3.944095  0.001
C  C83  1  0.81633045  0.67995174  0.58423331  1  -0.115916  0.001143  -0.079493  -0.178215  0.000481  3.944236  0.001
C  C84  1  0.81633076  0.32004886  0.08423513  1  -0.115963  0.001158  -0.079464  -0.178167  0.000494  3.94405  0.001
C  C85  1  0.68367060  0.17995163  0.58423567  1  -0.115879  0.001143  -0.079424  -0.178045  0.000481  3.944048  0.001
C  C86  1  0.31633071  0.17995216  0.91576574  1  -0.115947  0.001144  -0.079499  -0.178231  0.000482  3.944015  0.001
C  C87  1  0.18366962  0.32004854  0.41576565  1  -0.115939  0.001154  -0.079471  -0.178155  0.000491  3.944107  0.001
C  C88  1  0.32292192  0.56014274  0.91708998  1  0.028299  0.001152  -0.080235  -0.178394  0.000687  3.942084  0.001
C  C89  1  0.17707687  0.93985870  0.41709188  1  0.028253  0.001163  -0.080231  -0.178454  0.000696  3.942074  0.001
C  C90  1  0.82292385  0.93985629  0.08290956  1  0.028302  0.00116  -0.08023  -0.178333  0.000694  3.942135  0.001
C  C91  1  0.67707514  0.56014220  0.58290811  1  0.028124  0.001155  -0.080276  -0.17847  0.000689  3.942085  0.001
C  C92  1  0.67707567  0.43985754  0.08290800  1  0.028293  0.001167  -0.080259  -0.178436  0.0007  3.941965  0.001
C  C93  1  0.82292320  0.06014363  0.58290904  1  0.028291  0.001153  -0.080236  -0.178394  0.000688  3.942237  0.001
C  C94  1  0.17707623  0.06014262  0.91709185  1  0.028273  0.001155  -0.080213  -0.178381  0.00069  3.942128  0.001
C  C95  1  0.32292328  0.43985671  0.41709085  1  0.028307  0.001165  -0.080269  -0.178465  0.000698  3.942032  0.001
C  C96  1  0.25058145  0.61595508  0.81369661  1  0.04761  0.002337  -0.058878  -0.088184  0.001445  3.861649  0.002
C  C97  1  0.24941726  0.88404563  0.31369901  1  0.047725  0.002349  -0.058822  -0.08807  0.001455  3.861463  0.002
C  C98  1  0.75058169  0.88404455  0.18630193  1  0.047653  0.002349  -0.058819  -0.088018  0.001455  3.861557  0.002
C  C99  1  0.74941819  0.61595399  0.68630051  1  0.047716  0.002335  -0.058825  -0.088072  0.001443  3.861434  0.002
C  C100  1  0.74941614  0.38404589  0.18630186  1  0.047659  0.002354  -0.05886  -0.088116  0.001459  3.861644  0.002
C  C101  1  0.75058281  0.11595396  0.68630338  1  0.047656  0.002334  -0.0589  -0.088138  0.001443  3.861715  0.002
C  C102  1  0.24941838  0.11595436  0.81369850  1  0.047657  0.002338  -0.058841  -0.088086  0.001446  3.861572  0.002
C  C103  1  0.25058023  0.38404629  0.31369747  1  0.047653  0.002357  -0.058877  -0.088187  0.001462  3.861598  0.002
C  C104  1  0.18305530  0.67773506  0.84740000  1  0.066456  0.017333  -0.00364  0.010277  0.01206  3.957331  0.014
C  C105  1  0.31694427  0.82226429  0.34740289  1  0.066473  0.017324  -0.003724  0.010192  0.012054  3.95729  0.014
C  C106  1  0.68305292  0.82226516  0.15259803  1  0.066397  0.017326  -0.003705  0.010169  0.012056  3.95728  0.014
C  C107  1  0.81694611  0.67773542  0.65259664  1  0.066477  0.017336  -0.003756  0.010172  0.012062  3.957283  0.014
C  C108  1  0.81694478  0.32226522  0.15259847  1  0.066417  0.017317  -0.003717  0.010192  0.012049  3.957292  0.014
C  C109  1  0.68305498  0.17773461  0.65259901  1  0.066396  0.017335  -0.003647  0.010194  0.012062  3.957347  0.014
C  C110  1  0.31694550  0.17773580  0.84740240  1  0.066394  0.017333  -0.003678  0.010215  0.01206  3.957228  0.014
C  C111  1  0.18305396  0.32226418  0.34740232  1  0.066428  0.017317  -0.00366  0.01025  0.01205  3.957221  0.014
C  C112  1  0.16470485  0.63290819  0.06122751  1  0.943565  0.00015  0.145617  0.06067  0.000111  3.953818  0.0
C  C113  1  0.33529451  0.86708965  0.56122814  1  0.943542  0.000149  0.145568  0.060579  0.000111  3.95394  0.0
C  C114  1  0.66470561  0.86709270  0.93877296  1  0.943556  0.00015  0.145638  0.060685  0.000111  3.953887  0.0
C  C115  1  0.83529363  0.63291009  0.43877287  1  0.943537  0.000149  0.145606  0.060666  0.000111  3.953777  0.0
C  C116  1  0.83529522  0.36709072  0.93877292  1  0.943551  0.000148  0.145643  0.060695  0.00011  3.953847  0.0
C  C117  1  0.66470474  0.13290789  0.43877278  1  0.943553  0.00015  0.145649  0.060634  0.000111  3.953881  0.0
C  C118  1  0.33529364  0.13290964  0.06122796  1  0.943557  0.00015  0.145644  0.060737  0.000111  3.95381  0.0
C  C119  1  0.16470644  0.36709156  0.56122854  1  0.943562  0.000149  0.145573  0.060592  0.000111  3.953955  0.0
C  C120  1  0.34392964  0.62345953  0.06066995  1  0.950138  -0.000774  0.155847  0.088987  -0.000913  3.900231  0.0
C  C121  1  0.15606889  0.87653899  0.56067005  1  0.950572  -0.000774  0.15582  0.08889  -0.000914  3.900276  0.0
C  C122  1  0.84393207  0.87653953  0.93933056  1  0.950092  -0.000774  0.155822  0.088947  -0.000914  3.900172  0.0
C  C123  1  0.65606717  0.62346120  0.43933042  1  0.950236  -0.000773  0.155818  0.088932  -0.000912  3.900143  0.0
C  C124  1  0.65606960  0.37653938  0.93933047  1  0.950113  -0.000775  0.155797  0.08888  -0.000915  3.900307  0.0
C  C125  1  0.84393036  0.12345992  0.43933038  1  0.950108  -0.000774  0.155818  0.088902  -0.000913  3.900236  0.0
C  C126  1  0.15606801  0.12346075  0.06066986  1  0.950102  -0.000773  0.155829  0.088909  -0.000913  3.900196  0.0
C  C127  1  0.34393125  0.37653977  0.56067001  1  0.949913  -0.000774  0.155862  0.088995  -0.000914  3.900131  0.0
N  N128  1  0.31081654  0.63062340  0.12191988  1  -0.736415  -0.001502  -0.235869  -0.170931  -0.000751  3.439538  0.0
N  N129  1  0.18918286  0.86937653  0.62191998  1  -0.736906  -0.001504  -0.23585  -0.170797  -0.000753  3.439508  0.0
N  N130  1  0.81081643  0.86937631  0.87807965  1  -0.736368  -0.001505  -0.235892  -0.170927  -0.000754  3.439456  0.0
N  N131  1  0.68918194  0.63062371  0.37807952  1  -0.736399  -0.001503  -0.235811  -0.170733  -0.000752  3.43934  0.0
N  N132  1  0.68918353  0.36937688  0.87808006  1  -0.736365  -0.001506  -0.235836  -0.170814  -0.000754  3.439346  0.0
N  N133  1  0.81081639  0.13062307  0.37807996  1  -0.73638  -0.001502  -0.235845  -0.170863  -0.000752  3.439365  0.0
N  N134  1  0.18918282  0.13062466  0.12192029  1  -0.736413  -0.001502  -0.23585  -0.170782  -0.000751  3.439432  0.0
N  N135  1  0.31081731  0.36937589  0.62192091  1  -0.73643  -0.001505  -0.235896  -0.170918  -0.000754  3.439456  0.0
N  N136  1  0.25429572  0.62469137  0.01986146  1  -1.252845  0.000224  -0.221121  -0.026282  0.000106  3.803016  0.0
N  N137  1  0.24570279  0.87530644  0.51986256  1  -1.252664  0.000226  -0.221037  -0.026232  0.000108  3.80298  0.0
N  N138  1  0.75429734  0.87530826  0.98013805  1  -1.252849  0.000225  -0.221128  -0.026338  0.000107  3.803083  0.0
N  N139  1  0.74570110  0.62469318  0.48013793  1  -1.253052  0.000223  -0.221116  -0.026361  0.000106  3.803051  0.0
N  N140  1  0.74570270  0.37530685  0.98013848  1  -1.252887  0.000225  -0.221097  -0.026336  0.000107  3.803136  0.0
N  N141  1  0.75429646  0.12469178  0.48013787  1  -1.252861  0.000223  -0.221112  -0.026232  0.000106  3.803016  0.0
N  N142  1  0.24570191  0.12469271  0.01986237  1  -1.252863  0.000223  -0.221137  -0.026383  0.000106  3.803086  0.0
N  N143  1  0.25429732  0.37530779  0.51986249  1  -1.252857  0.000226  -0.221146  -0.026374  0.000108  3.803058  0.0
N  N144  1  0.19693840  0.63623171  0.12269039  1  -0.648236  -0.000327  -0.226927  -0.183202  -0.000339  3.146755  0.0
N  N145  1  0.30306018  0.86376752  0.62269052  1  -0.648203  -0.000324  -0.226927  -0.183236  -0.000336  3.146899  0.0
N  N146  1  0.69693910  0.86376921  0.87731058  1  -0.648196  -0.000323  -0.226901  -0.183193  -0.000335  3.146919  0.0
N  N147  1  0.80305927  0.63623217  0.37730999  1  -0.64814  -0.000325  -0.226947  -0.183302  -0.000337  3.146831  0.0
N  N148  1  0.80306167  0.36376857  0.87731053  1  -0.648208  -0.000319  -0.226909  -0.183212  -0.00033  3.146768  0.0
N  N149  1  0.69693824  0.13623070  0.37730991  1  -0.648223  -0.000329  -0.226916  -0.18317  -0.000341  3.146678  0.0
N  N150  1  0.30306014  0.13623243  0.12269034  1  -0.648196  -0.000328  -0.226945  -0.183287  -0.00034  3.146849  0.0
N  N151  1  0.19693915  0.36376743  0.62269093  1  -0.648236  -0.000325  -0.226867  -0.183135  -0.000336  3.146866  0.0
O  O152  1  0.35825336  0.46600462  0.75590964  1  -1.104023  0.086729  -0.304526  -0.505033  0.054437  2.333961  0.079
O  O153  1  0.14174685  0.03399463  0.25591143  1  -1.104292  0.086739  -0.304567  -0.505138  0.054443  2.333788  0.079
O  O154  1  0.85825879  0.03399234  0.24408879  1  -1.104317  0.086727  -0.304533  -0.505062  0.054434  2.333995  0.079
O  O155  1  0.64174186  0.46600822  0.74408646  1  -1.104198  0.086733  -0.304583  -0.505179  0.054437  2.333783  0.079
O  O156  1  0.64174588  0.53399360  0.24409275  1  -1.103905  0.086753  -0.304608  -0.505134  0.054453  2.333532  0.079
O  O157  1  0.85825901  0.96600771  0.74408851  1  -1.104276  0.08673  -0.304553  -0.505092  0.054436  2.333881  0.079
O  O158  1  0.14174708  0.96600588  0.75591114  1  -1.104343  0.086733  -0.304569  -0.505112  0.054438  2.333851  0.079
O  O159  1  0.35825739  0.53399411  0.25591397  1  -1.104448  0.086712  -0.304512  -0.505063  0.054423  2.334196  0.079
O  O160  1  0.47586842  0.45904308  0.84296239  1  -1.113188  0.097945  -0.316921  -0.527857  0.06164  2.346476  0.089
O  O161  1  0.02413269  0.04095827  0.34296415  1  -1.113315  0.097946  -0.316889  -0.527779  0.06164  2.346521  0.089
O  O162  1  0.97587297  0.04095883  0.15703656  1  -1.113364  0.097948  -0.316875  -0.5278  0.061642  2.346349  0.089
O  O163  1  0.52412844  0.45904032  0.65703420  1  -1.11339  0.09795  -0.316842  -0.527775  0.061642  2.346314  0.089
O  O164  1  0.52413248  0.54095857  0.15703804  1  -1.113519  0.097924  -0.316776  -0.527612  0.061626  2.346786  0.089
O  O165  1  0.97587318  0.95904201  0.65703579  1  -1.1133  0.097952  -0.316861  -0.527768  0.061644  2.346478  0.089
O  O166  1  0.02413207  0.95904145  0.84296387  1  -1.113277  0.097947  -0.316908  -0.527826  0.061641  2.346356  0.089
O  O167  1  0.47587080  0.54095791  0.34296574  1  -1.113203  0.097962  -0.316938  -0.52789  0.06165  2.346187  0.089
O  O168  1  0.14543909  0.76887320  0.75481995  1  -1.096098  0.093732  -0.30424  -0.498966  0.058802  2.333627  0.085
O  O169  1  0.35456703  0.73112953  0.25482576  1  -1.096137  0.093722  -0.304215  -0.498834  0.058795  2.333813  0.085
O  O170  1  0.64543992  0.73112766  0.24518003  1  -1.095951  0.093746  -0.304252  -0.499042  0.058811  2.333364  0.085
O  O171  1  0.85456497  0.76887228  0.74517378  1  -1.09606  0.093732  -0.304261  -0.498898  0.058802  2.333587  0.085
O  O172  1  0.85456429  0.23112845  0.24517607  1  -1.095951  0.093729  -0.304188  -0.498839  0.058799  2.333698  0.085
O  O173  1  0.64543636  0.26887281  0.74517663  1  -1.095981  0.093733  -0.304158  -0.498817  0.058802  2.333758  0.085
O  O174  1  0.35456181  0.26887125  0.75482236  1  -1.095965  0.093736  -0.304206  -0.498937  0.058805  2.333567  0.085
O  O175  1  0.14543841  0.23112662  0.25482224  1  -1.095965  0.09374  -0.304211  -0.498903  0.058808  2.333618  0.085
O  O176  1  0.02435448  0.77168523  0.84049807  1  -1.111195  0.097711  -0.316296  -0.525539  0.061448  2.341187  0.089
O  O177  1  0.47564921  0.72831207  0.34050439  1  -1.110823  0.097719  -0.316354  -0.525693  0.061454  2.340988  0.089
O  O178  1  0.52435607  0.72831342  0.15950188  1  -1.110829  0.097692  -0.31629  -0.525583  0.061437  2.341343  0.089
O  O179  1  0.97564710  0.77168853  0.65949518  1  -1.110948  0.097709  -0.316337  -0.525648  0.061449  2.341136  0.089
O  O180  1  0.97564973  0.22831368  0.15949894  1  -1.110813  0.097713  -0.316295  -0.525545  0.061451  2.341082  0.089
O  O181  1  0.52435251  0.27168684  0.65949897  1  -1.110818  0.097708  -0.316318  -0.525572  0.061448  2.341163  0.089
O  O182  1  0.47564483  0.27168686  0.84050050  1  -1.110754  0.097705  -0.316273  -0.525568  0.061446  2.341155  0.089
O  O183  1  0.02435545  0.22831380  0.34050084  1  -1.110784  0.097706  -0.316279  -0.525565  0.061446  2.341161  0.089
