# generated using pymatgen
data_YbH8C6O7
_symmetry_space_group_name_H-M   'P 1'
_cell_length_a   7.55198505
_cell_length_b   10.57395397
_cell_length_c   12.60425590
_cell_angle_alpha   72.12753900
_cell_angle_beta   72.56959957
_cell_angle_gamma   69.08543637
_symmetry_Int_Tables_number   1
_chemical_formula_structural   YbH8C6O7
_chemical_formula_sum   'Yb4 H32 C24 O28'
_cell_volume   874.14617964
_cell_formula_units_Z   4
loop_
 _symmetry_equiv_pos_site_id
 _symmetry_equiv_pos_as_xyz
  1  'x, y, z'
loop_
 _atom_site_type_symbol
 _atom_site_label
 _atom_site_symmetry_multiplicity
 _atom_site_fract_x
 _atom_site_fract_y
 _atom_site_fract_z
 _atom_site_occupancy
 _atom_site_hle17_bader_spin_density
 _atom_site_hle17_ddec_charge
 _atom_site_hle17_ddec_spin_density
 _atom_site_hle17_ddec_sum_bond_order
 _atom_site_hle17_magmom
 _atom_site_hse06_10hf_bader_spin_density
 _atom_site_hse06_10hf_ddec_charge
 _atom_site_hse06_10hf_ddec_spin_density
 _atom_site_hse06_10hf_ddec_sum_bond_order
 _atom_site_hse06_10hf_magmom
 _atom_site_hse06_bader_spin_density
 _atom_site_hse06_ddec_charge
 _atom_site_hse06_ddec_spin_density
 _atom_site_hse06_ddec_sum_bond_order
 _atom_site_hse06_magmom
 _atom_site_pbe_bader_spin_density
 _atom_site_pbe_cm5_charge
 _atom_site_pbe_ddec_charge
 _atom_site_pbe_ddec_spin_density
 _atom_site_pbe_ddec_sum_bond_order
 _atom_site_pbe_magmom
C  C0  1  0.06537769  0.73209230  0.96165893  1  0  0.753834  0  3.757669  0  0  0.707878  0  4.068043  0  0  0.743252  0  4.057724  0  0  0.223571  0.685177  0  4.065784  0
C  C1  1  0.75914485  0.76773938  0.53835405  1  0  0.753643  0  3.754654  0  0  0.707744  0  4.058698  0  0  0.741294  0  4.056564  0  0  0.222994  0.683173  0  4.064642  0
C  C2  1  0.93462003  0.26790741  0.03834379  1  0  0.753943  0  3.75763  0  0  0.708016  0  4.067962  0  0  0.743389  0  4.057645  0  0  0.223637  0.685314  0  4.065702  0
C  C3  1  0.24085359  0.23226228  0.46164525  1  0  0.753691  0  3.754554  0  0  0.707808  0  4.058588  0  0  0.741359  0  4.056451  0  0  0.223026  0.683238  0  4.064529  0
C  C4  1  0.10633679  0.75726643  0.06245184  1  0  -0.236559  0  3.641185  0  0  -0.279321  0  3.892346  0  0  -0.283848  0  3.897882  0  0  -0.158737  -0.277047  0  3.890101  0
C  C5  1  0.92604254  0.74255000  0.43754563  1  0  -0.235781  0  3.637994  0  0  -0.276254  0  3.888909  0  0  -0.28012  0  3.893435  0  0  -0.157376  -0.273237  0  3.885667  0
C  C6  1  0.89366276  0.24273227  0.93755087  1  0  -0.236598  0  3.641097  0  0  -0.279371  0  3.89224  0  0  -0.283906  0  3.897783  0  0  -0.158754  -0.277097  0  3.889994  0
C  C7  1  0.07395824  0.25744963  0.56245367  1  0  -0.23584  0  3.637979  0  0  -0.276325  0  3.888906  0  0  -0.280188  0  3.893424  0  0  -0.157383  -0.273307  0  3.885666  0
C  C8  1  0.30458832  0.51248007  0.14692267  1  0  0.764814  0  3.773688  0  0  0.720687  0  4.077886  0  0  0.755384  0  4.069336  0  0  0.237552  0.696549  0  4.082481  0
C  C9  1  0.96401680  0.98739086  0.35310941  1  0  0.760968  0  3.777485  0  0  0.717328  0  4.081547  0  0  0.752062  0  4.072927  0  0  0.236656  0.693355  0  4.085867  0
C  C10  1  0.69541165  0.48752034  0.85307749  1  0  0.764834  0  3.773743  0  0  0.720672  0  4.077976  0  0  0.755371  0  4.06942  0  0  0.237538  0.696534  0  4.08257  0
C  C11  1  0.03598216  0.01260979  0.64688989  1  0  0.760963  0  3.777555  0  0  0.717329  0  4.081617  0  0  0.752064  0  4.072998  0  0  0.236652  0.693361  0  4.085927  0
C  C12  1  0.30151060  0.66278634  0.09171268  1  0  -0.239909  0  3.634873  0  0  -0.279063  0  3.884619  0  0  -0.28415  0  3.891289  0  0  -0.154885  -0.275906  0  3.88118  0
C  C13  1  0.05596213  0.83706198  0.40832033  1  0  -0.235261  0  3.633241  0  0  -0.277283  0  3.884423  0  0  -0.282052  0  3.890401  0  0  -0.155038  -0.274003  0  3.880434  0
C  C14  1  0.69848988  0.33721485  0.90828833  1  0  -0.239947  0  3.634956  0  0  -0.279048  0  3.884646  0  0  -0.284132  0  3.891315  0  0  -0.154886  -0.27589  0  3.881205  0
C  C15  1  0.94403866  0.16293766  0.59167897  1  0  -0.23515  0  3.633214  0  0  -0.277204  0  3.8844  0  0  -0.281977  0  3.890384  0  0  -0.155018  -0.273925  0  3.880408  0
C  C16  1  0.31657734  0.60684736  0.60694157  1  0  0.738491  0  3.799364  0  0  0.691786  0  4.114487  0  0  0.72644  0  4.105405  0  0  0.206903  0.669708  0  4.111146  0
C  C17  1  0.53046395  0.89310448  0.89306216  1  0  0.738411  0  3.802505  0  0  0.693044  0  4.109824  0  0  0.725829  0  4.108984  0  0  0.207057  0.669048  0  4.114857  0
C  C18  1  0.68342018  0.39315360  0.39306029  1  0  0.738385  0  3.799381  0  0  0.691699  0  4.114471  0  0  0.72636  0  4.10538  0  0  0.206928  0.669622  0  4.111123  0
C  C19  1  0.46953664  0.10689641  0.10693628  1  0  0.738356  0  3.802514  0  0  0.692981  0  4.109849  0  0  0.725766  0  4.10901  0  0  0.207028  0.668986  0  4.114887  0
C  C20  1  0.50514682  0.55070926  0.52957893  1  0  -0.235384  0  3.67694  0  0  -0.275657  0  3.928343  0  0  -0.280768  0  3.935476  0  0  -0.159286  -0.273181  0  3.925184  0
C  C21  1  0.58543186  0.94926607  0.97045939  1  0  -0.234549  0  3.681822  0  0  -0.275188  0  3.933246  0  0  -0.279266  0  3.938703  0  0  -0.159032  -0.271677  0  3.928453  0
C  C22  1  0.49485152  0.44929092  0.47042208  1  0  -0.235276  0  3.676949  0  0  -0.275519  0  3.928314  0  0  -0.280621  0  3.935433  0  0  -0.159255  -0.273049  0  3.925157  0
C  C23  1  0.41456955  0.05073582  0.02953906  1  0  -0.234475  0  3.681766  0  0  -0.275126  0  3.933215  0  0  -0.279204  0  3.938674  0  0  -0.159036  -0.271635  0  3.928412  0
H  H24  1  0.98743309  0.74355317  0.13615991  1  0  0.119716  0  0.912952  0  0  0.135689  0  0.964671  0  0  0.138337  0  0.963149  0  0  0.110679  0.133568  0  0.966491  0
H  H25  1  0.86707972  0.75625533  0.36385351  1  0  0.119257  0  0.912969  0  0  0.13434  0  0.965332  0  0  0.137154  0  0.963306  0  0  0.110607  0.132381  0  0.966639  0
H  H26  1  0.01256676  0.25644577  0.86384195  1  0  0.119708  0  0.91289  0  0  0.135681  0  0.964615  0  0  0.138332  0  0.963093  0  0  0.110661  0.133563  0  0.966436  0
H  H27  1  0.13292056  0.24374532  0.63614579  1  0  0.119282  0  0.912958  0  0  0.134366  0  0.965316  0  0  0.13718  0  0.963291  0  0  0.110615  0.132406  0  0.966624  0
H  H28  1  0.10884004  0.86564925  0.03936947  1  0  0.123556  0  0.920537  0  0  0.137952  0  0.977752  0  0  0.140738  0  0.975955  0  0  0.110656  0.135996  0  0.979149  0
H  H29  1  0.01382301  0.63415137  0.46057859  1  0  0.123161  0  0.921583  0  0  0.136717  0  0.979116  0  0  0.139373  0  0.977508  0  0  0.109974  0.134666  0  0.98065  0
H  H30  1  0.89115880  0.13434992  0.96063154  1  0  0.123564  0  0.920508  0  0  0.137957  0  0.977722  0  0  0.140744  0  0.975925  0  0  0.110668  0.136001  0  0.979117  0
H  H31  1  0.98617645  0.36585006  0.53942157  1  0  0.123177  0  0.921562  0  0  0.136745  0  0.979079  0  0  0.139401  0  0.977471  0  0  0.109985  0.13469  0  0.980619  0
H  H32  1  0.41965339  0.66301649  0.01532554  1  0  0.115334  0  0.939037  0  0  0.127749  0  1.001127  0  0  0.130075  0  1.001227  0  0  0.110538  0.125639  0  1.002222  0
H  H33  1  0.09787436  0.83681853  0.48473847  1  0  0.112798  0  0.940553  0  0  0.125512  0  1.003502  0  0  0.128405  0  1.002298  0  0  0.109877  0.124009  0  1.003274  0
H  H34  1  0.58034475  0.33698494  0.98467462  1  0  0.11532  0  0.939053  0  0  0.127711  0  1.001164  0  0  0.130036  0  1.001266  0  0  0.110524  0.125602  0  1.002255  0
H  H35  1  0.90212755  0.16318235  0.51525998  1  0  0.112752  0  0.940588  0  0  0.125509  0  1.003491  0  0  0.128404  0  1.002284  0  0  0.109871  0.124005  0  1.003265  0
H  H36  1  0.34033663  0.70217752  0.15044807  1  0  0.106133  0  0.911536  0  0  0.125142  0  0.962365  0  0  0.12717  0  0.961624  0  0  0.106854  0.123675  0  0.963025  0
H  H37  1  0.19291873  0.79769133  0.34961002  1  0  0.104266  0  0.913622  0  0  0.1242  0  0.964033  0  0  0.12614  0  0.963454  0  0  0.106275  0.122663  0  0.96487  0
H  H38  1  0.65966467  0.29782289  0.84955209  1  0  0.106167  0  0.911531  0  0  0.125172  0  0.96235  0  0  0.127201  0  0.961606  0  0  0.106878  0.123707  0  0.963011  0
H  H39  1  0.80708186  0.20230955  0.65038842  1  0  0.104224  0  0.913603  0  0  0.12415  0  0.964039  0  0  0.126092  0  0.963461  0  0  0.10626  0.122612  0  0.964878  0
H  H40  1  0.61680819  0.50183841  0.58127891  1  0  0.112682  0  0.902393  0  0  0.131267  0  0.953931  0  0  0.133147  0  0.953696  0  0  0.111899  0.129677  0  0.954886  0
H  H41  1  0.69997054  0.99809318  0.91880331  1  0  0.111608  0  0.901485  0  0  0.130192  0  0.953217  0  0  0.132214  0  0.952436  0  0  0.111389  0.128869  0  0.953478  0
H  H42  1  0.38318882  0.49816356  0.41872296  1  0  0.11264  0  0.90239  0  0  0.131232  0  0.953914  0  0  0.13311  0  0.953679  0  0  0.111877  0.129645  0  0.954868  0
H  H43  1  0.30003035  0.00190794  0.08119429  1  0  0.111561  0  0.901502  0  0  0.130174  0  0.953206  0  0  0.132196  0  0.952425  0  0  0.111397  0.128851  0  0.953475  0
H  H44  1  0.54921359  0.63887098  0.46801025  1  0  0.125135  0  0.920776  0  0  0.140729  0  0.97429  0  0  0.143571  0  0.972932  0  0  0.111919  0.138698  0  0.975554  0
H  H45  1  0.65597583  0.86112558  0.03207218  1  0  0.124634  0  0.922701  0  0  0.140265  0  0.975872  0  0  0.143057  0  0.974389  0  0  0.111639  0.138038  0  0.977299  0
H  H46  1  0.45078077  0.36113099  0.53199162  1  0  0.125113  0  0.920784  0  0  0.140701  0  0.974297  0  0  0.143542  0  0.972938  0  0  0.111913  0.138672  0  0.975563  0
H  H47  1  0.34402741  0.13887531  0.96792626  1  0  0.124664  0  0.922623  0  0  0.140256  0  0.975863  0  0  0.143046  0  0.974383  0  0  0.111639  0.138054  0  0.977255  0
H  H48  1  0.17151297  0.42348058  0.91267182  1  0  0.45135  0  0.841495  0  0  0.420699  0  0.904127  0  0  0.431944  0  0.887582  0  0  0.300949  0.412028  0  0.916633  0
H  H49  1  0.50757345  0.07657566  0.58731503  1  0  0.453378  0  0.838586  0  0  0.421944  0  0.902219  0  0  0.433796  0  0.885009  0  0  0.301979  0.413875  0  0.914053  0
H  H50  1  0.82848618  0.57651882  0.08732833  1  0  0.451188  0  0.841727  0  0  0.420573  0  0.90429  0  0  0.431817  0  0.887745  0  0  0.300899  0.411904  0  0.916787  0
H  H51  1  0.49242703  0.92342374  0.41268512  1  0  0.453374  0  0.838591  0  0  0.421935  0  0.902231  0  0  0.433787  0  0.88502  0  0  0.301984  0.413865  0  0.914063  0
H  H52  1  0.33653866  0.50595768  0.85208077  1  0  0.43416  0  0.862896  0  0  0.404839  0  0.924305  0  0  0.415682  0  0.90847  0  0  0.298306  0.396692  0  0.935959  0
H  H53  1  0.69451682  0.99410183  0.64787558  1  0  0.433541  0  0.864015  0  0  0.40441  0  0.924715  0  0  0.415441  0  0.908826  0  0  0.298439  0.396477  0  0.936278  0
H  H54  1  0.66346150  0.49404149  0.14792024  1  0  0.434216  0  0.862837  0  0  0.404899  0  0.924237  0  0  0.415741  0  0.908403  0  0  0.298343  0.396752  0  0.935889  0
H  H55  1  0.30548132  0.00589960  0.35212457  1  0  0.433531  0  0.864022  0  0  0.404384  0  0.924757  0  0  0.415416  0  0.908866  0  0  0.298416  0.396448  0  0.936326  0
O  O56  1  0.16274920  0.76636784  0.86009349  1  0  -0.815417  0  2.174636  0  0  -0.782804  0  2.428413  0  0  -0.822078  0  2.417595  0  0  -0.43664  -0.753274  0  2.431868  0
O  O57  1  0.78919738  0.73348361  0.63991972  1  0  -0.814448  0  2.172756  0  0  -0.783816  0  2.423964  0  0  -0.820806  0  2.416627  0  0  -0.436132  -0.751919  0  2.430769  0
O  O58  1  0.83725432  0.23362907  0.13990836  1  0  -0.815452  0  2.174667  0  0  -0.782884  0  2.428493  0  0  -0.822149  0  2.417666  0  0  -0.436666  -0.753356  0  2.431952  0
O  O59  1  0.21080290  0.26651704  0.36007958  1  0  -0.814471  0  2.172771  0  0  -0.783851  0  2.423983  0  0  -0.820836  0  2.416638  0  0  -0.436136  -0.751954  0  2.430785  0
O  O60  1  0.93142965  0.67964371  0.97300985  1  0  -0.682456  0  2.062311  0  0  -0.645162  0  2.296739  0  0  -0.669928  0  2.286035  0  0  -0.348323  -0.617347  0  2.302465  0
O  O61  1  0.58411963  0.82017981  0.52698385  1  0  -0.683134  0  2.061697  0  0  -0.634417  0  2.295226  0  0  -0.669747  0  2.286097  0  0  -0.34756  -0.617216  0  2.302239  0
O  O62  1  0.06857001  0.32035647  0.02699116  1  0  -0.682525  0  2.062327  0  0  -0.645218  0  2.296741  0  0  -0.669983  0  2.286039  0  0  -0.348332  -0.617404  0  2.302476  0
O  O63  1  0.41588166  0.17981882  0.47301545  1  0  -0.683148  0  2.061593  0  0  -0.63446  0  2.295139  0  0  -0.669791  0  2.28601  0  0  -0.347583  -0.617261  0  2.302155  0
O  O64  1  0.30332502  0.69671653  0.66141942  1  0  -0.83874  0  2.19903  0  0  -0.810896  0  2.465038  0  0  -0.85029  0  2.453864  0  0  -0.467364  -0.781539  0  2.469028  0
O  O65  1  0.66158631  0.80331058  0.83854276  1  0  -0.840016  0  2.199935  0  0  -0.815045  0  2.463656  0  0  -0.851707  0  2.455558  0  0  -0.468364  -0.782781  0  2.470483  0
O  O66  1  0.69667036  0.30328342  0.33858244  1  0  -0.838654  0  2.198946  0  0  -0.810832  0  2.464969  0  0  -0.850218  0  2.453771  0  0  -0.467346  -0.781476  0  2.468957  0
O  O67  1  0.33841448  0.19668905  0.16145654  1  0  -0.84  0  2.199904  0  0  -0.815039  0  2.463634  0  0  -0.851698  0  2.455533  0  0  -0.468348  -0.782775  0  2.470459  0
O  O68  1  0.16955765  0.56842240  0.62070742  1  0  -0.652656  0  1.963891  0  0  -0.625447  0  2.197179  0  0  -0.648727  0  2.188069  0  0  -0.364777  -0.598377  0  2.202291  0
O  O69  1  0.35880272  0.93140342  0.87933319  1  0  -0.650625  0  1.964386  0  0  -0.612883  0  2.197628  0  0  -0.647069  0  2.189535  0  0  -0.363323  -0.596747  0  2.203578  0
O  O70  1  0.83044068  0.43157957  0.37929444  1  0  -0.652635  0  1.963854  0  0  -0.625472  0  2.197162  0  0  -0.648756  0  2.188049  0  0  -0.364835  -0.598402  0  2.202268  0
O  O71  1  0.64119826  0.06859497  0.12066696  1  0  -0.650611  0  1.964371  0  0  -0.612862  0  2.19761  0  0  -0.647046  0  2.189516  0  0  -0.363328  -0.596725  0  2.203563  0
O  O72  1  0.15118175  0.48135347  0.16193596  1  0  -0.694615  0  2.07966  0  0  -0.662669  0  2.322527  0  0  -0.687747  0  2.312338  0  0  -0.406461  -0.630676  0  2.333937  0
O  O73  1  0.79453381  0.01858070  0.33804479  1  0  -0.692401  0  2.079523  0  0  -0.646296  0  2.327071  0  0  -0.68535  0  2.311785  0  0  -0.405574  -0.628362  0  2.332913  0
O  O74  1  0.84881904  0.51864617  0.83806334  1  0  -0.694646  0  2.079673  0  0  -0.662681  0  2.322548  0  0  -0.687764  0  2.31236  0  0  -0.406461  -0.630689  0  2.333963  0
O  O75  1  0.20546565  0.98142073  0.66195537  1  0  -0.692398  0  2.079528  0  0  -0.646279  0  2.327052  0  0  -0.685335  0  2.311764  0  0  -0.405553  -0.62835  0  2.332892  0
O  O76  1  0.22059832  0.48930633  0.84416822  1  0  -0.915865  0  1.899838  0  0  -0.886744  0  2.074594  0  0  -0.905675  0  2.043099  0  0  -0.655815  -0.86146  0  2.104109  0
O  O77  1  0.55404226  0.01068022  0.65577351  1  0  -0.917634  0  1.898752  0  0  -0.877  0  2.08079  0  0  -0.907337  0  2.042076  0  0  -0.657063  -0.863473  0  2.103084  0
O  O78  1  0.77940134  0.51069206  0.15583194  1  0  -0.915771  0  1.899982  0  0  -0.886664  0  2.074722  0  0  -0.905593  0  2.04323  0  0  -0.655804  -0.861383  0  2.104243  0
O  O79  1  0.44595690  0.98931918  0.34422665  1  0  -0.917621  0  1.898742  0  0  -0.876977  0  2.080774  0  0  -0.907312  0  2.042061  0  0  -0.657041  -0.863448  0  2.103066  0
O  O80  1  0.46256492  0.42725572  0.17439831  1  0  -0.737876  0  2.051017  0  0  -0.692253  0  2.294455  0  0  -0.73117  0  2.281864  0  0  -0.373626  -0.674124  0  2.301252  0
O  O81  1  0.06427443  0.07260582  0.32570454  1  0  -0.736724  0  2.05352  0  0  -0.705033  0  2.294897  0  0  -0.73056  0  2.284224  0  0  -0.372992  -0.673353  0  2.30356  0
O  O82  1  0.53743688  0.57274369  0.82560184  1  0  -0.737852  0  2.051044  0  0  -0.692225  0  2.294518  0  0  -0.731144  0  2.281923  0  0  -0.373612  -0.674094  0  2.301314  0
O  O83  1  0.93572554  0.92739460  0.67429561  1  0  -0.736719  0  2.053576  0  0  -0.70504  0  2.294955  0  0  -0.730566  0  2.284279  0  0  -0.373003  -0.673367  0  2.303615  0
Yb  Yb84  1  0.98755566  0.68870759  0.77058525  1  0  2.203873  0  1.743162  0  0  2.228245  0  1.866423  0  0  2.278976  0  1.829871  0  0  1.59609  2.095102  0  2.076055  0
Yb  Yb85  1  0.44681525  0.81130593  0.72937945  1  0  2.205292  0  1.739542  0  0  2.134835  0  2.045782  0  0  2.278878  0  1.828823  0  0  1.595543  2.096602  0  2.072118  0
Yb  Yb86  1  0.01244350  0.31129360  0.22941576  1  0  2.203842  0  1.743185  0  0  2.228268  0  1.86638  0  0  2.278984  0  1.829851  0  0  1.596093  2.095118  0  2.07602  0
Yb  Yb87  1  0.55318655  0.18869348  0.27062070  1  0  2.205311  0  1.739488  0  0  2.134896  0  2.045677  0  0  2.278919  0  1.828754  0  0  1.595566  2.096667  0  2.072015  0
