# generated using pymatgen
data_FeH22Au2(C6N)6
_symmetry_space_group_name_H-M   'P 1'
_cell_length_a   13.12333891
_cell_length_b   15.06459387
_cell_length_c   17.79820148
_cell_angle_alpha   111.51633767
_cell_angle_beta   111.63615006
_cell_angle_gamma   90.00037156
_symmetry_Int_Tables_number   1
_chemical_formula_structural   FeH22Au2(C6N)6
_chemical_formula_sum   'Fe4 H88 Au8 C144 N24'
_cell_volume   3005.38606559
_cell_formula_units_Z   4
loop_
 _symmetry_equiv_pos_site_id
 _symmetry_equiv_pos_as_xyz
  1  'x, y, z'
loop_
 _atom_site_type_symbol
 _atom_site_label
 _atom_site_symmetry_multiplicity
 _atom_site_fract_x
 _atom_site_fract_y
 _atom_site_fract_z
 _atom_site_occupancy
 _atom_site_pbe_bader_charge
 _atom_site_pbe_bader_spin_density
 _atom_site_pbe_cm5_charge
 _atom_site_pbe_ddec_charge
 _atom_site_pbe_ddec_spin_density
 _atom_site_pbe_ddec_sum_bond_order
 _atom_site_pbe_magmom
Fe  Fe0  1  0.79975981  0.46578768  0.09842034  1  1.233778  0  0.89552  0.569983  0  3.957916  0
Fe  Fe1  1  0.29859804  0.96576797  0.09839485  1  1.229662  0  0.895427  0.570426  0  3.957513  0
Fe  Fe2  1  0.69723392  0.91405996  0.89738249  1  1.241773  0  0.914183  0.576562  0  3.995859  0
Fe  Fe3  1  0.20020209  0.41405314  0.89739052  1  1.232257  0  0.913285  0.573897  0  3.998471  0
H  H4  1  0.34288167  0.16735509  0.22606012  1  0.121809  0  0.118736  0.091159  0  1.021307  0
H  H5  1  0.88307949  0.66742513  0.22610697  1  0.126254  0  0.11902  0.091811  0  1.020603  0
H  H6  1  0.38923655  0.25356615  0.38279646  1  0.064676  0  0.103712  0.108826  0  1.055091  0
H  H7  1  0.99347193  0.75362532  0.38283671  1  0.062855  0  0.103669  0.10859  0  1.055709  0
H  H8  1  0.35429590  0.97606053  0.39862761  1  0.078487  0  0.102919  0.108273  0  1.035859  0
H  H9  1  0.04435785  0.47610709  0.39862446  1  0.092778  0  0.103058  0.107783  0  1.036546  0
H  H10  1  0.31010770  0.90094641  0.24025002  1  0.121224  0  0.122381  0.096298  0  0.994526  0
H  H11  1  0.93015736  0.40102744  0.24026750  1  0.105844  0  0.122391  0.096253  0  0.993847  0
H  H12  1  0.45723075  0.31606162  0.51198416  1  0.073181  0  0.099388  0.095718  0  1.050757  0
H  H13  1  0.05470069  0.81606236  0.51200377  1  0.055607  0  0.09953  0.09603  0  1.050397  0
H  H14  1  0.53685841  0.39351637  0.67084597  1  0.066783  0  0.098064  0.097439  0  1.050622  0
H  H15  1  0.13399122  0.89353150  0.67088784  1  0.088751  0  0.098252  0.097784  0  1.050616  0
H  H16  1  0.46574948  0.12311240  0.68675711  1  0.058125  0  0.099633  0.09863  0  1.025494  0
H  H17  1  0.22109941  0.62312210  0.68676230  1  0.056507  0  0.099542  0.098441  0  1.025094  0
H  H18  1  0.38853067  0.04449084  0.52702333  1  0.068874  0  0.094145  0.090208  0  1.071164  0
H  H19  1  0.13847216  0.54449470  0.52702962  1  0.09503  0  0.094085  0.090583  0  1.07063  0
H  H20  1  0.54431217  0.45838039  0.80224146  1  0.077577  0  0.103056  0.108252  0  1.047233  0
H  H21  1  0.25796298  0.95845030  0.80227977  1  0.102017  0  0.103136  0.108389  0  1.047545  0
H  H22  1  0.66296247  0.53152327  0.96034942  1  0.136958  0  0.11873  0.089095  0  1.017079  0
H  H23  1  0.29732653  0.03153518  0.96036982  1  0.086298  0  0.118974  0.089352  0  1.017318  0
H  H24  1  0.72603726  0.26392582  0.96688711  1  0.1138  0  0.121356  0.097471  0  1.003347  0
H  H25  1  0.24085288  0.76388830  0.96682880  1  0.114682  0  0.121726  0.098453  0  1.002101  0
H  H26  1  0.61373422  0.17977139  0.80870460  1  0.06883  0  0.10603  0.116128  0  1.009708  0
H  H27  1  0.19510580  0.67978584  0.80867164  1  0.070318  0  0.106108  0.116049  0  1.0096  0
H  H28  1  0.64243485  0.99110034  0.05152577  1  0.103687  0  0.122225  0.098576  0  1.004331  0
H  H29  1  0.40910708  0.49112596  0.05154383  1  0.114409  0  0.121914  0.098364  0  1.004585  0
H  H30  1  0.74139065  0.08431401  0.21113108  1  0.076136  0  0.101747  0.105205  0  1.034943  0
H  H31  1  0.46972493  0.58436676  0.21115436  1  0.100705  0  0.101416  0.104451  0  1.035725  0
H  H32  1  0.04937925  0.05737395  0.17371939  1  0.078968  0  0.107883  0.12275  0  1.005977  0
H  H33  1  0.12430102  0.55735036  0.17366680  1  0.10442  0  0.107837  0.122408  0  1.00545  0
H  H34  1  0.93760258  0.96591421  0.01542495  1  0.125765  0  0.124009  0.101347  0  0.990312  0
H  H35  1  0.07781721  0.46591883  0.01538843  1  0.13831  0  0.124084  0.101391  0  0.991741  0
H  H36  1  0.83476888  0.22876564  0.30877562  1  0.054561  0  0.099622  0.098881  0  1.020925  0
H  H37  1  0.47395771  0.72880369  0.30880194  1  0.051094  0  0.09943  0.098658  0  1.020596  0
H  H38  1  0.91553484  0.30966531  0.46997445  1  0.077175  0  0.096147  0.08905  0  1.056323  0
H  H39  1  0.55438537  0.80967299  0.46999576  1  0.053341  0  0.096431  0.089467  0  1.055378  0
H  H40  1  0.19068173  0.15156878  0.48177459  1  0.071038  0  0.100981  0.102184  0  1.026255  0
H  H41  1  0.29101906  0.65156269  0.48176345  1  0.085255  0  0.100672  0.102145  0  1.02596  0
H  H42  1  0.10944907  0.06922487  0.32059412  1  0.069316  0  0.101662  0.104744  0  1.0151  0
H  H43  1  0.21107178  0.56924628  0.32057894  1  0.098326  0  0.101626  0.10456  0  1.015088  0
H  H44  1  0.92948081  0.28746014  0.58327352  1  0.079476  0  0.104172  0.108406  0  1.043026  0
H  H45  1  0.65376408  0.78740744  0.58323390  1  0.073719  0  0.104357  0.108786  0  1.042813  0
H  H46  1  0.99235805  0.35588549  0.74398337  1  0.127242  0  0.11787  0.089537  0  1.043581  0
H  H47  1  0.75157902  0.85587651  0.74395911  1  0.110859  0  0.117868  0.089997  0  1.042949  0
H  H48  1  0.32189219  0.34520305  0.77932076  1  0.12611  0  0.121462  0.09558  0  1.003538  0
H  H49  1  0.45740394  0.84521617  0.77930053  1  0.105377  0  0.121293  0.095323  0  1.003001  0
H  H50  1  0.27288308  0.27463312  0.61878505  1  0.106011  0  0.104986  0.114122  0  1.035391  0
H  H51  1  0.34584697  0.77465279  0.61876744  1  0.112465  0  0.105316  0.114405  0  1.035137  0
H  H52  1  0.24933245  0.11936925  0.79302107  1  0.104823  0  0.08485  0.086395  0  1.063793  0
H  H53  1  0.54363119  0.61939571  0.79297388  1  0.098751  0  0.084842  0.086487  0  1.063486  0
H  H54  1  0.05562848  0.13831116  0.71657997  1  0.072584  0  0.097949  0.102097  0  1.023079  0
H  H55  1  0.66094491  0.63832559  0.71659157  1  0.069738  0  0.097708  0.10162  0  1.022386  0
H  H56  1  0.35246590  0.02068468  0.70899522  1  0.043992  0  0.093459  0.090384  0  1.030253  0
H  H57  1  0.35651562  0.52070072  0.70897667  1  0.052479  0  0.093654  0.090671  0  1.029332  0
H  H58  1  0.89360772  0.10928528  0.57776972  1  0.043336  0  0.096852  0.0966  0  1.044594  0
H  H59  1  0.68419551  0.60929172  0.57778414  1  0.104424  0  0.096446  0.096269  0  1.044326  0
H  H60  1  0.80489560  0.03478510  0.41527575  1  0.085171  0  0.093766  0.092038  0  1.079062  0
H  H61  1  0.61040380  0.53477367  0.41527242  1  0.083498  0  0.093678  0.091877  0  1.077884  0
H  H62  1  0.26642630  0.83592781  0.40308192  1  0.073163  0  0.09709  0.100705  0  1.031324  0
H  H63  1  0.13660825  0.33592068  0.40305504  1  0.066952  0  0.096811  0.100663  0  1.031028  0
H  H64  1  0.35659626  0.91321934  0.56512666  1  0.066701  0  0.097481  0.098891  0  1.030413  0
H  H65  1  0.20851840  0.41320037  0.56512521  1  0.060726  0  0.097603  0.099457  0  1.028521  0
H  H66  1  0.91245579  0.83207388  0.18714676  1  0.061039  0  0.091447  0.092738  0  1.02689  0
H  H67  1  0.27462980  0.33206835  0.18718590  1  0.063793  0  0.091294  0.092782  0  1.026542  0
H  H68  1  0.10521332  0.81156659  0.26328441  1  0.054933  0  0.085822  0.085252  0  1.052114  0
H  H69  1  0.15802364  0.31154891  0.26332829  1  0.080117  0  0.085747  0.084799  0  1.051716  0
H  H70  1  0.80816901  0.92789333  0.27286388  1  0.058121  0  0.098879  0.103002  0  1.007186  0
H  H71  1  0.46462271  0.42783832  0.27284613  1  0.058189  0  0.099065  0.10324  0  1.007002  0
H  H72  1  0.82258828  0.44798066  0.80043319  1  0.086791  0  0.090675  0.091424  0  1.032167  0
H  H73  1  0.97799094  0.94803659  0.80043524  1  0.081565  0  0.090953  0.091696  0  1.032508  0
H  H74  1  0.76643732  0.46906336  0.65950311  1  0.071305  0  0.095866  0.098076  0  1.033617  0
H  H75  1  0.89308786  0.96909300  0.65948704  1  0.078886  0  0.095742  0.097628  0  1.033949  0
H  H76  1  0.81014732  0.28397144  0.80120774  1  0.046568  0  0.090282  0.094479  0  1.043952  0
H  H77  1  0.99111766  0.78402475  0.80120867  1  0.052777  0  0.089961  0.093662  0  1.043524  0
H  H78  1  0.69296535  0.39770240  0.49610398  1  0.083439  0  0.095321  0.098902  0  1.06003  0
H  H79  1  0.80316748  0.89771520  0.49609956  1  0.084357  0  0.095433  0.098159  0  1.06105  0
H  H80  1  0.63007671  0.25430195  0.35580925  1  0.07128  0  0.097292  0.099352  0  1.01084  0
H  H81  1  0.72573752  0.75430520  0.35580218  1  0.085664  0  0.097435  0.099592  0  1.010703  0
H  H82  1  0.67370875  0.96424490  0.57984230  1  0.057446  0  0.096192  0.097737  0  1.026283  0
H  H83  1  0.90611783  0.46426388  0.57987436  1  0.059341  0  0.096161  0.098595  0  1.025457  0
H  H84  1  0.75230487  0.10669718  0.72019946  1  0.076136  0  0.084962  0.086995  0  1.064234  0
H  H85  1  0.96790078  0.60673200  0.72022123  1  0.08194  0  0.084718  0.086813  0  1.064525  0
H  H86  1  0.58653762  0.07552725  0.27504562  1  0.052995  0  0.098337  0.104692  0  1.020889  0
H  H87  1  0.68849814  0.57554863  0.27504501  1  0.096066  0  0.098534  0.10451  0  1.020932  0
H  H88  1  0.56544626  0.91270353  0.27623700  1  0.086245  0  0.087458  0.085859  0  1.071279  0
H  H89  1  0.71075491  0.41272162  0.27625828  1  0.087884  0  0.087211  0.085721  0  1.071336  0
H  H90  1  0.60648093  0.89271827  0.41574397  1  0.058005  0  0.095151  0.093233  0  1.047523  0
H  H91  1  0.80920768  0.39274208  0.41574880  1  0.061846  0  0.095055  0.09308  0  1.047034  0
Au  Au92  1  0.57577035  0.21642566  0.12406484  1  0.243959  0  0.25901  0.002074  0  2.978462  0
Au  Au93  1  0.54816652  0.71637242  0.12388039  1  0.238203  0  0.259039  0.001756  0  2.9811  0
Au  Au94  1  0.02108547  0.71616216  0.07256885  1  0.256084  0  0.278805  0.028745  0  3.083326  0
Au  Au95  1  0.05140018  0.21616036  0.07254106  1  0.251185  0  0.278979  0.028787  0  3.083389  0
Au  Au96  1  0.46323833  0.67527491  0.92431285  1  0.24999  0  0.286943  0.035823  0  3.087214  0
Au  Au97  1  0.46115983  0.17526300  0.92440913  1  0.245049  0  0.286744  0.036169  0  3.085937  0
Au  Au98  1  0.93691499  0.65392838  0.87639355  1  0.247313  0  0.283339  0.030389  0  3.074989  0
Au  Au99  1  0.93950160  0.15394073  0.87637000  1  0.244968  0  0.283379  0.030331  0  3.075361  0
C  C100  1  0.34625376  0.12725192  0.26647296  1  0.412444  0  0.045024  0.082985  0  3.914425  0
C  C101  1  0.92010564  0.62730210  0.26651148  1  0.425231  0  0.044559  0.081941  0  3.915111  0
C  C102  1  0.37233969  0.17522739  0.35561556  1  0.004391  0  -0.08309  -0.168115  0  3.948573  0
C  C103  1  0.98317049  0.67527869  0.35565060  1  -0.039823  0  -0.082781  -0.167279  0  3.947874  0
C  C104  1  0.37903101  0.12384764  0.40869740  1  -0.007185  0  0.011832  0.108057  0  3.964486  0
C  C105  1  0.02964875  0.62389812  0.40871847  1  0.021288  0  0.011875  0.10789  0  3.964449  0
C  C106  1  0.35259726  0.02278977  0.36403904  1  -0.050303  0  -0.082892  -0.169253  0  3.945162  0
C  C107  1  0.01147384  0.52284972  0.36406530  1  -0.059527  0  -0.08276  -0.16762  0  3.942728  0
C  C108  1  0.32749075  0.97917849  0.27449751  1  0.458954  0  0.046326  0.083522  0  3.923254  0
C  C109  1  0.94701626  0.47925584  0.27453479  1  0.472336  0  0.046086  0.083147  0  3.921655  0
C  C110  1  0.41694065  0.17286068  0.50513542  1  -0.012794  0  -0.00702  0.054256  0  3.97957  0
C  C111  1  0.08823682  0.67288681  0.50514946  1  0.051972  0  -0.007137  0.053589  0  3.981843  0
C  C112  1  0.45669338  0.27255367  0.54893290  1  0.038108  0  -0.085326  -0.11159  0  3.96079  0
C  C113  1  0.09226349  0.77256715  0.54893798  1  -0.041509  0  -0.085113  -0.111293  0  3.96303  0
C  C114  1  0.50171284  0.31735732  0.64011188  1  -0.113269  0  -0.084999  -0.11475  0  3.960386  0
C  C115  1  0.13843865  0.81737875  0.64012076  1  -0.042817  0  -0.085281  -0.114582  0  3.962874  0
C  C116  1  0.50896272  0.26488913  0.69247204  1  -0.070601  0  -0.007534  0.058094  0  3.98518  0
C  C117  1  0.18369324  0.76492403  0.69246622  1  -0.065885  0  -0.007936  0.05615  0  3.986168  0
C  C118  1  0.46496109  0.16597950  0.64885179  1  -0.012201  0  -0.08734  -0.117476  0  3.970736  0
C  C119  1  0.18405473  0.66600758  0.64886721  1  0.030822  0  -0.086483  -0.115464  0  3.969759  0
C  C120  1  0.42054339  0.12127937  0.55763967  1  -0.008892  0  -0.090354  -0.118027  0  3.972306  0
C  C121  1  0.13717374  0.62130958  0.55766125  1  -0.141653  0  -0.090758  -0.119208  0  3.972765  0
C  C122  1  0.56817065  0.31109116  0.78874262  1  -0.031338  0  0.009544  0.106518  0  3.98341  0
C  C123  1  0.22075614  0.81111712  0.78874850  1  -0.023759  0  0.009362  0.10705  0  3.982515  0
C  C124  1  0.58326959  0.41157460  0.83517313  1  0.042997  0  -0.084436  -0.172229  0  3.94053  0
C  C125  1  0.25196225  0.91160721  0.83518679  1  0.013059  0  -0.084618  -0.172393  0  3.94154  0
C  C126  1  0.64968489  0.45368407  0.92431474  1  0.396844  0  0.049725  0.094804  0  3.897822  0
C  C127  1  0.27463380  0.95368513  0.92432398  1  0.44832  0  0.050131  0.094558  0  3.900634  0
C  C128  1  0.68445184  0.30462827  0.92815029  1  0.442847  0  0.04478  0.081759  0  3.924777  0
C  C129  1  0.24376458  0.80462795  0.92814441  1  0.521471  0  0.044181  0.081165  0  3.923685  0
C  C130  1  0.61965055  0.25790239  0.83888918  1  0.048141  0  -0.087065  -0.184038  0  3.984196  0
C  C131  1  0.21939160  0.75791984  0.83888783  1  -0.035105  0  -0.087384  -0.184847  0  3.982786  0
C  C132  1  0.47848969  0.11495944  0.12218611  1  0.773357  0  -0.009277  0.021418  0  3.92072  0
C  C133  1  0.64354493  0.61490094  0.12203187  1  0.791649  0  -0.009214  0.022089  0  3.920641  0
C  C134  1  0.66985083  0.31845249  0.12365061  1  0.788573  0  -0.008726  0.027502  0  3.92718  0
C  C135  1  0.45374215  0.81845212  0.12349477  1  0.794002  0  -0.008555  0.028739  0  3.925753  0
C  C136  1  0.92803618  0.61318906  0.07230744  1  0.789192  0  -0.004942  0.027793  0  3.918456  0
C  C137  1  0.14416187  0.11317785  0.07227554  1  0.779  0  -0.004383  0.028541  0  3.919017  0
C  C138  1  0.95972038  0.32018116  0.08050504  1  0.77514  0  -0.008754  0.024213  0  3.926672  0
C  C139  1  0.12071453  0.82016930  0.08051600  1  0.784986  0  -0.00886  0.023981  0  3.925005  0
C  C140  1  0.73245975  0.00831210  0.08103853  1  0.485936  0  0.046335  0.088695  0  3.916915  0
C  C141  1  0.34860030  0.50838028  0.08106307  1  0.460375  0  0.046789  0.087861  0  3.9162  0
C  C142  1  0.78898645  0.06113037  0.17040263  1  0.010979  0  -0.087756  -0.181716  0  3.976281  0
C  C143  1  0.38140358  0.56120481  0.17042674  1  -0.021822  0  -0.087666  -0.180465  0  3.974451  0
C  C144  1  0.90546833  0.08273569  0.20763841  1  -0.03634  0  0.008659  0.106277  0  3.995169  0
C  C145  1  0.30214666  0.58276905  0.20763583  1  0.015358  0  0.008274  0.105646  0  3.991691  0
C  C146  1  0.95931374  0.04508253  0.15038318  1  0.00885  0  -0.084059  -0.177189  0  3.956113  0
C  C147  1  0.19104204  0.54508894  0.15033858  1  -0.019809  0  -0.083925  -0.177287  0  3.952373  0
C  C148  1  0.89731433  0.99350934  0.06110376  1  0.480529  0  0.050473  0.090461  0  3.900966  0
C  C149  1  0.16379058  0.49351893  0.06106556  1  0.421447  0  0.051213  0.091333  0  3.900809  0
C  C150  1  0.96405708  0.14033524  0.30258958  1  -0.016102  0  -0.006143  0.061436  0  3.988747  0
C  C151  1  0.33846428  0.64036616  0.30260092  1  -0.089231  0  -0.006046  0.061738  0  3.989397  0
C  C152  1  0.91222226  0.21062225  0.34657691  1  -0.066515  0  -0.089954  -0.123157  0  3.978123  0
C  C153  1  0.43428529  0.71067786  0.34659865  1  -0.009165  0  -0.089606  -0.122857  0  3.97724  0
C  C154  1  0.95804548  0.25649990  0.43748222  1  -0.032608  0  -0.089416  -0.122219  0  3.988332  0
C  C155  1  0.47935355  0.75654396  0.43749420  1  -0.059997  0  -0.090095  -0.123532  0  3.988281  0
C  C156  1  0.05732762  0.23458830  0.48846127  1  -0.017533  0  -0.007102  0.059355  0  3.988108  0
C  C157  1  0.43103961  0.73457577  0.48843618  1  -0.083726  0  -0.006608  0.060146  0  3.987913  0
C  C158  1  0.11328557  0.16974901  0.44423425  1  -0.100589  0  -0.079926  -0.107377  0  3.947925  0
C  C159  1  0.33083837  0.66976445  0.44421621  1  -0.038344  0  -0.0797  -0.107028  0  3.946392  0
C  C160  1  0.06750610  0.12352356  0.35281702  1  0.027486  0  -0.082304  -0.113205  0  3.949906  0
C  C161  1  0.28521708  0.62353538  0.35280064  1  -0.031683  0  -0.082307  -0.113214  0  3.950751  0
C  C162  1  0.09562809  0.27628870  0.58484864  1  -0.001518  0  0.008865  0.099792  0  3.99281  0
C  C163  1  0.48917033  0.77623298  0.58482783  1  -0.032695  0  0.008691  0.10072  0  3.993094  0
C  C164  1  0.01803096  0.30087189  0.62341485  1  0.025708  0  -0.085899  -0.177054  0  3.96205  0
C  C165  1  0.60534841  0.80080244  0.62335781  1  0.090876  0  -0.085874  -0.178019  0  3.963251  0
C  C166  1  0.05212869  0.33853776  0.71381305  1  0.405219  0  0.045931  0.086843  0  3.913734  0
C  C167  1  0.66163206  0.83851189  0.71377009  1  0.42084  0  0.04589  0.086795  0  3.91437  0
C  C168  1  0.23584425  0.33148137  0.73318828  1  0.395699  0  0.049217  0.089813  0  3.899327  0
C  C169  1  0.49732555  0.83145025  0.73317379  1  0.458546  0  0.049153  0.089846  0  3.899987  0
C  C170  1  0.20716781  0.29180264  0.64289855  1  -0.004156  0  -0.082969  -0.173828  0  3.942715  0
C  C171  1  0.43568432  0.79177840  0.64288536  1  -0.048409  0  -0.083278  -0.174578  0  3.942589  0
C  C172  1  0.55555926  0.77752494  0.92373771  1  0.782717  0  -0.007401  0.027672  0  3.921243  0
C  C173  1  0.36812285  0.27744232  0.92384055  1  0.785522  0  -0.00778  0.026833  0  3.922052  0
C  C174  1  0.84242369  0.75576899  0.87913083  1  0.787587  0  -0.005933  0.027825  0  3.920064  0
C  C175  1  0.03678148  0.25572139  0.87909482  1  0.78962  0  -0.005548  0.028379  0  3.920462  0
C  C176  1  0.54780123  0.06834790  0.91295103  1  0.778531  0  -0.014254  0.017596  0  3.942426  0
C  C177  1  0.36528425  0.56828320  0.91290480  1  0.784755  0  -0.014404  0.018014  0  3.941543  0
C  C178  1  0.03439757  0.55438518  0.87624317  1  0.767601  0  -0.007218  0.025478  0  3.91722  0
C  C179  1  0.84186660  0.05441398  0.87625810  1  0.798907  0  -0.007832  0.024395  0  3.916434  0
C  C180  1  0.20934598  0.08460236  0.72152201  1  -0.132973  0  -0.100067  -0.08381  0  4.052321  0
C  C181  1  0.51217216  0.58460864  0.72148236  1  -0.01979  0  -0.100172  -0.08476  0  4.051388  0
C  C182  1  0.10045532  0.09555009  0.67865548  1  -0.048245  0  -0.090101  -0.124872  0  3.954346  0
C  C183  1  0.57820038  0.59555387  0.67862870  1  -0.059784  0  -0.089725  -0.12306  0  3.952884  0
C  C184  1  0.04804295  0.05321193  0.58640215  1  0.009275  0  -0.010094  0.07343  0  4.026802  0
C  C185  1  0.53835287  0.55322449  0.58638486  1  -0.051001  0  -0.010209  0.072668  0  4.026898  0
C  C186  1  0.10737637  0.99751332  0.53711301  1  0.009369  0  -0.0013  -0.006176  0  3.914991  0
C  C187  1  0.42974713  0.49748777  0.53712233  1  0.013873  0  -0.000969  -0.005539  0  3.916006  0
C  C188  1  0.21835041  0.98518765  0.58181478  1  0.000524  0  -0.011541  0.070064  0  4.02874  0
C  C189  1  0.36345654  0.48516462  0.58180171  1  -0.07235  0  -0.012047  0.069614  0  4.033311  0
C  C190  1  0.26793334  0.03015862  0.67413332  1  -0.084521  0  -0.09494  -0.145745  0  3.99699  0
C  C191  1  0.40619525  0.53016454  0.67410989  1  -0.05618  0  -0.095284  -0.14611  0  3.99669  0
C  C192  1  0.93757731  0.06531677  0.53975171  1  -0.126766  0  -0.093508  -0.134446  0  4.004745  0
C  C193  1  0.60220992  0.56530601  0.53974642  1  -0.186634  0  -0.092616  -0.133397  0  4.00302  0
C  C194  1  0.88827443  0.02388089  0.45007298  1  0.023593  0  -0.091965  -0.125785  0  3.989202  0
C  C195  1  0.56181839  0.52385865  0.45006620  1  0.031118  0  -0.091929  -0.125491  0  3.987238  0
C  C196  1  0.94401745  0.96490276  0.39900264  1  -0.055072  0  -0.009728  0.074261  0  4.024543  0
C  C197  1  0.45499245  0.46485622  0.39901905  1  -0.092325  0  -0.009665  0.074017  0  4.024088  0
C  C198  1  0.05524609  0.95302463  0.44354798  1  -0.040373  0  -0.002831  -0.012554  0  3.931051  0
C  C199  1  0.38829664  0.45298470  0.44356910  1  0.001305  0  -0.002996  -0.013776  0  3.932505  0
C  C200  1  0.11388202  0.89651024  0.39399577  1  0.058177  0  -0.014157  0.064012  0  4.039321  0
C  C201  1  0.28009512  0.39647862  0.39402633  1  0.016888  0  -0.013877  0.065212  0  4.041294  0
C  C202  1  0.22357750  0.88254852  0.44075077  1  -0.052601  0  -0.093267  -0.135865  0  3.999877  0
C  C203  1  0.21712471  0.38254550  0.44076140  1  -0.012548  0  -0.09305  -0.136313  0  4.00158  0
C  C204  1  0.27336887  0.92507904  0.53052341  1  -0.085788  0  -0.09344  -0.13356  0  4.011251  0
C  C205  1  0.25714309  0.42504917  0.53052499  1  -0.082483  0  -0.093313  -0.133912  0  4.010937  0
C  C206  1  0.95194130  0.86588706  0.25883502  1  -0.064472  0  -0.097156  -0.083583  0  4.049459  0
C  C207  1  0.30685705  0.36586121  0.25887502  1  -0.102317  0  -0.097419  -0.084228  0  4.048454  0
C  C208  1  0.06095662  0.85471969  0.30168088  1  -0.12503  0  -0.095514  -0.138336  0  3.986182  0
C  C209  1  0.24067700  0.35471280  0.30171473  1  -0.167082  0  -0.09535  -0.137828  0  3.985632  0
C  C210  1  0.89349585  0.91954685  0.30672817  1  0.050609  0  -0.08948  -0.126287  0  3.955696  0
C  C211  1  0.41320316  0.41951198  0.30674296  1  0.099648  0  -0.089753  -0.126279  0  3.953915  0
C  C212  1  0.79223010  0.38470366  0.73846619  1  -0.091389  0  -0.095159  -0.074817  0  4.028808  0
C  C213  1  0.94635508  0.88476896  0.73847517  1  -0.097393  0  -0.095138  -0.075664  0  4.030893  0
C  C214  1  0.76108200  0.39672856  0.65933373  1  -0.084043  0  -0.089958  -0.132607  0  3.956937  0
C  C215  1  0.89833927  0.89676623  0.65933019  1  -0.009905  0  -0.089801  -0.131504  0  3.95715  0
C  C216  1  0.72254561  0.31611876  0.57862865  1  0.015214  0  -0.013437  0.065271  0  4.034918  0
C  C217  1  0.85611439  0.81614773  0.57862141  1  -0.102363  0  -0.013553  0.064683  0  4.035958  0
C  C218  1  0.71376544  0.22153130  0.57860009  1  -0.036562  0  -0.001526  -0.005495  0  3.921619  0
C  C219  1  0.86493800  0.72156475  0.57860964  1  -0.039064  0  -0.001668  -0.006485  0  3.92259  0
C  C220  1  0.74441563  0.21010802  0.65998616  1  -0.056127  0  -0.011056  0.069419  0  4.026011  0
C  C221  1  0.91569563  0.71015471  0.65998969  1  -0.013657  0  -0.011635  0.06976  0  4.024206  0
C  C222  1  0.78519492  0.29272288  0.73907111  1  0.022471  0  -0.090772  -0.125681  0  3.964526  0
C  C223  1  0.95398425  0.79278836  0.73907040  1  0.012934  0  -0.090279  -0.124321  0  3.961971  0
C  C224  1  0.68994047  0.32533525  0.49587803  1  -0.120041  0  -0.095498  -0.139464  0  3.999  0
C  C225  1  0.80596376  0.82535032  0.49586052  1  -0.088533  0  -0.095412  -0.138126  0  4.000311  0
C  C226  1  0.65449162  0.24598775  0.41828589  1  -0.021154  0  -0.093126  -0.131451  0  3.998681  0
C  C227  1  0.76379865  0.74599404  0.41828012  1  -0.02444  0  -0.093364  -0.131749  0  3.998831  0
C  C228  1  0.64519639  0.15024463  0.41628231  1  -0.023111  0  -0.010345  0.069111  0  4.031054  0
C  C229  1  0.77110646  0.65026120  0.41628131  1  -0.048423  0  -0.01071  0.068159  0  4.029875  0
C  C230  1  0.67254380  0.13903491  0.49757583  1  0.003656  0  5e-06  -0.005523  0  3.907304  0
C  C231  1  0.82514071  0.63906042  0.49758428  1  -5e-05  0  0.000354  -0.004695  0  3.906411  0
C  C232  1  0.65751768  0.04488603  0.49741366  1  -0.028051  0  -0.01098  0.068112  0  4.035386  0
C  C233  1  0.83995572  0.54490963  0.49743887  1  -0.010242  0  -0.010863  0.069252  0  4.034907  0
C  C234  1  0.68600334  0.03593633  0.57992129  1  -0.024554  0  -0.093391  -0.130566  0  3.996604  0
C  C235  1  0.89396751  0.53596597  0.57995542  1  -0.016557  0  -0.093734  -0.133253  0  3.997668  0
C  C236  1  0.72912064  0.11481531  0.65775467  1  -0.12376  0  -0.094442  -0.130754  0  4.010378  0
C  C237  1  0.92871909  0.61487238  0.65777697  1  -0.133907  0  -0.093803  -0.129723  0  4.008898  0
C  C238  1  0.60779352  0.06745384  0.33727610  1  0.003784  0  -0.090827  -0.131146  0  3.952757  0
C  C239  1  0.72949097  0.56747833  0.33727363  1  -0.093218  0  -0.091073  -0.130835  0  3.950988  0
C  C240  1  0.59480394  0.97595088  0.33795177  1  -0.061052  0  -0.098321  -0.078804  0  4.047808  0
C  C241  1  0.74313355  0.47598274  0.33797375  1  -0.017472  0  -0.098166  -0.078934  0  4.046174  0
C  C242  1  0.61769331  0.96472802  0.41654775  1  -0.060802  0  -0.095537  -0.142375  0  3.980789  0
C  C243  1  0.79885478  0.46475952  0.41656550  1  -0.081998  0  -0.095335  -0.142157  0  3.980312  0
N  N244  1  0.32595813  0.02984892  0.22533211  1  -1.143136  0  -0.326427  -0.153104  0  3.597525  0
N  N245  1  0.89932318  0.52990635  0.22536255  1  -1.146674  0  -0.326553  -0.153687  0  3.598237  0
N  N246  1  0.70155169  0.40176113  0.97114882  1  -1.19025  0  -0.32246  -0.14189  0  3.564741  0
N  N247  1  0.26960571  0.90175366  0.97114687  1  -1.192415  0  -0.32243  -0.141693  0  3.5672  0
N  N248  1  0.72154370  0.37816681  0.11888297  1  -1.287619  0  -0.379594  -0.281632  0  3.609732  0
N  N249  1  0.39728440  0.87818378  0.11883175  1  -1.2926  0  -0.37964  -0.282785  0  3.608494  0
N  N250  1  0.87706698  0.55268924  0.07662699  1  -1.287648  0  -0.382958  -0.288747  0  3.620208  0
N  N251  1  0.19945371  0.05266979  0.07658330  1  -1.274128  0  -0.383571  -0.290093  0  3.620023  0
N  N252  1  0.41425612  0.05502265  0.11491841  1  -1.280946  0  -0.37784  -0.283274  0  3.613259  0
N  N253  1  0.70057873  0.55500130  0.11486862  1  -1.29623  0  -0.378223  -0.284211  0  3.611891  0
N  N254  1  0.90010752  0.37810099  0.08410210  1  -1.271647  0  -0.383881  -0.287955  0  3.635393  0
N  N255  1  0.18393680  0.87804792  0.08406277  1  -1.282824  0  -0.383937  -0.28816  0  3.632831  0
N  N256  1  0.78516192  0.97627397  0.02594318  1  -1.230321  0  -0.323909  -0.141608  0  3.578721  0
N  N257  1  0.24080998  0.47631297  0.02593716  1  -1.161132  0  -0.324559  -0.140543  0  3.577251  0
N  N258  1  0.15993413  0.35506801  0.76903791  1  -1.161287  0  -0.327094  -0.147962  0  3.597679  0
N  N259  1  0.60908110  0.85505773  0.76901385  1  -1.14935  0  -0.326765  -0.14851  0  3.59964  0
N  N260  1  0.60833745  0.83278082  0.91502310  1  -1.277197  0  -0.384276  -0.283806  0  3.642978  0
N  N261  1  0.30667768  0.33272101  0.91506938  1  -1.275194  0  -0.383842  -0.282675  0  3.6432  0
N  N262  1  0.78999185  0.81897647  0.88605370  1  -1.282957  0  -0.381366  -0.283907  0  3.620057  0
N  N263  1  0.09611027  0.31896615  0.88604401  1  -1.284205  0  -0.381247  -0.283621  0  3.620725  0
N  N264  1  0.09473557  0.49764556  0.88207184  1  -1.271044  0  -0.38197  -0.28483  0  3.631912  0
N  N265  1  0.78738685  0.99765152  0.88208332  1  -1.297077  0  -0.381673  -0.2842  0  3.630329  0
N  N266  1  0.60292284  0.00710428  0.90687807  1  -1.277693  0  -0.386777  -0.285307  0  3.658709  0
N  N267  1  0.30407453  0.50707224  0.90686233  1  -1.282292  0  -0.386378  -0.285292  0  3.657343  0
