# generated using pymatgen
data_AgH9C16S3N2(OF)3
_symmetry_space_group_name_H-M   'P 1'
_cell_length_a   9.23322222
_cell_length_b   13.56417342
_cell_length_c   17.82136138
_cell_angle_alpha   82.42649220
_cell_angle_beta   77.42671312
_cell_angle_gamma   72.30032529
_symmetry_Int_Tables_number   1
_chemical_formula_structural   AgH9C16S3N2(OF)3
_chemical_formula_sum   'Ag4 H36 C64 S12 N8 O12 F12'
_cell_volume   2070.14532807
_cell_formula_units_Z   4
loop_
 _symmetry_equiv_pos_site_id
 _symmetry_equiv_pos_as_xyz
  1  'x, y, z'
loop_
 _atom_site_type_symbol
 _atom_site_label
 _atom_site_symmetry_multiplicity
 _atom_site_fract_x
 _atom_site_fract_y
 _atom_site_fract_z
 _atom_site_occupancy
 _atom_site_pbe_bader_charge
 _atom_site_pbe_bader_spin_density
 _atom_site_pbe_cm5_charge
 _atom_site_pbe_ddec_charge
 _atom_site_pbe_ddec_spin_density
 _atom_site_pbe_ddec_sum_bond_order
 _atom_site_pbe_magmom
Ag  Ag0  1  0.83411654  0.39423394  0.11705162  1  0.701341  0.119346  0.559862  0.544681  0.23492  2.056013  0.114
Ag  Ag1  1  0.16588500  0.60576629  0.88294951  1  0.701288  -0.119348  0.559844  0.544666  -0.23491  2.056198  -0.114
Ag  Ag2  1  0.34208309  0.11682516  0.38664437  1  0.706921  -0.114337  0.558641  0.546782  -0.229056  2.053396  -0.11
Ag  Ag3  1  0.65790949  0.88317159  0.61335284  1  0.706873  0.114237  0.558592  0.546751  0.228889  2.053277  0.11
H  H4  1  0.42986202  0.52524670  0.35817642  1  0.120253  -1.2e-05  0.117678  0.147447  7.7e-05  0.977063  0.0
H  H5  1  0.57014684  0.47476396  0.64181659  1  0.120292  1.2e-05  0.117654  0.147363  -7.7e-05  0.977015  0.0
H  H6  1  0.44250910  0.35508658  0.45323513  1  0.099446  6e-06  0.100287  0.117791  0.00011  1.02498  0.0
H  H7  1  0.55747701  0.64493253  0.54676925  1  0.099568  -6e-06  0.100274  0.117797  -0.00011  1.024934  0.0
H  H8  1  0.69182777  0.20735236  0.41096773  1  0.157521  -0.000695  0.109462  0.133289  -0.000517  1.014402  0.0
H  H9  1  0.30816825  0.79266690  0.58904880  1  0.157128  0.000696  0.109473  0.133351  0.000517  1.014215  0.0
H  H10  1  0.90854773  0.14076113  0.43742165  1  0.097009  -0.002172  0.112728  0.127474  -0.000824  1.002846  0.003
H  H11  1  0.09145226  0.85924646  0.56258424  1  0.096957  0.002179  0.112734  0.127475  0.000825  1.002991  -0.003
H  H12  1  0.16273302  0.97767085  0.43868810  1  0.141535  -0.000122  0.108878  0.139811  0.000782  1.011376  -0.001
H  H13  1  0.83725390  0.02232388  0.56132535  1  0.141666  0.00012  0.108899  0.13989  -0.000782  1.011652  0.001
H  H14  1  0.34094357  0.96963146  0.29913212  1  0.112924  -0.000573  0.101825  0.122599  -0.000493  1.035982  0.002
H  H15  1  0.65903561  0.03036212  0.70087691  1  0.113384  0.000573  0.101779  0.122555  0.000493  1.035906  -0.002
H  H16  1  0.31019653  0.24493711  0.04917147  1  0.152034  0.001006  0.108828  0.134692  0.001121  1.010699  0.0
H  H17  1  0.68979426  0.75506332  0.95082263  1  0.152156  -0.001007  0.10884  0.134695  -0.001122  1.010854  0.0
H  H18  1  0.58539285  0.14989961  0.97214737  1  0.070615  0.000161  0.102132  0.113677  0.000231  1.006194  0.0
H  H19  1  0.41459032  0.85008447  0.02784845  1  0.071201  -0.000161  0.102143  0.113734  -0.000231  1.006123  0.0
H  H20  1  0.70944575  0.96961099  0.04591830  1  0.141879  -3e-05  0.100371  0.126709  -7.1e-05  1.041929  0.0
H  H21  1  0.29054491  0.03037513  0.95408354  1  0.141875  3e-05  0.100439  0.126871  7.1e-05  1.042037  0.0
H  H22  1  0.92574536  0.46706873  0.41475749  1  0.127314  2.2e-05  0.11453  0.144678  -6.6e-05  0.984634  0.0
H  H23  1  0.07426195  0.53294780  0.58521913  1  0.126643  -2.2e-05  0.11438  0.144413  6.6e-05  0.984661  0.0
H  H24  1  0.93071744  0.54966554  0.27077814  1  0.134819  -2.3e-05  0.099515  0.117951  -0.000119  1.025584  0.0
H  H25  1  0.06931413  0.45036206  0.72920880  1  0.133026  2.3e-05  0.099463  0.117954  0.000119  1.025597  0.0
H  H26  1  0.17953736  0.45561370  0.17851779  1  0.155063  0.000696  0.108528  0.13316  0.000549  1.022481  0.0
H  H27  1  0.82048430  0.54441713  0.82146044  1  0.155865  -0.000697  0.108567  0.133304  -0.00055  1.022397  0.0
H  H28  1  0.39003507  0.47426888  0.12602418  1  0.098007  0.001996  0.112205  0.129126  0.000858  1.008553  -0.003
H  H29  1  0.60997962  0.52571977  0.87395551  1  0.097774  -0.002002  0.112171  0.129105  -0.000858  1.008618  0.003
H  H30  1  0.63584938  0.43329616  0.00986301  1  0.140807  0.000133  0.10871  0.138748  -0.000769  1.01262  0.001
H  H31  1  0.36417854  0.56667727  0.99013232  1  0.140684  -0.000134  0.108796  0.138776  0.000769  1.012622  -0.001
H  H32  1  0.81997074  0.24497073  0.03821476  1  0.131552  0.000471  0.099647  0.119845  0.000523  1.043809  -0.001
H  H33  1  0.18003971  0.75501752  0.96179311  1  0.131547  -0.000471  0.099645  0.119863  -0.000521  1.043727  0.001
H  H34  1  0.82483310  0.97854279  0.29318568  1  0.148582  -0.000951  0.108914  0.132244  -0.001079  1.00827  0.0
H  H35  1  0.17510971  0.02146654  0.70682873  1  0.148737  0.000952  0.108901  0.132156  0.001079  1.008482  0.0
H  H36  1  0.09904012  0.85144838  0.23838476  1  0.089251  -0.000168  0.111098  0.128965  -0.000187  0.969257  0.0
H  H37  1  0.90091094  0.14853665  0.76166133  1  0.090085  0.000168  0.111205  0.129069  0.000187  0.969219  0.0
H  H38  1  0.20190894  0.91132897  0.09400875  1  0.120908  0.000144  0.106217  0.12829  0.00016  1.034935  0.0
H  H39  1  0.79811250  0.08865226  0.90604254  1  0.120635  -0.000145  0.106326  0.12829  -0.000159  1.035075  0.0
C  C40  1  0.52169861  0.45257569  0.35491549  1  -0.249083  -0.022527  -0.094103  -0.167029  -0.020049  3.954569  -0.013
C  C41  1  0.47831689  0.54744166  0.64508297  1  -0.249333  0.022566  -0.093923  -0.166675  0.020086  3.954059  0.013
C  C42  1  0.53118417  0.36384131  0.40369784  1  0.032347  -0.003405  -0.108023  -0.096728  -0.003179  4.044302  -0.001
C  C43  1  0.46880378  0.63618404  0.59630595  1  0.032869  0.00341  -0.108203  -0.0971  0.003183  4.04451  0.001
C  C44  1  0.66798478  0.28403170  0.38109741  1  -0.02249  -0.014243  -0.095017  -0.110081  -0.012691  3.941932  -0.008
C  C45  1  0.33200858  0.71599035  0.61891457  1  -0.022684  0.01426  -0.094913  -0.109774  0.012708  3.941626  0.008
C  C46  1  0.76306292  0.31255964  0.31536421  1  -0.189408  -0.003705  -0.021996  -0.057006  -0.002842  4.009694  0.0
C  C47  1  0.23694291  0.68745937  0.68464767  1  -0.189459  0.003714  -0.021898  -0.056961  0.00285  4.009698  0.0
C  C48  1  0.91348074  0.25339320  0.27774601  1  0.449591  -0.031667  0.118093  0.149273  -0.031892  4.012616  -0.021
C  C49  1  0.08651581  0.74661424  0.72225811  1  0.449474  0.031722  0.118155  0.1492  0.03194  4.012644  0.021
C  C50  1  0.01195925  0.16714593  0.31233248  1  -0.00468  -0.000735  -0.017004  -0.016205  0.001744  4.001806  0.01
C  C51  1  0.98804371  0.83285348  0.68766802  1  -0.004986  0.00071  -0.017076  -0.016193  -0.001765  4.0018  -0.01
C  C52  1  0.00236495  0.11793389  0.38876138  1  -0.030581  -0.276711  -0.075672  -0.090455  -0.250171  3.809075  -0.159
C  C53  1  0.99763173  0.88206484  0.61124118  1  -0.030215  0.276699  -0.075619  -0.090411  0.250179  3.808946  0.159
C  C54  1  0.13900100  0.03522890  0.39101706  1  -0.114321  0.032514  -0.124988  -0.138622  0.029393  3.997041  0.03
C  C55  1  0.86097523  0.96478148  0.60898654  1  -0.114659  -0.032511  -0.125046  -0.138726  -0.029396  3.997029  -0.03
C  C56  1  0.23850809  0.03287084  0.31737668  1  -0.094277  -0.157525  -0.128972  -0.161664  -0.142523  3.955365  -0.096
C  C57  1  0.76148435  0.96712047  0.68263203  1  -0.095167  0.157421  -0.128957  -0.161741  0.142436  3.955624  0.096
C  C58  1  0.15811026  0.11485544  0.26741043  1  -0.011345  -0.043059  -0.019798  -0.014541  -0.036313  4.004545  -0.022
C  C59  1  0.84188415  0.88514322  0.73259132  1  -0.01069  0.043031  -0.019778  -0.014457  0.03629  4.004688  0.022
C  C60  1  0.19877347  0.15337449  0.19145204  1  0.483598  0.000186  0.112264  0.127752  -0.00311  4.058347  0.003
C  C61  1  0.80123267  0.84662472  0.80854526  1  0.48346  -0.000179  0.112249  0.127746  0.003118  4.058274  -0.003
C  C62  1  0.34120036  0.11652045  0.13655296  1  -0.2296  -0.00316  -0.02104  -0.057984  -0.002497  4.005657  -0.002
C  C63  1  0.65881321  0.88349176  0.86345044  1  -0.229073  0.003171  -0.020905  -0.05794  0.002506  4.005371  0.002
C  C64  1  0.38462548  0.17077587  0.06763478  1  0.034926  -0.01714  -0.094184  -0.11338  -0.015467  3.950369  -0.011
C  C65  1  0.61537270  0.82922096  0.93236280  1  0.033993  0.017151  -0.094228  -0.113393  0.015477  3.950565  0.011
C  C66  1  0.53211779  0.11938249  0.02714791  1  -0.014163  0.008313  -0.110786  -0.102431  0.007843  4.063155  0.006
C  C67  1  0.46789169  0.88061242  0.97285462  1  -0.014751  -0.008316  -0.110677  -0.102323  -0.007844  4.063078  -0.006
C  C68  1  0.59937399  0.02618815  0.06430786  1  -0.290379  -0.022952  -0.098494  -0.176896  -0.020476  3.968693  -0.013
C  C69  1  0.40061839  0.97380861  0.93570063  1  -0.290448  0.022976  -0.098644  -0.177112  0.020498  3.968686  0.013
C  C70  1  0.01715570  0.44428557  0.36508174  1  -0.269056  0.02237  -0.096931  -0.173992  0.019913  3.964911  0.013
C  C71  1  0.98284931  0.55573113  0.63490865  1  -0.268097  -0.022351  -0.096813  -0.173617  -0.019896  3.964586  -0.013
C  C72  1  0.02232578  0.48620063  0.29000265  1  -0.010453  0.003724  -0.10929  -0.096247  0.00346  4.04777  0.002
C  C73  1  0.97769300  0.51382097  0.70998912  1  -0.009375  -0.003725  -0.109184  -0.096347  -0.00346  4.047434  -0.002
C  C74  1  0.15879254  0.43579476  0.24022826  1  -0.01441  0.01364  -0.095869  -0.109814  0.012119  3.933522  0.007
C  C75  1  0.84120315  0.56423578  0.75975968  1  -0.013971  -0.013632  -0.095736  -0.109655  -0.012113  3.933677  -0.007
C  C76  1  0.25828623  0.35610035  0.27779806  1  -0.21196  0.003949  -0.022517  -0.058568  0.003071  4.006318  0.0
C  C77  1  0.74171204  0.64390642  0.72219637  1  -0.212593  -0.003939  -0.022667  -0.058809  -0.003061  4.006907  0.0
C  C78  1  0.40942225  0.29095267  0.24617411  1  0.492496  0.032277  0.118352  0.151074  0.032366  4.00507  0.022
C  C79  1  0.59057625  0.70904551  0.75382042  1  0.492734  -0.032289  0.118468  0.151419  -0.032376  4.004952  -0.022
C  C80  1  0.50228682  0.31494285  0.17641169  1  -0.042129  -0.001757  -0.016504  -0.014381  -0.003388  3.99575  -0.012
C  C81  1  0.49771579  0.68505488  0.82357617  1  -0.042231  0.001743  -0.016622  -0.014813  0.003375  3.99618  0.012
C  C82  1  0.48575152  0.40374477  0.12224033  1  -0.055839  0.278055  -0.07575  -0.090533  0.250703  3.808815  0.159
C  C83  1  0.51428758  0.59624720  0.87773956  1  -0.056364  -0.278182  -0.075742  -0.090338  -0.250791  3.808342  -0.159
C  C84  1  0.61808686  0.38494486  0.06273598  1  -0.104808  -0.031493  -0.126135  -0.14124  -0.02821  4.002235  -0.029
C  C85  1  0.38193725  0.61505218  0.93725079  1  -0.103816  0.031528  -0.126238  -0.141471  0.02822  4.002123  0.029
C  C86  1  0.72164640  0.28622070  0.07925634  1  -0.157722  0.15194  -0.13532  -0.169978  0.136714  3.976308  0.092
C  C87  1  0.27836520  0.71377501  0.92073511  1  -0.157629  -0.151924  -0.135235  -0.169879  -0.136691  3.976202  -0.092
C  C88  1  0.64833023  0.24148417  0.15047031  1  0.040802  0.044971  -0.020188  -0.01341  0.038523  4.001324  0.024
C  C89  1  0.35169376  0.75851728  0.84952371  1  0.040671  -0.044961  -0.02019  -0.01338  -0.038515  4.001035  -0.024
C  C90  1  0.69550610  0.15042082  0.19685760  1  0.495619  -0.000939  0.110541  0.125231  0.00233  4.06348  -0.003
C  C91  1  0.30448684  0.84959515  0.80314576  1  0.496083  0.000947  0.110533  0.125315  -0.00232  4.063327  0.003
C  C92  1  0.83941917  0.06780621  0.18278746  1  -0.211744  0.003138  -0.019554  -0.053852  0.002437  4.001611  0.002
C  C93  1  0.16057568  0.93218658  0.81723084  1  -0.211443  -0.00314  -0.019584  -0.053889  -0.002438  4.001787  -0.002
C  C94  1  0.89212606  0.98661653  0.23565511  1  -0.005891  0.015704  -0.093005  -0.11326  0.014206  3.949084  0.01
C  C95  1  0.10786044  0.01338560  0.76436350  1  -0.00611  -0.015696  -0.092901  -0.113019  -0.014197  3.948331  -0.01
C  C96  1  0.03808526  0.91942478  0.20616243  1  0.027782  -0.006903  -0.106777  -0.091509  -0.006427  4.046085  -0.005
C  C97  1  0.96186655  0.08055304  0.79387000  1  0.027334  0.0069  -0.106932  -0.091712  0.006424  4.04559  0.005
C  C98  1  0.09474711  0.94887884  0.13116872  1  -0.260329  0.020906  -0.101111  -0.184337  0.018754  3.985767  0.012
C  C99  1  0.90526466  0.05110255  0.86887484  1  -0.260629  -0.02089  -0.10116  -0.184244  -0.01874  3.985876  -0.012
C  C100  1  0.34241116  0.22435206  0.63548944  1  1.651612  -0.000897  0.287233  0.516161  -0.0009  4.055354  -0.001
C  C101  1  0.65756559  0.77562222  0.36450136  1  1.651296  0.000895  0.287383  0.516497  0.000898  4.05541  0.001
C  C102  1  0.86519852  0.74088697  0.11185175  1  1.650562  0.000958  0.289709  0.517028  0.000951  4.04396  0.001
C  C103  1  0.13481606  0.25911500  0.88813951  1  1.650381  -0.000958  0.28974  0.517184  -0.000951  4.044167  -0.001
S  S104  1  0.48312953  0.00152141  0.14903857  1  0.248321  0.003455  0.095264  0.171296  0.003714  2.95517  0.004
S  S105  1  0.51686574  0.99848271  0.85097409  1  0.248771  -0.003456  0.095183  0.171239  -0.003715  2.955416  -0.004
S  S106  1  0.67909704  0.43940850  0.28192342  1  0.224795  -0.003368  0.087338  0.140377  -0.002807  3.070515  -0.002
S  S107  1  0.32091658  0.56060258  0.71807508  1  0.225152  0.003376  0.087267  0.140225  0.002814  3.070369  0.002
S  S108  1  0.97130018  0.05832774  0.09671938  1  0.224271  -0.003009  0.088229  0.156941  -0.003302  3.013827  -0.004
S  S109  1  0.02873030  0.94165531  0.90330120  1  0.223778  0.003009  0.088218  0.156904  0.003302  3.014161  0.004
S  S110  1  0.17850863  0.34429448  0.37542375  1  0.234668  0.003832  0.083638  0.13966  0.003218  3.086806  0.002
S  S111  1  0.82147045  0.65571619  0.62456143  1  0.234033  -0.00383  0.083603  0.139527  -0.003215  3.08633  -0.002
S  S112  1  0.44573263  0.13564237  0.55666438  1  3.269718  -0.000547  0.487605  1.005134  -0.000793  6.321636  0.0
S  S113  1  0.55427475  0.86435000  0.44331351  1  3.269256  0.000547  0.487594  1.005203  0.000792  6.322598  0.0
S  S114  1  0.96126025  0.61013716  0.07470220  1  3.282828  0.000609  0.491103  1.011332  0.000879  6.319673  0.0
S  S115  1  0.03875100  0.38986483  0.92528951  1  3.28282  -0.000609  0.491033  1.011011  -0.000879  6.319956  0.0
N  N116  1  0.09928231  0.23907764  0.16244291  1  -0.546063  -0.102358  -0.177386  -0.13789  -0.087179  3.317367  -0.074
N  N117  1  0.90071539  0.76092218  0.83756385  1  -0.545985  0.102416  -0.177391  -0.137871  0.087234  3.317571  0.074
N  N118  1  0.96537257  0.28515315  0.20298263  1  -0.618993  -0.0038  -0.201986  -0.145037  0.001927  3.560395  0.011
N  N119  1  0.03462426  0.71484915  0.79702614  1  -0.619098  0.003834  -0.202065  -0.145136  -0.001892  3.560623  -0.011
N  N120  1  0.46741977  0.19991508  0.28754596  1  -0.604405  0.005014  -0.20326  -0.147561  -0.000636  3.559354  -0.01
N  N121  1  0.53255301  0.80008532  0.71246069  1  -0.603399  -0.004993  -0.203162  -0.147388  0.000657  3.559827  0.01
N  N122  1  0.60223152  0.13399753  0.26512965  1  -0.567302  0.101642  -0.17748  -0.140955  0.086641  3.308463  0.073
N  N123  1  0.39776241  0.86601828  0.73487136  1  -0.567875  -0.101618  -0.177503  -0.141142  -0.086617  3.308673  -0.073
O  O124  1  0.35347328  0.18306089  0.49649277  1  -1.311531  -0.004881  -0.354314  -0.575758  -0.004066  2.43624  -0.004
O  O125  1  0.64652257  0.81696743  0.50348591  1  -1.310981  0.004873  -0.354422  -0.575925  0.004059  2.436824  0.004
O  O126  1  0.60237632  0.14500292  0.54027255  1  -1.314505  0.00017  -0.331497  -0.540676  0.000239  2.201872  0.0
O  O127  1  0.39762237  0.85499982  0.45972016  1  -1.314448  -0.000171  -0.331514  -0.540745  -0.000239  2.201831  0.0
O  O128  1  0.42769760  0.03480409  0.59027171  1  -1.302129  0.004806  -0.337165  -0.556945  0.004329  2.330022  0.004
O  O129  1  0.57228784  0.96517828  0.40968864  1  -1.302333  -0.004813  -0.337179  -0.556967  -0.004335  2.330476  -0.004
O  O130  1  0.87354463  0.54813075  0.12957299  1  -1.308865  0.004558  -0.3535  -0.567089  0.003684  2.43259  0.003
O  O131  1  0.12647345  0.45186808  0.87041770  1  -1.308897  -0.00456  -0.353438  -0.566938  -0.003685  2.432632  -0.003
O  O132  1  0.93216212  0.62311119  0.99619529  1  -1.310237  -0.004842  -0.332073  -0.55692  -0.00439  2.33397  -0.004
O  O133  1  0.06785843  0.37687691  0.00379832  1  -1.310004  0.004841  -0.332107  -0.556903  0.004389  2.33388  0.004
O  O134  1  0.12175672  0.58967594  0.08197238  1  -1.315687  1e-06  -0.332915  -0.545007  -0.000109  2.206531  0.0
O  O135  1  0.87825421  0.41031915  0.91802150  1  -1.315818  -2e-06  -0.33281  -0.544849  0.000108  2.206542  0.0
F  F136  1  0.19144242  0.22606123  0.65571430  1  -0.610875  -0.000101  -0.095727  -0.171668  -0.000124  1.346418  0.0
F  F137  1  0.80853902  0.77389346  0.34427536  1  -0.610971  0.000102  -0.095861  -0.1718  0.000124  1.346424  0.0
F  F138  1  0.34832712  0.32329093  0.61318026  1  -0.617156  -6.6e-05  -0.102856  -0.190194  1.7e-05  1.332003  0.0
F  F139  1  0.65164298  0.67669902  0.38682264  1  -0.616813  6.6e-05  -0.102926  -0.190352  -1.7e-05  1.33195  0.0
F  F140  1  0.40904821  0.19252317  0.69876472  1  -0.612893  -0.000406  -0.103432  -0.194465  -0.000493  1.363387  0.0
F  F141  1  0.59092370  0.80743308  0.30122599  1  -0.612756  0.000406  -0.103291  -0.194382  0.000493  1.363603  0.0
F  F142  1  0.71003893  0.76884220  0.11384290  1  -0.613883  0.000105  -0.097958  -0.179417  0.000115  1.358164  0.0
F  F143  1  0.28998060  0.23114819  0.88614996  1  -0.613854  -0.000105  -0.098023  -0.179488  -0.000116  1.358225  0.0
F  F144  1  0.92298650  0.81373445  0.06528167  1  -0.626964  0.000581  -0.095995  -0.196927  0.000712  1.410388  0.0
F  F145  1  0.07702966  0.18626358  0.93470883  1  -0.626707  -0.000581  -0.096066  -0.197013  -0.000712  1.410501  0.0
F  F146  1  0.88880202  0.74296471  0.18378956  1  -0.615644  3.5e-05  -0.092885  -0.178588  1e-06  1.40234  0.0
F  F147  1  0.11121824  0.25702854  0.81619940  1  -0.615749  -3.5e-05  -0.092891  -0.178642  -1e-06  1.402379  0.0
