# generated using pymatgen
data_NbCuH8C10N2OF4
_symmetry_space_group_name_H-M   'P 1'
_cell_length_a   3.94671074
_cell_length_b   13.29677364
_cell_length_c   13.29671629
_cell_angle_alpha   109.34752178
_cell_angle_beta   89.99967024
_cell_angle_gamma   90.00031398
_symmetry_Int_Tables_number   1
_chemical_formula_structural   NbCuH8C10N2OF4
_chemical_formula_sum   'Nb2 Cu2 H16 C20 N4 O2 F8'
_cell_volume   658.38522321
_cell_formula_units_Z   2
loop_
 _symmetry_equiv_pos_site_id
 _symmetry_equiv_pos_as_xyz
  1  'x, y, z'
loop_
 _atom_site_type_symbol
 _atom_site_label
 _atom_site_symmetry_multiplicity
 _atom_site_fract_x
 _atom_site_fract_y
 _atom_site_fract_z
 _atom_site_occupancy
 _atom_site_hle17_bader_spin_density
 _atom_site_hle17_ddec_charge
 _atom_site_hle17_ddec_spin_density
 _atom_site_hle17_ddec_sum_bond_order
 _atom_site_hle17_magmom
 _atom_site_hse06_10hf_bader_spin_density
 _atom_site_hse06_10hf_ddec_charge
 _atom_site_hse06_10hf_ddec_spin_density
 _atom_site_hse06_10hf_ddec_sum_bond_order
 _atom_site_hse06_10hf_magmom
 _atom_site_hse06_bader_spin_density
 _atom_site_hse06_ddec_charge
 _atom_site_hse06_ddec_spin_density
 _atom_site_hse06_ddec_sum_bond_order
 _atom_site_hse06_magmom
 _atom_site_pbe_bader_spin_density
 _atom_site_pbe_cm5_charge
 _atom_site_pbe_ddec_charge
 _atom_site_pbe_ddec_spin_density
 _atom_site_pbe_ddec_sum_bond_order
 _atom_site_pbe_magmom
Nb  Nb0  1  0.10799100  0.75001118  0.24998236  1  0  2.560994  0  3.304622  0  0  2.542931  0  3.766074  0  0  2.654632  0  3.698379  0  0  1.580774  2.465206  0  3.811879  0
Nb  Nb1  1  0.89200321  0.25002444  0.74997902  1  0  2.560972  0  3.304895  0  0  2.542988  0  3.766251  0  0  2.654969  0  3.698087  0  0  1.580742  2.46526  0  3.812066  0
Cu  Cu2  1  0.49999589  0.00000403  0.49999909  1  0  0.5621  0  1.535519  0  0  0.439706  0  1.95974  0  0  0.446959  0  1.912065  0  0  0.541904  0.437373  0  1.991172  0
Cu  Cu3  1  0.50000618  0.50000781  0.00000390  1  0  0.562093  0  1.535654  0  0  0.439727  0  1.959933  0  0  0.446921  0  1.912186  0  0  0.541861  0.437358  0  1.991336  0
H  H4  1  0.31246056  0.03472407  0.71836284  1  0  0.090959  0  0.969342  0  0  0.09652  0  1.040357  0  0  0.09988  0  1.035651  0  0  0.115898  0.093885  0  1.044059  0
H  H5  1  0.31261623  0.46527005  0.78164374  1  0  0.090914  0  0.969217  0  0  0.096418  0  1.040302  0  0  0.099779  0  1.035593  0  0  0.115842  0.093781  0  1.044003  0
H  H6  1  0.68754507  0.78162985  0.46527165  1  0  0.090986  0  0.96916  0  0  0.096521  0  1.040225  0  0  0.099886  0  1.035508  0  0  0.115877  0.093891  0  1.04392  0
H  H7  1  0.68747043  0.71836436  0.03474400  1  0  0.090752  0  0.969288  0  0  0.096288  0  1.040403  0  0  0.09965  0  1.035693  0  0  0.115793  0.093653  0  1.044104  0
H  H8  1  0.68742723  0.96526809  0.28163677  1  0  0.090832  0  0.969548  0  0  0.096378  0  1.040612  0  0  0.099739  0  1.035901  0  0  0.115871  0.093743  0  1.044314  0
H  H9  1  0.68750720  0.53472546  0.21836139  1  0  0.091001  0  0.969114  0  0  0.096502  0  1.04019  0  0  0.099866  0  1.035479  0  0  0.115905  0.093871  0  1.043886  0
H  H10  1  0.31249981  0.21835526  0.53472887  1  0  0.090689  0  0.969135  0  0  0.096185  0  1.040291  0  0  0.099544  0  1.035582  0  0  0.115778  0.093552  0  1.043986  0
H  H11  1  0.31246803  0.28162876  0.96526041  1  0  0.090875  0  0.969277  0  0  0.096479  0  1.040262  0  0  0.099833  0  1.035561  0  0  0.115843  0.093843  0  1.043961  0
H  H12  1  0.30645056  0.92620831  0.83740798  1  0  0.108766  0  0.935021  0  0  0.122819  0  0.9871  0  0  0.126  0  0.986214  0  0  0.111891  0.120546  0  0.987889  0
H  H13  1  0.30655023  0.57379391  0.66261019  1  0  0.108917  0  0.935352  0  0  0.123028  0  0.987317  0  0  0.126219  0  0.986413  0  0  0.111949  0.120727  0  0.988144  0
H  H14  1  0.69352746  0.66261242  0.57380918  1  0  0.108893  0  0.935556  0  0  0.123073  0  0.987438  0  0  0.126294  0  0.986491  0  0  0.111999  0.120783  0  0.988267  0
H  H15  1  0.69346722  0.83739528  0.92621756  1  0  0.108924  0  0.935763  0  0  0.123148  0  0.987579  0  0  0.12633  0  0.986679  0  0  0.111951  0.120857  0  0.988401  0
H  H16  1  0.69349550  0.07378075  0.16259296  1  0  0.108853  0  0.935111  0  0  0.122941  0  0.987127  0  0  0.126125  0  0.98623  0  0  0.111908  0.120657  0  0.98793  0
H  H17  1  0.69353266  0.42620032  0.33740283  1  0  0.108827  0  0.935071  0  0  0.122904  0  0.987104  0  0  0.126082  0  0.986216  0  0  0.111953  0.120615  0  0.987914  0
H  H18  1  0.30649715  0.33738167  0.42620003  1  0  0.10893  0  0.935798  0  0  0.12315  0  0.987605  0  0  0.126359  0  0.986671  0  0  0.112023  0.120851  0  0.988437  0
H  H19  1  0.30648138  0.16260769  0.07379731  1  0  0.108886  0  0.935545  0  0  0.12298  0  0.987519  0  0  0.126157  0  0.986628  0  0  0.111959  0.120705  0  0.988325  0
C  C20  1  0.39767265  0.95232455  0.68955824  1  0  0.138799  0  3.667176  0  0  0.106647  0  3.912829  0  0  0.114317  0  3.929767  0  0  0.051843  0.101632  0  3.901646  0
C  C21  1  0.39775347  0.54768041  0.81044631  1  0  0.13889  0  3.6666  0  0  0.106761  0  3.912334  0  0  0.114438  0  3.929269  0  0  0.051921  0.101745  0  3.901137  0
C  C22  1  0.60234443  0.81046026  0.54768121  1  0  0.138811  0  3.666512  0  0  0.106679  0  3.912203  0  0  0.114358  0  3.929141  0  0  0.051932  0.101657  0  3.901023  0
C  C23  1  0.60229840  0.68955062  0.95232781  1  0  0.139189  0  3.6662  0  0  0.107006  0  3.911975  0  0  0.11469  0  3.928901  0  0  0.051976  0.101981  0  3.900786  0
C  C24  1  0.60227088  0.04766499  0.31043457  1  0  0.138897  0  3.666659  0  0  0.106702  0  3.912391  0  0  0.114387  0  3.929318  0  0  0.05183  0.10168  0  3.901208  0
C  C25  1  0.60231928  0.45231485  0.18955196  1  0  0.138757  0  3.667257  0  0  0.106673  0  3.912919  0  0  0.114344  0  3.929856  0  0  0.051834  0.101658  0  3.901729  0
C  C26  1  0.39770045  0.18954160  0.45230398  1  0  0.138992  0  3.666201  0  0  0.106849  0  3.911989  0  0  0.114538  0  3.928925  0  0  0.051848  0.101827  0  3.900795  0
C  C27  1  0.39764766  0.31045386  0.04766418  1  0  0.138976  0  3.666378  0  0  0.106783  0  3.912074  0  0  0.11447  0  3.928999  0  0  0.051962  0.101763  0  3.900899  0
C  C28  1  0.39628030  0.89074980  0.75573025  1  0  -0.157177  0  3.711555  0  0  -0.175602  0  3.958258  0  0  -0.183924  0  3.980074  0  0  -0.08186  -0.170248  0  3.943563  0
C  C29  1  0.39636375  0.60925803  0.74426688  1  0  -0.157257  0  3.711914  0  0  -0.17577  0  3.95851  0  0  -0.184094  0  3.980317  0  0  -0.081881  -0.1704  0  3.943835  0
C  C30  1  0.60370881  0.74425168  0.60926213  1  0  -0.157341  0  3.711127  0  0  -0.175897  0  3.957807  0  0  -0.184246  0  3.979587  0  0  -0.081959  -0.170539  0  3.943152  0
C  C31  1  0.60367555  0.75576182  0.89075368  1  0  -0.157381  0  3.711978  0  0  -0.176008  0  3.958608  0  0  -0.184318  0  3.980399  0  0  -0.081901  -0.170653  0  3.943947  0
C  C32  1  0.60364296  0.10925157  0.24426307  1  0  -0.157277  0  3.711579  0  0  -0.175744  0  3.958248  0  0  -0.184062  0  3.98006  0  0  -0.081857  -0.170387  0  3.94356  0
C  C33  1  0.60371153  0.39074579  0.25572868  1  0  -0.157219  0  3.711602  0  0  -0.175681  0  3.958248  0  0  -0.184003  0  3.980059  0  0  -0.081936  -0.170318  0  3.943564  0
C  C34  1  0.39629553  0.25575943  0.39073861  1  0  -0.157293  0  3.711771  0  0  -0.175882  0  3.958412  0  0  -0.184216  0  3.980191  0  0  -0.081927  -0.170523  0  3.943755  0
C  C35  1  0.39630092  0.24425259  0.10925105  1  0  -0.157346  0  3.711212  0  0  -0.175832  0  3.957898  0  0  -0.184152  0  3.979691  0  0  -0.081898  -0.170491  0  3.943234  0
C  C36  1  0.50000146  0.78390922  0.71610251  1  0  0.088046  0  3.784985  0  0  0.09633  0  4.025608  0  0  0.100998  0  4.047304  0  0  0.009089  0.093423  0  4.010677  0
C  C37  1  0.50000260  0.71609440  0.78392632  1  0  0.088023  0  3.785954  0  0  0.096457  0  4.026409  0  0  0.101112  0  4.048122  0  0  0.009067  0.093541  0  4.011474  0
C  C38  1  0.49999781  0.21608826  0.28391298  1  0  0.088063  0  3.7856  0  0  0.096408  0  4.026142  0  0  0.101059  0  4.047863  0  0  0.009056  0.093493  0  4.011208  0
C  C39  1  0.50000680  0.28390225  0.21608818  1  0  0.087986  0  3.785085  0  0  0.09634  0  4.025639  0  0  0.101021  0  4.047312  0  0  0.009058  0.093437  0  4.010706  0
N  N40  1  0.50001426  0.91332218  0.58667859  1  0  -0.288035  0  3.390288  0  0  -0.200688  0  3.677299  0  0  -0.214022  0  3.685737  0  0  -0.372147  -0.192513  0  3.671704  0
N  N41  1  0.50002528  0.58666293  0.91333946  1  0  -0.288323  0  3.390213  0  0  -0.200945  0  3.677311  0  0  -0.214271  0  3.685702  0  0  -0.37221  -0.192762  0  3.67168  0
N  N42  1  0.49998754  0.08665120  0.41332446  1  0  -0.288004  0  3.390052  0  0  -0.200606  0  3.677083  0  0  -0.213953  0  3.685524  0  0  -0.372028  -0.19243  0  3.671478  0
N  N43  1  0.49997906  0.41331794  0.08667409  1  0  -0.2881  0  3.390396  0  0  -0.200777  0  3.677478  0  0  -0.214094  0  3.685861  0  0  -0.372134  -0.192595  0  3.671859  0
O  O44  1  0.56270889  0.75002955  0.25000328  1  0  -1.035828  0  1.692497  0  0  -1.062901  0  2.005233  0  0  -1.104841  0  1.985093  0  0  -0.679089  -1.034068  0  2.018344  0
O  O45  1  0.43729291  0.25002243  0.74999532  1  0  -1.03573  0  1.692461  0  0  -1.062877  0  2.005248  0  0  -1.10494  0  1.985042  0  0  -0.679072  -1.034043  0  2.018358  0
F  F46  1  0.04432019  0.87555807  0.37559470  1  0  -0.615381  0  0.874048  0  0  -0.592995  0  1.089583  0  0  -0.612872  0  1.064632  0  0  -0.367512  -0.579037  0  1.106435  0
F  F47  1  0.04431019  0.62438084  0.12441526  1  0  -0.615497  0  0.873702  0  0  -0.593125  0  1.089248  0  0  -0.612987  0  1.064269  0  0  -0.367523  -0.579155  0  1.106087  0
F  F48  1  0.95570949  0.12438561  0.62441457  1  0  -0.615504  0  0.873695  0  0  -0.593131  0  1.089205  0  0  -0.613062  0  1.064205  0  0  -0.367524  -0.579173  0  1.10606  0
F  F49  1  0.95568401  0.37557078  0.87559561  1  0  -0.615421  0  0.87408  0  0  -0.593026  0  1.089582  0  0  -0.612935  0  1.064561  0  0  -0.367491  -0.579055  0  1.106421  0
F  F50  1  0.05344501  0.66086874  0.33915328  1  0  -0.590948  0  0.730552  0  0  -0.563304  0  0.879387  0  0  -0.585091  0  0.861867  0  0  -0.386882  -0.547749  0  0.891124  0
F  F51  1  0.05332706  0.83916717  0.16083813  1  0  -0.590777  0  0.730702  0  0  -0.563089  0  0.879549  0  0  -0.584843  0  0.862006  0  0  -0.386718  -0.547532  0  0.891279  0
F  F52  1  0.94656073  0.16087395  0.83914370  1  0  -0.590898  0  0.730631  0  0  -0.563276  0  0.879484  0  0  -0.585069  0  0.861871  0  0  -0.386849  -0.547715  0  0.891222  0
F  F53  1  0.94667081  0.33917226  0.66082551  1  0  -0.590852  0  0.730817  0  0  -0.563167  0  0.87962  0  0  -0.584961  0  0.862025  0  0  -0.38674  -0.54761  0  0.891348  0
