# generated using pymatgen
data_ThH8(C2O)8
_symmetry_space_group_name_H-M   'P 1'
_cell_length_a   9.32027424
_cell_length_b   10.75218966
_cell_length_c   10.75219041
_cell_angle_alpha   114.14875604
_cell_angle_beta   103.41256102
_cell_angle_gamma   103.41252616
_symmetry_Int_Tables_number   1
_chemical_formula_structural   ThH8(C2O)8
_chemical_formula_sum   'Th2 H16 C32 O16'
_cell_volume   889.18988812
_cell_formula_units_Z   2
loop_
 _symmetry_equiv_pos_site_id
 _symmetry_equiv_pos_as_xyz
  1  'x, y, z'
loop_
 _atom_site_type_symbol
 _atom_site_label
 _atom_site_symmetry_multiplicity
 _atom_site_fract_x
 _atom_site_fract_y
 _atom_site_fract_z
 _atom_site_occupancy
 _atom_site_pbe_bader_spin_density
 _atom_site_pbe_cm5_charge
 _atom_site_pbe_ddec_charge
 _atom_site_pbe_ddec_spin_density
 _atom_site_pbe_ddec_sum_bond_order
 _atom_site_pbe_magmom
Th  Th0  1  0.25000035  0.51946372  0.48053634  1  0  1.662552  2.34361  0  3.352312  0
Th  Th1  1  0.75000024  0.48053570  0.51946230  1  0  1.66263  2.343593  0  3.352216  0
H  H2  1  0.23775950  0.48075048  0.02495709  1  0  0.114035  0.121915  0  0.985308  0
H  H3  1  0.26224088  0.97504212  0.51924965  1  0  0.114026  0.121903  0  0.985307  0
H  H4  1  0.76224506  0.51924787  0.97504002  1  0  0.114008  0.121892  0  0.985282  0
H  H5  1  0.73775421  0.02495727  0.48075254  1  0  0.114  0.121891  0  0.985262  0
H  H6  1  0.72628658  0.53934232  0.20622104  1  0  0.110258  0.11101  0  1.025363  0
H  H7  1  0.77371461  0.79377832  0.46065962  1  0  0.110259  0.111005  0  1.025357  0
H  H8  1  0.27371866  0.46065493  0.79377669  1  0  0.110293  0.111059  0  1.02534  0
H  H9  1  0.22628134  0.20622325  0.53934364  1  0  0.110278  0.11102  0  1.025371  0
H  H10  1  0.44145241  0.83137433  0.97504216  1  0  0.10709  0.109956  0  1.006287  0
H  H11  1  0.05854673  0.02495896  0.16862803  1  0  0.107084  0.109941  0  1.006282  0
H  H12  1  0.55854863  0.16862618  0.02496074  1  0  0.107092  0.109939  0  1.006286  0
H  H13  1  0.94145215  0.97503607  0.83137218  1  0  0.10709  0.109948  0  1.006247  0
H  H14  1  0.96004477  0.78660796  0.93476227  1  0  0.11167  0.114889  0  1.008654  0
H  H15  1  0.53995249  0.06523998  0.21339238  1  0  0.111671  0.114881  0  1.008686  0
H  H16  1  0.03995480  0.21338597  0.06524041  1  0  0.111698  0.114891  0  1.008664  0
H  H17  1  0.46004481  0.93475941  0.78661025  1  0  0.111702  0.114898  0  1.008676  0
C  C18  1  0.45662660  0.51843795  0.26290218  1  0  0.247569  0.640253  0  4.128374  0
C  C19  1  0.04337620  0.73709761  0.48156435  1  0  0.247677  0.640428  0  4.128143  0
C  C20  1  0.54339049  0.48156702  0.73709920  1  0  0.247589  0.640354  0  4.128401  0
C  C21  1  0.95660917  0.26289954  0.51843316  1  0  0.247562  0.64029  0  4.128488  0
C  C22  1  0.47986923  0.51076652  0.12797808  1  0  -0.009902  -0.038555  0  3.961743  0
C  C23  1  0.02013043  0.87202200  0.48923630  1  0  -0.009911  -0.03857  0  3.961774  0
C  C24  1  0.52013400  0.48923400  0.87202339  1  0  -0.009965  -0.03868  0  3.961909  0
C  C25  1  0.97986533  0.12797629  0.51076557  1  0  -0.009949  -0.038641  0  3.961801  0
C  C26  1  0.35167504  0.48889077  0.01243673  1  0  -0.075862  -0.085318  0  3.952639  0
C  C27  1  0.14832479  0.98756268  0.51110982  1  0  -0.075854  -0.085306  0  3.952655  0
C  C28  1  0.64833217  0.51110868  0.98756229  1  0  -0.07585  -0.085273  0  3.952655  0
C  C29  1  0.85166964  0.01243779  0.48889455  1  0  -0.075853  -0.085322  0  3.952621  0
C  C30  1  0.13624499  0.67524422  0.78562257  1  0  0.246067  0.638539  0  4.130493  0
C  C31  1  0.36375379  0.21438071  0.32475547  1  0  0.246069  0.638562  0  4.130474  0
C  C32  1  0.86374905  0.32474968  0.21437808  1  0  0.246077  0.638564  0  4.130512  0
C  C33  1  0.63624989  0.78562091  0.67524746  1  0  0.246052  0.638596  0  4.130411  0
C  C34  1  0.19534866  0.79848932  0.93894076  1  0  -0.01154  -0.03882  0  3.953842  0
C  C35  1  0.30464943  0.06106257  0.20151474  1  0  -0.011433  -0.038693  0  3.953729  0
C  C36  1  0.80465169  0.20151228  0.06106059  1  0  -0.011547  -0.038792  0  3.953762  0
C  C37  1  0.69534981  0.93893902  0.79848639  1  0  -0.011481  -0.03872  0  3.953748  0
C  C38  1  0.62826868  0.52212218  0.11525827  1  0  -0.077125  -0.086837  0  3.958272  0
C  C39  1  0.87173188  0.88473913  0.47787858  1  0  -0.077113  -0.086778  0  3.958304  0
C  C40  1  0.37174048  0.47787947  0.88473925  1  0  -0.077093  -0.086754  0  3.958355  0
C  C41  1  0.12826406  0.11526245  0.52212282  1  0  -0.077101  -0.086744  0  3.95831  0
C  C42  1  0.35873889  0.87343881  0.01973404  1  0  -0.078426  -0.08691  0  3.96692  0
C  C43  1  0.14126089  0.98026836  0.12656263  1  0  -0.078459  -0.086953  0  3.967063  0
C  C44  1  0.64126061  0.12656059  0.98026810  1  0  -0.078423  -0.08688  0  3.966936  0
C  C45  1  0.85873996  0.01972887  0.87343887  1  0  -0.078421  -0.086891  0  3.966851  0
C  C46  1  0.08668080  0.84831877  0.99685241  1  0  -0.076458  -0.087585  0  3.948054  0
C  C47  1  0.41331760  0.00315036  0.15168206  1  0  -0.076517  -0.087665  0  3.947907  0
C  C48  1  0.91331895  0.15167845  0.00314981  1  0  -0.076492  -0.087626  0  3.947902  0
C  C49  1  0.58668079  0.99684905  0.84831800  1  0  -0.076534  -0.087699  0  3.947977  0
O  O50  1  0.23365880  0.66268626  0.71969899  1  0  -0.348118  -0.619743  0  2.330654  0
O  O51  1  0.26634002  0.28030278  0.33731283  1  0  -0.348102  -0.619742  0  2.330742  0
O  O52  1  0.76634510  0.33731317  0.28030030  1  0  -0.348076  -0.619679  0  2.330913  0
O  O53  1  0.73365239  0.71969551  0.66268187  1  0  -0.34807  -0.619714  0  2.330836  0
O  O54  1  0.98977983  0.59273211  0.72723644  1  0  -0.370365  -0.62217  0  2.352856  0
O  O55  1  0.51021886  0.27276533  0.40726893  1  0  -0.370397  -0.622214  0  2.352832  0
O  O56  1  0.01022376  0.40727499  0.27276316  1  0  -0.370407  -0.622268  0  2.352577  0
O  O57  1  0.48977549  0.72723517  0.59272334  1  0  -0.370388  -0.622266  0  2.352596  0
O  O58  1  0.32753644  0.52500584  0.27920095  1  0  -0.343489  -0.583004  0  2.263009  0
O  O59  1  0.17246622  0.72079922  0.47499443  1  0  -0.34353  -0.583073  0  2.262989  0
O  O60  1  0.67247049  0.47500126  0.72080396  1  0  -0.343456  -0.582961  0  2.263355  0
O  O61  1  0.82753085  0.27919691  0.52500029  1  0  -0.343442  -0.582938  0  2.263413  0
O  O62  1  0.56781854  0.51628712  0.35682403  1  0  -0.376712  -0.659408  0  2.433246  0
O  O63  1  0.93218335  0.64317512  0.48371481  1  0  -0.376762  -0.659524  0  2.433177  0
O  O64  1  0.43218817  0.48371671  0.64317298  1  0  -0.376745  -0.659571  0  2.433054  0
O  O65  1  0.06781104  0.35682536  0.51628398  1  0  -0.376733  -0.659539  0  2.433016  0
