# generated using pymatgen
data_TbH10C8SO10
_symmetry_space_group_name_H-M   'P 1'
_cell_length_a   7.71976733
_cell_length_b   8.39788722
_cell_length_c   10.61374575
_cell_angle_alpha   71.87744156
_cell_angle_beta   89.70132011
_cell_angle_gamma   69.24781124
_symmetry_Int_Tables_number   1
_chemical_formula_structural   TbH10C8SO10
_chemical_formula_sum   'Tb2 H20 C16 S2 O20'
_cell_volume   607.24230217
_cell_formula_units_Z   2
loop_
 _symmetry_equiv_pos_site_id
 _symmetry_equiv_pos_as_xyz
  1  'x, y, z'
loop_
 _atom_site_type_symbol
 _atom_site_label
 _atom_site_symmetry_multiplicity
 _atom_site_fract_x
 _atom_site_fract_y
 _atom_site_fract_z
 _atom_site_occupancy
 _atom_site_hle17_bader_spin_density
 _atom_site_hle17_ddec_charge
 _atom_site_hle17_ddec_spin_density
 _atom_site_hle17_ddec_sum_bond_order
 _atom_site_hle17_magmom
 _atom_site_hse06_10hf_bader_spin_density
 _atom_site_hse06_10hf_ddec_charge
 _atom_site_hse06_10hf_ddec_spin_density
 _atom_site_hse06_10hf_ddec_sum_bond_order
 _atom_site_hse06_10hf_magmom
 _atom_site_hse06_bader_spin_density
 _atom_site_hse06_ddec_charge
 _atom_site_hse06_ddec_spin_density
 _atom_site_hse06_ddec_sum_bond_order
 _atom_site_hse06_magmom
 _atom_site_pbe_bader_spin_density
 _atom_site_pbe_cm5_charge
 _atom_site_pbe_ddec_charge
 _atom_site_pbe_ddec_spin_density
 _atom_site_pbe_ddec_sum_bond_order
 _atom_site_pbe_magmom
Tb  Tb0  1  0.32054095  0.29585039  0.37493465  1  0  2.321802  0  1.565729  0  0  2.248479  0  1.890375  0  0  2.291416  0  1.850752  0  0  1.511665  2.142031  0  2.057858  0
Tb  Tb1  1  0.67945782  0.70415727  0.62506350  1  0  2.321808  0  1.565876  0  0  2.248496  0  1.89054  0  0  2.291435  0  1.850914  0  0  1.511633  2.142111  0  2.057926  0
H  H2  1  0.90884760  0.38602735  0.37676429  1  0  0.439068  0  0.842348  0  0  0.411066  0  0.904834  0  0  0.420625  0  0.8907  0  0  0.313872  0.403927  0  0.915211  0
H  H3  1  0.09115418  0.61397222  0.62323679  1  0  0.439055  0  0.842384  0  0  0.411072  0  0.904815  0  0  0.420629  0  0.890687  0  0  0.313869  0.403936  0  0.915186  0
H  H4  1  0.91877651  0.57343723  0.37646356  1  0  0.460655  0  0.827891  0  0  0.429873  0  0.890578  0  0  0.440958  0  0.874261  0  0  0.30987  0.421541  0  0.902644  0
H  H5  1  0.08122190  0.42656105  0.62353977  1  0  0.460655  0  0.827874  0  0  0.429873  0  0.890565  0  0  0.440958  0  0.874247  0  0  0.309855  0.421542  0  0.902629  0
H  H6  1  0.03040872  0.43693873  0.14206098  1  0  0.44596  0  0.840244  0  0  0.416275  0  0.901579  0  0  0.426034  0  0.887209  0  0  0.311216  0.409022  0  0.912055  0
H  H7  1  0.96959204  0.56305280  0.85793648  1  0  0.446001  0  0.840198  0  0  0.41631  0  0.901535  0  0  0.426077  0  0.887157  0  0  0.311211  0.409056  0  0.912011  0
H  H8  1  0.20412700  0.45543903  0.06406143  1  0  0.456561  0  0.834167  0  0  0.427309  0  0.893544  0  0  0.437306  0  0.878893  0  0  0.309665  0.419809  0  0.904444  0
H  H9  1  0.79587542  0.54455516  0.93593817  1  0  0.456561  0  0.83417  0  0  0.427306  0  0.893546  0  0  0.437302  0  0.878896  0  0  0.309679  0.419807  0  0.904446  0
H  H10  1  0.05938341  0.10534136  0.35921316  1  0  0.451486  0  0.841524  0  0  0.423962  0  0.896976  0  0  0.434196  0  0.882026  0  0  0.30654  0.416403  0  0.907861  0
H  H11  1  0.94061289  0.89467305  0.64078427  1  0  0.451539  0  0.84144  0  0  0.423977  0  0.896973  0  0  0.434215  0  0.882017  0  0  0.306512  0.416419  0  0.907857  0
H  H12  1  0.26388955  0.94687270  0.41860686  1  0  0.46103  0  0.826842  0  0  0.429545  0  0.889758  0  0  0.441179  0  0.872636  0  0  0.307659  0.420816  0  0.902465  0
H  H13  1  0.73610722  0.05314036  0.58138997  1  0  0.460972  0  0.826895  0  0  0.429483  0  0.889812  0  0  0.441115  0  0.872695  0  0  0.307677  0.420754  0  0.902521  0
H  H14  1  0.76035079  0.32966350  0.92371636  1  0  0.10044  0  0.997979  0  0  0.108081  0  1.065015  0  0  0.111782  0  1.061939  0  0  0.109185  0.105568  0  1.066641  0
H  H15  1  0.23964510  0.67033079  0.07628237  1  0  0.100424  0  0.997972  0  0  0.108049  0  1.065031  0  0  0.111753  0  1.061948  0  0  0.109145  0.105535  0  1.066659  0
H  H16  1  0.77953407  0.12150108  0.80101683  1  0  0.104656  0  0.945603  0  0  0.113292  0  1.005394  0  0  0.117037  0  1.003216  0  0  0.106031  0.110351  0  1.007612  0
H  H17  1  0.22046177  0.87848651  0.19898640  1  0  0.104647  0  0.945709  0  0  0.113281  0  1.0055  0  0  0.117022  0  1.003323  0  0  0.106028  0.110338  0  1.007723  0
H  H18  1  0.75903914  0.82266136  0.91847930  1  0  0.09396  0  0.991355  0  0  0.102209  0  1.056705  0  0  0.105848  0  1.053884  0  0  0.104012  0.099634  0  1.058342  0
H  H19  1  0.24097605  0.17732327  0.08153100  1  0  0.093926  0  0.991371  0  0  0.102161  0  1.05674  0  0  0.105797  0  1.053924  0  0  0.103989  0.099584  0  1.058383  0
H  H20  1  0.72071563  0.73601734  0.15987679  1  0  0.104829  0  0.95557  0  0  0.111819  0  1.019421  0  0  0.115489  0  1.017406  0  0  0.104542  0.108875  0  1.02165  0
H  H21  1  0.27930249  0.26396992  0.84013374  1  0  0.104862  0  0.955422  0  0  0.111802  0  1.019318  0  0  0.115469  0  1.017309  0  0  0.104526  0.108861  0  1.021542  0
C  C22  1  0.67560790  0.92966926  0.32133977  1  0  0.729206  0  3.84968  0  0  0.680281  0  4.146719  0  0  0.716251  0  4.133108  0  0  0.237642  0.655571  0  4.14925  0
C  C23  1  0.32438751  0.07033712  0.67866157  1  0  0.729299  0  3.849411  0  0  0.680295  0  4.146563  0  0  0.716252  0  4.132961  0  0  0.237658  0.655575  0  4.1491  0
C  C24  1  0.71390954  0.98556877  0.17938717  1  0  -0.061824  0  3.725397  0  0  -0.047043  0  3.952998  0  0  -0.052022  0  3.97453  0  0  -0.00573  -0.044431  0  3.940194  0
C  C25  1  0.28609556  0.01442539  0.82061617  1  0  -0.061824  0  3.725462  0  0  -0.046985  0  3.952992  0  0  -0.051934  0  3.97449  0  0  -0.005736  -0.04436  0  3.940173  0
C  C26  1  0.72351540  0.15536003  0.11091087  1  0  -0.142463  0  3.695739  0  0  -0.124323  0  3.943756  0  0  -0.130575  0  3.965955  0  0  -0.012648  -0.120549  0  3.929873  0
C  C27  1  0.27648556  0.84463821  0.88908961  1  0  -0.142503  0  3.695894  0  0  -0.12439  0  3.943895  0  0  -0.130653  0  3.966088  0  0  -0.012641  -0.120621  0  3.930008  0
C  C28  1  0.74962901  0.20098871  0.97604567  1  0  -0.050667  0  3.740407  0  0  -0.079679  0  3.993639  0  0  -0.079299  0  4.013757  0  0  -0.081334  -0.079855  0  3.980353  0
C  C29  1  0.25036611  0.79900426  0.02395528  1  0  -0.050561  0  3.74035  0  0  -0.079542  0  3.993544  0  0  -0.079161  0  4.013662  0  0  -0.081276  -0.079721  0  3.98026  0
C  C30  1  0.76150773  0.08194096  0.90668374  1  0  -0.038976  0  3.70525  0  0  -0.052889  0  3.958902  0  0  -0.055238  0  3.978947  0  0  -0.076627  -0.051414  0  3.945578  0
C  C31  1  0.23849335  0.91804655  0.09332132  1  0  -0.03905  0  3.705379  0  0  -0.052971  0  3.959019  0  0  -0.055316  0  3.979057  0  0  -0.076637  -0.051494  0  3.945701  0
C  C32  1  0.75111660  0.91485620  0.97291076  1  0  -0.050756  0  3.737051  0  0  -0.068381  0  3.991523  0  0  -0.069308  0  4.011851  0  0  -0.083839  -0.067689  0  3.977911  0
C  C33  1  0.24889154  0.08512987  0.02709739  1  0  -0.050648  0  3.737017  0  0  -0.068263  0  3.991445  0  0  -0.069188  0  4.011771  0  0  -0.083795  -0.067573  0  3.977842  0
C  C34  1  0.72997226  0.86646661  0.10847594  1  0  -0.061953  0  3.702788  0  0  -0.083408  0  3.949265  0  0  -0.085211  0  3.970024  0  0  -0.078284  -0.082311  0  3.936204  0
C  C35  1  0.27003961  0.13352343  0.89153211  1  0  -0.06204  0  3.702684  0  0  -0.083444  0  3.949114  0  0  -0.085256  0  3.969866  0  0  -0.078278  -0.082351  0  3.936057  0
C  C36  1  0.58388335  0.41127595  0.53580271  1  0  0.567754  0  3.90771  0  0  0.520373  0  4.218799  0  0  0.551114  0  4.207537  0  0  0.222273  0.499773  0  4.218571  0
C  C37  1  0.41609540  0.58872527  0.46417755  1  0  0.567458  0  3.907832  0  0  0.520073  0  4.21897  0  0  0.550813  0  4.20771  0  0  0.222154  0.499468  0  4.218743  0
S  S38  1  0.71138369  0.31615912  0.19191042  1  0  1.352944  0  5.54244  0  0  1.247245  0  6.06835  0  0  1.295868  0  6.043195  0  0  0.541809  1.213223  0  6.082377  0
S  S39  1  0.28861287  0.68384053  0.80808978  1  0  1.353089  0  5.54231  0  0  1.247406  0  6.068211  0  0  1.296035  0  6.043053  0  0  0.541833  1.213384  0  6.082243  0
O  O40  1  0.55575054  0.04406763  0.36311858  1  0  -0.770749  0  2.15284  0  0  -0.734845  0  2.424028  0  0  -0.759217  0  2.410495  0  0  -0.407221  -0.702695  0  2.430944  0
O  O41  1  0.44425779  0.95593185  0.63688432  1  0  -0.770845  0  2.152549  0  0  -0.734897  0  2.423748  0  0  -0.759272  0  2.410219  0  0  -0.407287  -0.702761  0  2.430679  0
O  O42  1  0.75940409  0.76641097  0.39646668  1  0  -0.720914  0  2.055443  0  0  -0.671356  0  2.290345  0  0  -0.697403  0  2.27896  0  0  -0.358834  -0.644645  0  2.299639  0
O  O43  1  0.24059618  0.23358596  0.60353980  1  0  -0.7209  0  2.055477  0  0  -0.671344  0  2.290445  0  0  -0.697379  0  2.279049  0  0  -0.358812  -0.644626  0  2.299742  0
O  O44  1  0.51481579  0.40278680  0.21122857  1  0  -0.752511  0  2.048222  0  0  -0.709944  0  2.323739  0  0  -0.732769  0  2.310189  0  0  -0.385872  -0.684084  0  2.333422  0
O  O45  1  0.48518353  0.59721547  0.78876339  1  0  -0.752578  0  2.048078  0  0  -0.710009  0  2.3236  0  0  -0.732808  0  2.309993  0  0  -0.385895  -0.684164  0  2.333285  0
O  O46  1  0.83086119  0.21758569  0.32042240  1  0  -0.671359  0  2.031594  0  0  -0.60491  0  2.263814  0  0  -0.626879  0  2.249357  0  0  -0.314345  -0.589795  0  2.273475  0
O  O47  1  0.16913389  0.78241801  0.67957774  1  0  -0.671451  0  2.03156  0  0  -0.604997  0  2.263779  0  0  -0.626973  0  2.249323  0  0  -0.314355  -0.589869  0  2.273414  0
O  O48  1  0.78009551  0.44901649  0.10262317  1  0  -0.683328  0  1.993484  0  0  -0.61636  0  2.231426  0  0  -0.638514  0  2.21634  0  0  -0.32405  -0.601592  0  2.243084  0
O  O49  1  0.21990896  0.55097901  0.89737325  1  0  -0.683333  0  1.99352  0  0  -0.6164  0  2.231489  0  0  -0.638561  0  2.216406  0  0  -0.324058  -0.601637  0  2.243152  0
O  O50  1  0.57747798  0.27009506  0.51934273  1  0  -0.664828  0  2.15217  0  0  -0.61692  0  2.391056  0  0  -0.641899  0  2.382669  0  0  -0.346625  -0.591624  0  2.398691  0
O  O51  1  0.42250719  0.72993158  0.48064520  1  0  -0.664892  0  2.151236  0  0  -0.617057  0  2.390188  0  0  -0.642047  0  2.381806  0  0  -0.346727  -0.591763  0  2.397823  0
O  O52  1  0.71200785  0.42135000  0.60281637  1  0  -0.640606  0  2.001071  0  0  -0.602438  0  2.239414  0  0  -0.624688  0  2.229  0  0  -0.36592  -0.577788  0  2.249026  0
O  O53  1  0.28798650  0.57867651  0.39717428  1  0  -0.640284  0  2.001952  0  0  -0.602094  0  2.240275  0  0  -0.62433  0  2.229858  0  0  -0.365736  -0.577438  0  2.24988  0
O  O54  1  0.99186417  0.45290063  0.36931886  1  0  -0.918373  0  1.876244  0  0  -0.878007  0  2.075976  0  0  -0.89621  0  2.043798  0  0  -0.645064  -0.85556  0  2.103713  0
O  O55  1  0.00813274  0.54710170  0.63068348  1  0  -0.918356  0  1.876249  0  0  -0.877961  0  2.075912  0  0  -0.896164  0  2.043737  0  0  -0.645051  -0.855539  0  2.103649  0
O  O56  1  0.16469079  0.41336506  0.15332385  1  0  -0.919337  0  1.896274  0  0  -0.878553  0  2.090779  0  0  -0.896174  0  2.058133  0  0  -0.64467  -0.855392  0  2.118171  0
O  O57  1  0.83530723  0.58663054  0.84667546  1  0  -0.919346  0  1.896176  0  0  -0.878563  0  2.090726  0  0  -0.896193  0  2.058061  0  0  -0.644671  -0.855404  0  2.118109  0
O  O58  1  0.19365294  0.07914788  0.37881697  1  0  -0.941708  0  1.845048  0  0  -0.900726  0  2.040418  0  0  -0.919683  0  2.007242  0  0  -0.664875  -0.877094  0  2.069787  0
O  O59  1  0.80634614  0.92086247  0.62118051  1  0  -0.941685  0  1.845052  0  0  -0.900696  0  2.040444  0  0  -0.919652  0  2.007271  0  0  -0.664858  -0.877075  0  2.069806  0
