# generated using pymatgen
data_CdH6C5N8
_symmetry_space_group_name_H-M   'P 1'
_cell_length_a   8.20183961
_cell_length_b   8.92716063
_cell_length_c   12.75709834
_cell_angle_alpha   109.03526925
_cell_angle_beta   90.00003536
_cell_angle_gamma   90.00001873
_symmetry_Int_Tables_number   1
_chemical_formula_structural   CdH6C5N8
_chemical_formula_sum   'Cd4 H24 C20 N32'
_cell_volume   882.98727968
_cell_formula_units_Z   4
loop_
 _symmetry_equiv_pos_site_id
 _symmetry_equiv_pos_as_xyz
  1  'x, y, z'
loop_
 _atom_site_type_symbol
 _atom_site_label
 _atom_site_symmetry_multiplicity
 _atom_site_fract_x
 _atom_site_fract_y
 _atom_site_fract_z
 _atom_site_occupancy
 _atom_site_hle17_bader_spin_density
 _atom_site_hle17_ddec_charge
 _atom_site_hle17_ddec_spin_density
 _atom_site_hle17_ddec_sum_bond_order
 _atom_site_hle17_magmom
 _atom_site_hse06_10hf_bader_spin_density
 _atom_site_hse06_10hf_ddec_charge
 _atom_site_hse06_10hf_ddec_spin_density
 _atom_site_hse06_10hf_ddec_sum_bond_order
 _atom_site_hse06_10hf_magmom
 _atom_site_hse06_bader_spin_density
 _atom_site_hse06_ddec_charge
 _atom_site_hse06_ddec_spin_density
 _atom_site_hse06_ddec_sum_bond_order
 _atom_site_hse06_magmom
 _atom_site_pbe_bader_spin_density
 _atom_site_pbe_cm5_charge
 _atom_site_pbe_ddec_charge
 _atom_site_pbe_ddec_spin_density
 _atom_site_pbe_ddec_sum_bond_order
 _atom_site_pbe_magmom
Cd  Cd0  1  0.80984943  0.96035772  0.93006631  1  0  1.021766  0  1.88776  0  0  0.840712  0  2.350954  0  0  0.886222  0  2.313811  0  0  0.805346  0.808888  0  2.376014  0
Cd  Cd1  1  0.30984916  0.53964166  0.56993276  1  0  1.021764  0  1.887764  0  0  0.840697  0  2.350974  0  0  0.886206  0  2.31383  0  0  0.805346  0.808876  0  2.376035  0
Cd  Cd2  1  0.19015128  0.03964114  0.06993296  1  0  1.021745  0  1.887751  0  0  0.840688  0  2.350954  0  0  0.886199  0  2.313811  0  0  0.805349  0.80887  0  2.376012  0
Cd  Cd3  1  0.69015156  0.46035958  0.43006783  1  0  1.021775  0  1.887731  0  0  0.840709  0  2.350942  0  0  0.886221  0  2.313797  0  0  0.805351  0.808888  0  2.376004  0
H  H4  1  0.03850649  0.71007822  0.75854536  1  0  0.063492  0  0.93873  0  0  0.069372  0  1.00831  0  0  0.070402  0  1.006544  0  0  0.130495  0.068528  0  1.009632  0
H  H5  1  0.53850652  0.78992101  0.74145435  1  0  0.063497  0  0.938719  0  0  0.069372  0  1.008306  0  0  0.070402  0  1.00654  0  0  0.130488  0.068527  0  1.009628  0
H  H6  1  0.96149422  0.28992064  0.24145468  1  0  0.063495  0  0.938732  0  0  0.069375  0  1.008311  0  0  0.070405  0  1.006545  0  0  0.130495  0.068531  0  1.009633  0
H  H7  1  0.46149297  0.21008141  0.25854729  1  0  0.063508  0  0.938708  0  0  0.069383  0  1.008283  0  0  0.070413  0  1.006518  0  0  0.130492  0.068539  0  1.009607  0
H  H8  1  0.26873403  0.86809357  0.52430802  1  0  0.085203  0  0.944079  0  0  0.090213  0  1.014492  0  0  0.092391  0  1.011906  0  0  0.121881  0.088568  0  1.016369  0
H  H9  1  0.76873423  0.63190460  0.97569075  1  0  0.085188  0  0.944026  0  0  0.0902  0  1.014445  0  0  0.092377  0  1.01186  0  0  0.121867  0.088558  0  1.016313  0
H  H10  1  0.73126547  0.13190648  0.47569151  1  0  0.085203  0  0.944049  0  0  0.090212  0  1.01447  0  0  0.092391  0  1.011883  0  0  0.121876  0.088571  0  1.016336  0
H  H11  1  0.23126527  0.36809308  0.02430824  1  0  0.085206  0  0.944041  0  0  0.090218  0  1.014453  0  0  0.092397  0  1.011864  0  0  0.12187  0.08857  0  1.016336  0
H  H12  1  0.10558394  0.12027986  0.58896560  1  0  0.126688  0  0.973118  0  0  0.13063  0  1.039618  0  0  0.133812  0  1.04034  0  0  0.110233  0.128356  0  1.039369  0
H  H13  1  0.60558173  0.37971872  0.91103503  1  0  0.126673  0  0.973111  0  0  0.130613  0  1.039614  0  0  0.133794  0  1.040336  0  0  0.110225  0.128339  0  1.039364  0
H  H14  1  0.89441799  0.87971900  0.41103523  1  0  0.12669  0  0.973112  0  0  0.130634  0  1.039617  0  0  0.133815  0  1.040339  0  0  0.110233  0.128358  0  1.039367  0
H  H15  1  0.39441777  0.62028015  0.08896424  1  0  0.126669  0  0.973105  0  0  0.13063  0  1.039599  0  0  0.13381  0  1.040323  0  0  0.110237  0.12836  0  1.039345  0
H  H16  1  0.85213116  0.24630437  0.69462302  1  0  0.130806  0  0.958182  0  0  0.150818  0  1.01819  0  0  0.15188  0  1.019071  0  0  0.097858  0.15004  0  1.017608  0
H  H17  1  0.35212876  0.25369552  0.80537723  1  0  0.130794  0  0.95819  0  0  0.150802  0  1.018204  0  0  0.151862  0  1.019086  0  0  0.097849  0.150024  0  1.017619  0
H  H18  1  0.14786833  0.75369804  0.30537549  1  0  0.130813  0  0.958116  0  0  0.150824  0  1.018125  0  0  0.151884  0  1.019008  0  0  0.097865  0.150047  0  1.017544  0
H  H19  1  0.64787074  0.74630216  0.19462412  1  0  0.130844  0  0.958056  0  0  0.150848  0  1.01808  0  0  0.151908  0  1.018961  0  0  0.097854  0.150069  0  1.017498  0
H  H20  1  0.96017163  0.28748042  0.82105377  1  0  0.141568  0  0.929094  0  0  0.161088  0  0.991945  0  0  0.162108  0  0.992251  0  0  0.102874  0.160408  0  0.991671  0
H  H21  1  0.46016908  0.21251716  0.67894599  1  0  0.141594  0  0.929069  0  0  0.161109  0  0.991923  0  0  0.162129  0  0.992228  0  0  0.102889  0.160421  0  0.991659  0
H  H22  1  0.03982787  0.71251845  0.17894549  1  0  0.14158  0  0.92907  0  0  0.161096  0  0.991927  0  0  0.162117  0  0.992233  0  0  0.102885  0.160418  0  0.991652  0
H  H23  1  0.53983041  0.78748170  0.32105406  1  0  0.141592  0  0.929078  0  0  0.161113  0  0.991927  0  0  0.162133  0  0.992232  0  0  0.102893  0.160429  0  0.99166  0
H  H24  1  0.77408652  0.17739779  0.80126787  1  0  0.125864  0  0.998687  0  0  0.142075  0  1.067753  0  0  0.144152  0  1.066791  0  0  0.093466  0.140608  0  1.068407  0
H  H25  1  0.27408403  0.32260206  0.69873312  1  0  0.125882  0  0.998712  0  0  0.142093  0  1.067778  0  0  0.144165  0  1.066821  0  0  0.093478  0.140623  0  1.068438  0
H  H26  1  0.22591542  0.82260344  0.19873350  1  0  0.125888  0  0.998744  0  0  0.142107  0  1.067795  0  0  0.14418  0  1.066837  0  0  0.093505  0.140639  0  1.068455  0
H  H27  1  0.72591790  0.67739681  0.30126693  1  0  0.125876  0  0.998743  0  0  0.142092  0  1.067808  0  0  0.144166  0  1.066849  0  0  0.093494  0.140622  0  1.068466  0
C  C28  1  0.05372991  0.80281411  0.72111694  1  0  0.327584  0  3.706103  0  0  0.268695  0  3.985291  0  0  0.28594  0  3.997673  0  0  0.184443  0.257377  0  3.976693  0
C  C29  1  0.55372872  0.69718276  0.77888146  1  0  0.327541  0  3.706152  0  0  0.268673  0  3.985336  0  0  0.28592  0  3.997721  0  0  0.184459  0.257355  0  3.976739  0
C  C30  1  0.94627081  0.19718357  0.27888205  1  0  0.327567  0  3.706138  0  0  0.268679  0  3.985332  0  0  0.285925  0  3.997714  0  0  0.184459  0.257361  0  3.976737  0
C  C31  1  0.44626956  0.30281728  0.22111808  1  0  0.327543  0  3.706174  0  0  0.268688  0  3.985339  0  0  0.285933  0  3.997721  0  0  0.18447  0.25737  0  3.976746  0
C  C32  1  0.18076355  0.89034467  0.59185601  1  0  0.194342  0  3.66721  0  0  0.154315  0  3.923839  0  0  0.165963  0  3.940407  0  0  0.065917  0.146878  0  3.912482  0
C  C33  1  0.68076124  0.60965346  0.90814272  1  0  0.194293  0  3.667366  0  0  0.154259  0  3.92402  0  0  0.165904  0  3.940593  0  0  0.065888  0.146824  0  3.912662  0
C  C34  1  0.81923838  0.10965420  0.40814403  1  0  0.194279  0  3.667301  0  0  0.154245  0  3.923948  0  0  0.165892  0  3.940518  0  0  0.065878  0.14681  0  3.912593  0
C  C35  1  0.31923703  0.39034659  0.09185682  1  0  0.194297  0  3.6673  0  0  0.154276  0  3.923931  0  0  0.165923  0  3.9405  0  0  0.065909  0.14684  0  3.91257  0
C  C36  1  0.09077751  0.02851491  0.62732470  1  0  -0.208891  0  3.636488  0  0  -0.217147  0  3.875294  0  0  -0.231153  0  3.897516  0  0  -0.073541  -0.208328  0  3.860673  0
C  C37  1  0.59077895  0.47148603  0.87267725  1  0  -0.208871  0  3.636447  0  0  -0.217118  0  3.875235  0  0  -0.231124  0  3.897459  0  0  -0.073536  -0.208301  0  3.860613  0
C  C38  1  0.90922199  0.97148632  0.37267589  1  0  -0.208918  0  3.636529  0  0  -0.217172  0  3.875329  0  0  -0.231179  0  3.897553  0  0  -0.073544  -0.208353  0  3.860709  0
C  C39  1  0.40922298  0.52851520  0.12732412  1  0  -0.208879  0  3.636528  0  0  -0.217185  0  3.875344  0  0  -0.231192  0  3.897568  0  0  -0.073547  -0.208368  0  3.860719  0
C  C40  1  0.98036457  0.04925069  0.71486875  1  0  0.397699  0  3.655217  0  0  0.396925  0  3.898174  0  0  0.41155  0  3.91348  0  0  0.157107  0.387307  0  3.88759  0
C  C41  1  0.48036221  0.45074690  0.78513102  1  0  0.397644  0  3.655224  0  0  0.396891  0  3.898153  0  0  0.411517  0  3.913463  0  0  0.157089  0.387274  0  3.887566  0
C  C42  1  0.01963615  0.95074817  0.28513130  1  0  0.397762  0  3.655181  0  0  0.396993  0  3.898116  0  0  0.41162  0  3.913422  0  0  0.15714  0.387375  0  3.887535  0
C  C43  1  0.51963607  0.54925196  0.21486902  1  0  0.397677  0  3.655308  0  0  0.39696  0  3.898185  0  0  0.411585  0  3.913491  0  0  0.157114  0.387342  0  3.887602  0
C  C44  1  0.88502137  0.19783075  0.76032221  1  0  -0.399775  0  3.682687  0  0  -0.481773  0  3.913384  0  0  -0.486067  0  3.920514  0  0  -0.245362  -0.47856  0  3.908227  0
C  C45  1  0.38501892  0.30216916  0.73967805  1  0  -0.399791  0  3.682777  0  0  -0.481778  0  3.913438  0  0  -0.486067  0  3.920573  0  0  -0.245359  -0.478558  0  3.908285  0
C  C46  1  0.11498056  0.80217167  0.23967708  1  0  -0.39985  0  3.682784  0  0  -0.481837  0  3.913442  0  0  -0.486127  0  3.920578  0  0  -0.245434  -0.478628  0  3.908285  0
C  C47  1  0.61498180  0.69782852  0.26032329  1  0  -0.399843  0  3.682764  0  0  -0.481851  0  3.913424  0  0  -0.48614  0  3.920556  0  0  -0.245418  -0.478633  0  3.908269  0
N  N48  1  0.96838523  0.17758540  0.01774372  1  0  -0.621104  0  2.766941  0  0  -0.570565  0  3.074107  0  0  -0.598083  0  3.081711  0  0  -0.335355  -0.551542  0  3.068502  0
N  N49  1  0.46838546  0.32241428  0.48225615  1  0  -0.621197  0  2.766925  0  0  -0.570607  0  3.074131  0  0  -0.598126  0  3.081737  0  0  -0.335364  -0.551584  0  3.068528  0
N  N50  1  0.03161549  0.82241583  0.98225608  1  0  -0.621178  0  2.766915  0  0  -0.570651  0  3.074123  0  0  -0.598172  0  3.081727  0  0  -0.335377  -0.551628  0  3.068518  0
N  N51  1  0.53161404  0.67758458  0.51774390  1  0  -0.621222  0  2.766894  0  0  -0.570628  0  3.074099  0  0  -0.598148  0  3.081705  0  0  -0.335372  -0.551605  0  3.068495  0
N  N52  1  0.91346588  0.31024765  0.05171892  1  0  0.401809  0  4.231916  0  0  0.433024  0  4.518262  0  0  0.449446  0  4.546763  0  0  0.081975  0.421987  0  4.498832  0
N  N53  1  0.41346603  0.18975201  0.44828092  1  0  0.401879  0  4.231896  0  0  0.433098  0  4.518229  0  0  0.44952  0  4.546729  0  0  0.082001  0.422061  0  4.498803  0
N  N54  1  0.08653483  0.68975122  0.94828034  1  0  0.401881  0  4.231889  0  0  0.433107  0  4.518212  0  0  0.449527  0  4.546711  0  0  0.082002  0.422071  0  4.498781  0
N  N55  1  0.58653468  0.81024804  0.55171940  1  0  0.401877  0  4.231831  0  0  0.433099  0  4.518166  0  0  0.449522  0  4.546667  0  0  0.082008  0.422062  0  4.498737  0
N  N56  1  0.86233349  0.43915317  0.08404250  1  0  -0.375364  0  2.375354  0  0  -0.374626  0  2.601373  0  0  -0.380723  0  2.611656  0  0  -0.187111  -0.370338  0  2.594598  0
N  N57  1  0.36233356  0.06084764  0.41595838  1  0  -0.375342  0  2.375353  0  0  -0.374675  0  2.601363  0  0  -0.380772  0  2.611643  0  0  -0.187124  -0.370382  0  2.594583  0
N  N58  1  0.13766722  0.56084924  0.91595836  1  0  -0.37535  0  2.375361  0  0  -0.374632  0  2.601379  0  0  -0.380726  0  2.611656  0  0  -0.187103  -0.370346  0  2.594604  0
N  N59  1  0.63766715  0.93915241  0.58404194  1  0  -0.37531  0  2.375341  0  0  -0.374647  0  2.601355  0  0  -0.380743  0  2.611636  0  0  -0.187119  -0.370358  0  2.594575  0
N  N60  1  0.58734796  0.10780271  0.90549376  1  0  -0.524046  0  2.633382  0  0  -0.49705  0  2.911826  0  0  -0.515506  0  2.920378  0  0  -0.277756  -0.484329  0  2.905985  0
N  N61  1  0.08734662  0.39219704  0.59450557  1  0  -0.524016  0  2.633446  0  0  -0.497044  0  2.911894  0  0  -0.5155  0  2.920446  0  0  -0.277753  -0.484325  0  2.906057  0
N  N62  1  0.41265519  0.89219733  0.09450656  1  0  -0.523975  0  2.633328  0  0  -0.497014  0  2.911823  0  0  -0.515466  0  2.920374  0  0  -0.277733  -0.484297  0  2.905984  0
N  N63  1  0.91265288  0.60780420  0.40549424  1  0  -0.524085  0  2.633369  0  0  -0.497077  0  2.911828  0  0  -0.515532  0  2.920377  0  0  -0.277778  -0.484358  0  2.905991  0
N  N64  1  0.44984343  0.06349044  0.89776872  1  0  0.387921  0  4.276108  0  0  0.419846  0  4.560594  0  0  0.435742  0  4.591074  0  0  0.069158  0.409213  0  4.539923  0
N  N65  1  0.94984338  0.43650951  0.60223079  1  0  0.387913  0  4.276188  0  0  0.419837  0  4.56067  0  0  0.435734  0  4.591152  0  0  0.069154  0.409205  0  4.54  0
N  N66  1  0.55015362  0.93650842  0.10223133  1  0  0.387996  0  4.275976  0  0  0.419922  0  4.560468  0  0  0.435819  0  4.590947  0  0  0.06917  0.40929  0  4.539797  0
N  N67  1  0.05015612  0.56349054  0.39776874  1  0  0.387936  0  4.276076  0  0  0.419855  0  4.560572  0  0  0.435753  0  4.59105  0  0  0.069148  0.409223  0  4.539902  0
N  N68  1  0.31129158  0.02461704  0.88916634  1  0  -0.47964  0  2.530453  0  0  -0.467551  0  2.801049  0  0  -0.481784  0  2.811529  0  0  -0.256013  -0.457706  0  2.793944  0
N  N69  1  0.81129155  0.47538282  0.61083389  1  0  -0.479656  0  2.530452  0  0  -0.467546  0  2.80105  0  0  -0.481781  0  2.811531  0  0  -0.256015  -0.457701  0  2.793945  0
N  N70  1  0.68871036  0.97538419  0.11083425  1  0  -0.479771  0  2.530352  0  0  -0.467684  0  2.800961  0  0  -0.481921  0  2.81144  0  0  -0.256056  -0.457837  0  2.793857  0
N  N71  1  0.18870795  0.52461604  0.38916538  1  0  -0.479608  0  2.53042  0  0  -0.467537  0  2.801026  0  0  -0.481772  0  2.811505  0  0  -0.255986  -0.457693  0  2.793922  0
N  N72  1  0.96209811  0.93291203  0.76043671  1  0  -0.41208  0  3.128775  0  0  -0.340562  0  3.392237  0  0  -0.363887  0  3.406659  0  0  -0.312368  -0.324919  0  3.382127  0
N  N73  1  0.46209801  0.56708742  0.73956401  1  0  -0.412065  0  3.128867  0  0  -0.34056  0  3.392327  0  0  -0.363876  0  3.406729  0  0  -0.312377  -0.324917  0  3.382218  0
N  N74  1  0.03790260  0.06708920  0.23956388  1  0  -0.412068  0  3.128768  0  0  -0.340547  0  3.392222  0  0  -0.363871  0  3.406643  0  0  -0.312369  -0.324904  0  3.382115  0
N  N75  1  0.53790148  0.43291144  0.26043604  1  0  -0.412037  0  3.128804  0  0  -0.34054  0  3.392236  0  0  -0.363865  0  3.40666  0  0  -0.312365  -0.324898  0  3.382131  0
N  N76  1  0.16278466  0.77665709  0.63935605  1  0  -0.383849  0  3.239309  0  0  -0.308413  0  3.516319  0  0  -0.332381  0  3.533955  0  0  -0.33325  -0.292413  0  3.504036  0
N  N77  1  0.66278600  0.72334103  0.86064267  1  0  -0.383729  0  3.239317  0  0  -0.308328  0  3.516357  0  0  -0.332294  0  3.533995  0  0  -0.333213  -0.292328  0  3.504073  0
N  N78  1  0.83721361  0.22334178  0.36064321  1  0  -0.383794  0  3.239311  0  0  -0.308367  0  3.516343  0  0  -0.332334  0  3.53398  0  0  -0.333231  -0.292367  0  3.504062  0
N  N79  1  0.33721227  0.27665902  0.13935765  1  0  -0.383795  0  3.239364  0  0  -0.308397  0  3.516395  0  0  -0.332364  0  3.534032  0  0  -0.333254  -0.292396  0  3.504113  0
