# generated using pymatgen
data_ZnH10C6S2(NO)4
_symmetry_space_group_name_H-M   'P 1'
_cell_length_a   6.74620448
_cell_length_b   11.49764640
_cell_length_c   14.67253876
_cell_angle_alpha   90.00001380
_cell_angle_beta   89.99998394
_cell_angle_gamma   89.99984946
_symmetry_Int_Tables_number   1
_chemical_formula_structural   ZnH10C6S2(NO)4
_chemical_formula_sum   'Zn4 H40 C24 S8 N16 O16'
_cell_volume   1138.08241921
_cell_formula_units_Z   4
loop_
 _symmetry_equiv_pos_site_id
 _symmetry_equiv_pos_as_xyz
  1  'x, y, z'
loop_
 _atom_site_type_symbol
 _atom_site_label
 _atom_site_symmetry_multiplicity
 _atom_site_fract_x
 _atom_site_fract_y
 _atom_site_fract_z
 _atom_site_occupancy
 _atom_site_hle17_bader_spin_density
 _atom_site_hle17_ddec_charge
 _atom_site_hle17_ddec_spin_density
 _atom_site_hle17_ddec_sum_bond_order
 _atom_site_hle17_magmom
 _atom_site_hse06_10hf_bader_spin_density
 _atom_site_hse06_10hf_ddec_charge
 _atom_site_hse06_10hf_ddec_spin_density
 _atom_site_hse06_10hf_ddec_sum_bond_order
 _atom_site_hse06_10hf_magmom
 _atom_site_hse06_bader_spin_density
 _atom_site_hse06_ddec_charge
 _atom_site_hse06_ddec_spin_density
 _atom_site_hse06_ddec_sum_bond_order
 _atom_site_hse06_magmom
 _atom_site_pbe_bader_spin_density
 _atom_site_pbe_cm5_charge
 _atom_site_pbe_ddec_charge
 _atom_site_pbe_ddec_spin_density
 _atom_site_pbe_ddec_sum_bond_order
 _atom_site_pbe_magmom
Zn  Zn0  1  0.20025871  0.24999971  0.00000001  1  0  0.846929  0  2.132445  0  0  0.69456  0  2.606192  0  0  0.733321  0  2.560633  0  0  0.548703  0.667643  0  2.637223  0
Zn  Zn1  1  0.29974153  0.74999943  0.50000009  1  0  0.846972  0  2.13241  0  0  0.694595  0  2.606151  0  0  0.733362  0  2.560595  0  0  0.548735  0.667683  0  2.637184  0
Zn  Zn2  1  0.79974283  0.74999984  0.00000070  1  0  0.846996  0  2.132428  0  0  0.694627  0  2.606177  0  0  0.733389  0  2.56062  0  0  0.548743  0.667715  0  2.637209  0
Zn  Zn3  1  0.70025675  0.25000027  0.50000002  1  0  0.846973  0  2.132413  0  0  0.6946  0  2.606154  0  0  0.733364  0  2.560597  0  0  0.548731  0.667689  0  2.637184  0
H  H4  1  0.89820815  0.23389679  0.30307976  1  0  0.335371  0  0.917701  0  0  0.315124  0  0.982067  0  0  0.323694  0  0.975184  0  0  0.298001  0.309065  0  0.986971  0
H  H5  1  0.89820796  0.26610344  0.69691958  1  0  0.335379  0  0.917684  0  0  0.31513  0  0.982052  0  0  0.3237  0  0.975168  0  0  0.298006  0.309071  0  0.986957  0
H  H6  1  0.60179298  0.73389672  0.19691960  1  0  0.335367  0  0.917692  0  0  0.315125  0  0.982056  0  0  0.323695  0  0.975172  0  0  0.298002  0.309066  0  0.98696  0
H  H7  1  0.60179272  0.76610341  0.80307987  1  0  0.33538  0  0.917681  0  0  0.315133  0  0.982044  0  0  0.323702  0  0.975162  0  0  0.298005  0.309074  0  0.986951  0
H  H8  1  0.10179161  0.76610378  0.69691968  1  0  0.335382  0  0.917682  0  0  0.315136  0  0.982048  0  0  0.323706  0  0.975164  0  0  0.298012  0.309078  0  0.986951  0
H  H9  1  0.10179328  0.73389625  0.30308122  1  0  0.335376  0  0.917671  0  0  0.315119  0  0.98207  0  0  0.323689  0  0.975186  0  0  0.297979  0.309055  0  0.986976  0
H  H10  1  0.39820826  0.26610297  0.80308052  1  0  0.335415  0  0.917627  0  0  0.315158  0  0.982017  0  0  0.323729  0  0.975132  0  0  0.297997  0.309094  0  0.986923  0
H  H11  1  0.39820851  0.23389716  0.19691956  1  0  0.335376  0  0.917693  0  0  0.315129  0  0.982062  0  0  0.323699  0  0.975178  0  0  0.298001  0.309069  0  0.986967  0
H  H12  1  0.99818913  0.09815762  0.26813623  1  0  0.345488  0  0.931169  0  0  0.320061  0  1.0029  0  0  0.329347  0  0.994991  0  0  0.293381  0.313552  0  1.008406  0
H  H13  1  0.99818979  0.40184245  0.73186378  1  0  0.345477  0  0.931178  0  0  0.320053  0  1.002905  0  0  0.329339  0  0.994996  0  0  0.293372  0.313543  0  1.008414  0
H  H14  1  0.50181113  0.59815685  0.23186310  1  0  0.345484  0  0.931176  0  0  0.320066  0  1.002899  0  0  0.329352  0  0.994989  0  0  0.293374  0.313555  0  1.00841  0
H  H15  1  0.50181029  0.90184256  0.76813638  1  0  0.345473  0  0.931186  0  0  0.32005  0  1.002912  0  0  0.329336  0  0.995003  0  0  0.293363  0.313541  0  1.00842  0
H  H16  1  0.00181063  0.90184294  0.73186321  1  0  0.345468  0  0.931196  0  0  0.320046  0  1.00292  0  0  0.329331  0  0.995012  0  0  0.293365  0.313535  0  1.00843  0
H  H17  1  0.00181293  0.59815637  0.26813770  1  0  0.345427  0  0.931275  0  0  0.320048  0  1.002933  0  0  0.329334  0  0.995024  0  0  0.293365  0.313537  0  1.008446  0
H  H18  1  0.49818714  0.40184284  0.76813633  1  0  0.345446  0  0.931255  0  0  0.32006  0  1.002918  0  0  0.329346  0  0.995008  0  0  0.29338  0.31355  0  1.008428  0
H  H19  1  0.49818799  0.09815713  0.23186374  1  0  0.345442  0  0.931259  0  0  0.320056  0  1.002923  0  0  0.329342  0  0.995014  0  0  0.293374  0.313546  0  1.008433  0
H  H20  1  0.85910438  0.38052072  0.19683572  1  0  0.353695  0  0.892918  0  0  0.331563  0  0.959061  0  0  0.340908  0  0.950756  0  0  0.301086  0.324978  0  0.964938  0
H  H21  1  0.85910330  0.11947870  0.80316430  1  0  0.353681  0  0.892937  0  0  0.331547  0  0.959083  0  0  0.340892  0  0.950779  0  0  0.301076  0.324962  0  0.964962  0
H  H22  1  0.64089757  0.88052063  0.30316435  1  0  0.353638  0  0.892996  0  0  0.331546  0  0.959084  0  0  0.340892  0  0.95078  0  0  0.301085  0.324962  0  0.964961  0
H  H23  1  0.64089655  0.61947944  0.69683580  1  0  0.353637  0  0.892984  0  0  0.331546  0  0.959075  0  0  0.340892  0  0.95077  0  0  0.301084  0.324961  0  0.964953  0
H  H24  1  0.14089685  0.61947897  0.80316371  1  0  0.353622  0  0.893009  0  0  0.331528  0  0.959104  0  0  0.340874  0  0.950799  0  0  0.301078  0.324943  0  0.964982  0
H  H25  1  0.14089645  0.88052100  0.19683718  1  0  0.35367  0  0.892932  0  0  0.331529  0  0.959089  0  0  0.340875  0  0.950785  0  0  0.301074  0.324945  0  0.964964  0
H  H26  1  0.35910218  0.11947907  0.69683577  1  0  0.353637  0  0.892995  0  0  0.331544  0  0.959086  0  0  0.34089  0  0.950781  0  0  0.301079  0.32496  0  0.964963  0
H  H27  1  0.35910468  0.38052113  0.30316432  1  0  0.353684  0  0.892933  0  0  0.331551  0  0.95908  0  0  0.340896  0  0.950776  0  0  0.30108  0.324966  0  0.964956  0
H  H28  1  0.87115572  0.34721301  0.07911308  1  0  0.306746  0  0.943035  0  0  0.286221  0  1.017741  0  0  0.292672  0  1.013648  0  0  0.283475  0.28159  0  1.020801  0
H  H29  1  0.87115589  0.15278639  0.92088626  1  0  0.306729  0  0.943074  0  0  0.286202  0  1.017783  0  0  0.292654  0  1.013687  0  0  0.283463  0.281571  0  1.020844  0
H  H30  1  0.62884639  0.84721297  0.42088630  1  0  0.306721  0  0.943092  0  0  0.286192  0  1.017804  0  0  0.292644  0  1.013708  0  0  0.283461  0.281561  0  1.020865  0
H  H31  1  0.62884381  0.65278712  0.57911384  1  0  0.306736  0  0.94307  0  0  0.286211  0  1.017777  0  0  0.292663  0  1.013681  0  0  0.283471  0.28158  0  1.020838  0
H  H32  1  0.12884552  0.65278582  0.92088636  1  0  0.306728  0  0.943021  0  0  0.286199  0  1.01773  0  0  0.29265  0  1.013635  0  0  0.283454  0.281568  0  1.020792  0
H  H33  1  0.12884534  0.84721330  0.07911385  1  0  0.306738  0  0.943025  0  0  0.28621  0  1.017732  0  0  0.292662  0  1.013636  0  0  0.28346  0.281579  0  1.020793  0
H  H34  1  0.37115337  0.15278672  0.57911313  1  0  0.306735  0  0.94305  0  0  0.286207  0  1.017757  0  0  0.292658  0  1.013662  0  0  0.283462  0.281575  0  1.020817  0
H  H35  1  0.37115446  0.34721258  0.42088695  1  0  0.306725  0  0.94307  0  0  0.286198  0  1.01778  0  0  0.292649  0  1.013685  0  0  0.283461  0.281566  0  1.02084  0
H  H36  1  0.46123724  0.60723437  0.06054579  1  0  0.122744  0  0.949272  0  0  0.13112  0  1.010834  0  0  0.135263  0  1.00828  0  0  0.105412  0.128049  0  1.013013  0
H  H37  1  0.46123781  0.89276598  0.93945370  1  0  0.122764  0  0.949328  0  0  0.131143  0  1.010878  0  0  0.135286  0  1.008326  0  0  0.10544  0.128085  0  1.013044  0
H  H38  1  0.03876216  0.10723416  0.43945361  1  0  0.122767  0  0.949316  0  0  0.131151  0  1.010867  0  0  0.135294  0  1.008315  0  0  0.105442  0.128093  0  1.013034  0
H  H39  1  0.03876297  0.39276653  0.56054515  1  0  0.122734  0  0.949345  0  0  0.131081  0  1.010918  0  0  0.135223  0  1.008368  0  0  0.105394  0.128021  0  1.013089  0
H  H40  1  0.53876252  0.39276620  0.93945433  1  0  0.122784  0  0.949315  0  0  0.131159  0  1.010873  0  0  0.135301  0  1.008323  0  0  0.105446  0.128102  0  1.013034  0
H  H41  1  0.53876195  0.10723371  0.06054573  1  0  0.12278  0  0.949332  0  0  0.131161  0  1.010877  0  0  0.135305  0  1.008325  0  0  0.105448  0.128101  0  1.013048  0
H  H42  1  0.96123759  0.89276641  0.56054582  1  0  0.122791  0  0.949312  0  0  0.131176  0  1.010854  0  0  0.13532  0  1.008301  0  0  0.105454  0.128115  0  1.013028  0
H  H43  1  0.96123827  0.60723404  0.43945360  1  0  0.122776  0  0.949312  0  0  0.131155  0  1.010872  0  0  0.135297  0  1.008324  0  0  0.105445  0.128099  0  1.013032  0
C  C44  1  0.41107014  0.43109836  0.11399733  1  0  0.69879  0  3.8623  0  0  0.647178  0  4.159776  0  0  0.681495  0  4.150633  0  0  0.213769  0.623929  0  4.165369  0
C  C45  1  0.41106924  0.06890175  0.88600207  1  0  0.698729  0  3.862314  0  0  0.647113  0  4.159811  0  0  0.68143  0  4.150669  0  0  0.213703  0.623866  0  4.165409  0
C  C46  1  0.08892929  0.93109838  0.38600213  1  0  0.698806  0  3.862263  0  0  0.647183  0  4.159752  0  0  0.6815  0  4.15061  0  0  0.213773  0.623936  0  4.165349  0
C  C47  1  0.08893299  0.56890167  0.61399672  1  0  0.698807  0  3.862274  0  0  0.647184  0  4.159737  0  0  0.681501  0  4.150594  0  0  0.213777  0.623936  0  4.165331  0
C  C48  1  0.58893109  0.56890220  0.88600279  1  0  0.698746  0  3.86228  0  0  0.647103  0  4.159813  0  0  0.681419  0  4.150674  0  0  0.213712  0.623857  0  4.165407  0
C  C49  1  0.58893052  0.93109795  0.11399736  1  0  0.69875  0  3.862255  0  0  0.647127  0  4.159763  0  0  0.681442  0  4.150624  0  0  0.213731  0.62388  0  4.165354  0
C  C50  1  0.91106899  0.06890219  0.61399730  1  0  0.698767  0  3.862228  0  0  0.647135  0  4.159747  0  0  0.681452  0  4.150607  0  0  0.213737  0.623889  0  4.165339  0
C  C51  1  0.91106973  0.43109802  0.38600203  1  0  0.698806  0  3.862288  0  0  0.647187  0  4.159797  0  0  0.681507  0  4.150652  0  0  0.213723  0.62394  0  4.165391  0
C  C52  1  0.93560408  0.21338645  0.16535171  1  0  0.609725  0  3.804527  0  0  0.565161  0  4.097879  0  0  0.593342  0  4.101763  0  0  0.256472  0.546063  0  4.094623  0
C  C53  1  0.93560371  0.28661372  0.83464830  1  0  0.609658  0  3.804467  0  0  0.56507  0  4.097861  0  0  0.593251  0  4.101744  0  0  0.256419  0.54597  0  4.094609  0
C  C54  1  0.56439863  0.71338562  0.33464764  1  0  0.609616  0  3.804461  0  0  0.56504  0  4.097842  0  0  0.59322  0  4.101725  0  0  0.256405  0.54594  0  4.094589  0
C  C55  1  0.56439688  0.78661370  0.66535183  1  0  0.609634  0  3.804507  0  0  0.565034  0  4.097924  0  0  0.593215  0  4.101806  0  0  0.256396  0.545936  0  4.094667  0
C  C56  1  0.06439716  0.78661324  0.83464772  1  0  0.609641  0  3.804476  0  0  0.565056  0  4.097862  0  0  0.593237  0  4.101746  0  0  0.25642  0.545957  0  4.09461  0
C  C57  1  0.06439901  0.71338598  0.16535318  1  0  0.609675  0  3.804443  0  0  0.565089  0  4.097845  0  0  0.59327  0  4.101727  0  0  0.256417  0.545988  0  4.094593  0
C  C58  1  0.43560113  0.28661408  0.66535179  1  0  0.609757  0  3.804484  0  0  0.565175  0  4.097869  0  0  0.593357  0  4.10175  0  0  0.256467  0.546073  0  4.094622  0
C  C59  1  0.43560140  0.21338600  0.33464828  1  0  0.609675  0  3.804463  0  0  0.565082  0  4.097865  0  0  0.593264  0  4.101748  0  0  0.256426  0.545983  0  4.09461  0
C  C60  1  0.46759510  0.51563648  0.04149863  1  0  -0.184034  0  3.690219  0  0  -0.204429  0  3.950715  0  0  -0.209608  0  3.965146  0  0  -0.09291  -0.201285  0  3.941565  0
C  C61  1  0.46759377  0.98436299  0.95850154  1  0  -0.183961  0  3.690237  0  0  -0.204349  0  3.950731  0  0  -0.209529  0  3.965165  0  0  -0.092886  -0.201219  0  3.941574  0
C  C62  1  0.03240471  0.01563716  0.45850143  1  0  -0.183984  0  3.690165  0  0  -0.204386  0  3.950683  0  0  -0.209566  0  3.965114  0  0  -0.092908  -0.201256  0  3.941525  0
C  C63  1  0.03240512  0.48436354  0.54149802  1  0  -0.184087  0  3.690308  0  0  -0.204419  0  3.95079  0  0  -0.209597  0  3.965218  0  0  -0.09291  -0.201289  0  3.941629  0
C  C64  1  0.53240614  0.48436321  0.95850217  1  0  -0.183986  0  3.69021  0  0  -0.204366  0  3.95071  0  0  -0.209546  0  3.965141  0  0  -0.092894  -0.201235  0  3.941547  0
C  C65  1  0.53240303  0.01563671  0.04149790  1  0  -0.184024  0  3.690253  0  0  -0.204417  0  3.950756  0  0  -0.209597  0  3.96519  0  0  -0.092922  -0.201285  0  3.941595  0
C  C66  1  0.96759504  0.98436341  0.54149800  1  0  -0.184044  0  3.690164  0  0  -0.20444  0  3.950688  0  0  -0.20962  0  3.965118  0  0  -0.092932  -0.201309  0  3.941528  0
C  C67  1  0.96759612  0.51563703  0.45850142  1  0  -0.183948  0  3.690258  0  0  -0.204363  0  3.950753  0  0  -0.209543  0  3.965182  0  0  -0.092891  -0.201231  0  3.941595  0
S  S68  1  0.01328422  0.11614638  0.08094374  1  0  -0.467372  0  2.041499  0  0  -0.425859  0  2.400895  0  0  -0.444787  0  2.389084  0  0  -0.184505  -0.412297  0  2.408636  0
S  S69  1  0.01328485  0.38385347  0.91905639  1  0  -0.467374  0  2.041523  0  0  -0.425845  0  2.400915  0  0  -0.444776  0  2.389111  0  0  -0.184495  -0.412284  0  2.408657  0
S  S70  1  0.48671662  0.61614666  0.41905566  1  0  -0.467356  0  2.041508  0  0  -0.425835  0  2.400898  0  0  -0.444762  0  2.389087  0  0  -0.1845  -0.412274  0  2.408641  0
S  S71  1  0.48671449  0.88385365  0.58094451  1  0  -0.467366  0  2.041486  0  0  -0.425829  0  2.400874  0  0  -0.444765  0  2.389077  0  0  -0.18449  -0.412268  0  2.408616  0
S  S72  1  0.98671553  0.88385331  0.91905638  1  0  -0.46737  0  2.041501  0  0  -0.425848  0  2.400897  0  0  -0.444776  0  2.389084  0  0  -0.184501  -0.412286  0  2.40864  0
S  S73  1  0.98671639  0.61614709  0.08094509  1  0  -0.467384  0  2.041473  0  0  -0.425864  0  2.400879  0  0  -0.444796  0  2.389075  0  0  -0.184497  -0.412302  0  2.408621  0
S  S74  1  0.51328314  0.38385304  0.58094309  1  0  -0.467376  0  2.041475  0  0  -0.425858  0  2.400874  0  0  -0.444797  0  2.389083  0  0  -0.1845  -0.412294  0  2.408618  0
S  S75  1  0.51328230  0.11614692  0.41905629  1  0  -0.467383  0  2.041507  0  0  -0.425858  0  2.400911  0  0  -0.444782  0  2.389093  0  0  -0.184511  -0.412294  0  2.408653  0
N  N76  1  0.94049725  0.17874720  0.25112828  1  0  -0.639267  0  3.111478  0  0  -0.591817  0  3.346495  0  0  -0.614247  0  3.342789  0  0  -0.556782  -0.576568  0  3.348984  0
N  N77  1  0.94049826  0.32125296  0.74887105  1  0  -0.639187  0  3.111379  0  0  -0.591722  0  3.346395  0  0  -0.61415  0  3.342689  0  0  -0.55671  -0.576473  0  3.348886  0
N  N78  1  0.55950412  0.67874722  0.24887107  1  0  -0.63919  0  3.111377  0  0  -0.591753  0  3.346405  0  0  -0.614183  0  3.342699  0  0  -0.556725  -0.576504  0  3.348895  0
N  N79  1  0.55950217  0.82125298  0.75112909  1  0  -0.639197  0  3.111374  0  0  -0.591739  0  3.34641  0  0  -0.614169  0  3.342705  0  0  -0.556714  -0.576491  0  3.348901  0
N  N80  1  0.05950250  0.82125336  0.74887116  1  0  -0.639195  0  3.111367  0  0  -0.59174  0  3.346388  0  0  -0.61417  0  3.342682  0  0  -0.556724  -0.576492  0  3.348878  0
N  N81  1  0.05950446  0.67874673  0.25113042  1  0  -0.639181  0  3.111429  0  0  -0.591755  0  3.346416  0  0  -0.614185  0  3.342708  0  0  -0.556718  -0.5765  0  3.348908  0
N  N82  1  0.44049711  0.32125335  0.75112836  1  0  -0.639297  0  3.111475  0  0  -0.591867  0  3.346463  0  0  -0.614298  0  3.342755  0  0  -0.556782  -0.576611  0  3.348957  0
N  N83  1  0.44049759  0.17874672  0.24887103  1  0  -0.639185  0  3.111409  0  0  -0.591756  0  3.346418  0  0  -0.614187  0  3.342712  0  0  -0.556724  -0.576506  0  3.348907  0
N  N84  1  0.87075701  0.32009182  0.14514732  1  0  -0.66575  0  3.136393  0  0  -0.621516  0  3.371783  0  0  -0.643192  0  3.367592  0  0  -0.567622  -0.606661  0  3.374544  0
N  N85  1  0.87075563  0.17990758  0.85485270  1  0  -0.665724  0  3.136431  0  0  -0.621481  0  3.371831  0  0  -0.643158  0  3.367641  0  0  -0.567616  -0.606627  0  3.374596  0
N  N86  1  0.62924373  0.82009263  0.35485274  1  0  -0.665654  0  3.136485  0  0  -0.62144  0  3.371834  0  0  -0.643118  0  3.367644  0  0  -0.567601  -0.606588  0  3.374601  0
N  N87  1  0.62924396  0.67990833  0.64514741  1  0  -0.665667  0  3.136504  0  0  -0.621457  0  3.371866  0  0  -0.643133  0  3.367675  0  0  -0.567609  -0.606604  0  3.374632  0
N  N88  1  0.12924422  0.67990788  0.85485212  1  0  -0.66565  0  3.136474  0  0  -0.621434  0  3.371832  0  0  -0.643111  0  3.367642  0  0  -0.567591  -0.606581  0  3.374599  0
N  N89  1  0.12924561  0.82009211  0.14514809  1  0  -0.66571  0  3.136368  0  0  -0.621453  0  3.371758  0  0  -0.64313  0  3.367568  0  0  -0.567594  -0.6066  0  3.374527  0
N  N90  1  0.37075454  0.17990794  0.64514738  1  0  -0.665703  0  3.136452  0  0  -0.621485  0  3.371797  0  0  -0.643161  0  3.367606  0  0  -0.567604  -0.606631  0  3.374567  0
N  N91  1  0.37075580  0.32009224  0.35485271  1  0  -0.66572  0  3.136445  0  0  -0.621469  0  3.371834  0  0  -0.643146  0  3.367643  0  0  -0.567609  -0.606616  0  3.374599  0
O  O92  1  0.37327581  0.32393385  0.09267040  1  0  -0.654827  0  2.129729  0  0  -0.574416  0  2.399193  0  0  -0.602322  0  2.383442  0  0  -0.334294  -0.55486  0  2.409103  0
O  O93  1  0.37327441  0.17606632  0.90732968  1  0  -0.654866  0  2.129791  0  0  -0.574445  0  2.399253  0  0  -0.602352  0  2.383505  0  0  -0.334305  -0.554873  0  2.409131  0
O  O94  1  0.12672559  0.82393381  0.40732971  1  0  -0.654901  0  2.129798  0  0  -0.574474  0  2.399259  0  0  -0.602381  0  2.38351  0  0  -0.334303  -0.554903  0  2.409141  0
O  O95  1  0.12672290  0.67606705  0.59266981  1  0  -0.65488  0  2.129758  0  0  -0.574464  0  2.39922  0  0  -0.60237  0  2.383471  0  0  -0.334332  -0.554904  0  2.409118  0
O  O96  1  0.62672691  0.67606672  0.90733039  1  0  -0.654895  0  2.129788  0  0  -0.574469  0  2.399267  0  0  -0.602372  0  2.383514  0  0  -0.334324  -0.554904  0  2.409153  0
O  O97  1  0.62672535  0.82393338  0.09267044  1  0  -0.654867  0  2.129758  0  0  -0.574448  0  2.39923  0  0  -0.602353  0  2.383479  0  0  -0.334323  -0.55489  0  2.40913  0
O  O98  1  0.87327565  0.17606676  0.59266972  1  0  -0.654876  0  2.129747  0  0  -0.574452  0  2.399218  0  0  -0.602359  0  2.383469  0  0  -0.334333  -0.554893  0  2.40912  0
O  O99  1  0.87327538  0.32393351  0.40732962  1  0  -0.654889  0  2.129767  0  0  -0.574469  0  2.399231  0  0  -0.602376  0  2.383481  0  0  -0.334306  -0.55491  0  2.409134  0
O  O100  1  0.40991235  0.46548281  0.19538338  1  0  -0.584797  0  1.963034  0  0  -0.525702  0  2.176209  0  0  -0.549257  0  2.167816  0  0  -0.289853  -0.509411  0  2.181431  0
O  O101  1  0.40991610  0.03451818  0.80461601  1  0  -0.584756  0  1.963048  0  0  -0.525676  0  2.176244  0  0  -0.549228  0  2.167842  0  0  -0.289799  -0.50939  0  2.181468  0
O  O102  1  0.09008544  0.96548279  0.30461676  1  0  -0.5848  0  1.96304  0  0  -0.525683  0  2.176203  0  0  -0.549239  0  2.167812  0  0  -0.289851  -0.509396  0  2.181425  0
O  O103  1  0.09008777  0.53451726  0.69538345  1  0  -0.58476  0  1.962986  0  0  -0.525676  0  2.176166  0  0  -0.549229  0  2.16777  0  0  -0.289836  -0.509386  0  2.181389  0
O  O104  1  0.59008295  0.53451776  0.80461673  1  0  -0.584726  0  1.963001  0  0  -0.525648  0  2.176198  0  0  -0.549198  0  2.167796  0  0  -0.289799  -0.50936  0  2.181419  0
O  O105  1  0.59008366  0.96548239  0.19538342  1  0  -0.58475  0  1.963005  0  0  -0.525683  0  2.176198  0  0  -0.549235  0  2.167799  0  0  -0.289819  -0.509394  0  2.181419  0
O  O106  1  0.90991580  0.03451777  0.69538335  1  0  -0.584779  0  1.962998  0  0  -0.525684  0  2.176196  0  0  -0.549234  0  2.167794  0  0  -0.289816  -0.509394  0  2.181417  0
O  O107  1  0.90991792  0.46548244  0.30461598  1  0  -0.584772  0  1.963031  0  0  -0.525696  0  2.176223  0  0  -0.549246  0  2.167815  0  0  -0.289798  -0.509408  0  2.181446  0
