# generated using pymatgen
data_AgH8C6NO2
_symmetry_space_group_name_H-M   'P 1'
_cell_length_a   4.96400154
_cell_length_b   8.57287789
_cell_length_c   9.45743846
_cell_angle_alpha   82.75315923
_cell_angle_beta   77.67116286
_cell_angle_gamma   84.54581199
_symmetry_Int_Tables_number   1
_chemical_formula_structural   AgH8C6NO2
_chemical_formula_sum   'Ag2 H16 C12 N2 O4'
_cell_volume   389.08161521
_cell_formula_units_Z   2
loop_
 _symmetry_equiv_pos_site_id
 _symmetry_equiv_pos_as_xyz
  1  'x, y, z'
loop_
 _atom_site_type_symbol
 _atom_site_label
 _atom_site_symmetry_multiplicity
 _atom_site_fract_x
 _atom_site_fract_y
 _atom_site_fract_z
 _atom_site_occupancy
 _atom_site_hle17_bader_spin_density
 _atom_site_hle17_ddec_charge
 _atom_site_hle17_ddec_spin_density
 _atom_site_hle17_ddec_sum_bond_order
 _atom_site_hle17_magmom
 _atom_site_hse06_10hf_bader_spin_density
 _atom_site_hse06_10hf_ddec_charge
 _atom_site_hse06_10hf_ddec_spin_density
 _atom_site_hse06_10hf_ddec_sum_bond_order
 _atom_site_hse06_10hf_magmom
 _atom_site_hse06_bader_spin_density
 _atom_site_hse06_ddec_charge
 _atom_site_hse06_ddec_spin_density
 _atom_site_hse06_ddec_sum_bond_order
 _atom_site_hse06_magmom
 _atom_site_pbe_bader_spin_density
 _atom_site_pbe_cm5_charge
 _atom_site_pbe_ddec_charge
 _atom_site_pbe_ddec_spin_density
 _atom_site_pbe_ddec_sum_bond_order
 _atom_site_pbe_magmom
Ag  Ag0  1  0.27357494  0.99690258  0.12616644  1  0  0.521718  0  1.428576  0  0  0.388053  0  1.887656  0  0  0.423623  0  1.832482  0  0  0.42421  0.364025  0  1.924857  0
Ag  Ag1  1  0.72642844  0.00309809  0.87382794  1  0  0.521673  0  1.428729  0  0  0.387989  0  1.887805  0  0  0.423552  0  1.83264  0  0  0.424202  0.363964  0  1.925008  0
H  H2  1  0.39297194  0.72207072  0.27154572  1  0  0.277746  0  0.906004  0  0  0.278422  0  0.944124  0  0  0.28236  0  0.943991  0  0  0.294684  0.275528  0  0.944327  0
H  H3  1  0.60703783  0.27792888  0.72845123  1  0  0.277815  0  0.906025  0  0  0.278432  0  0.944196  0  0  0.282369  0  0.944063  0  0  0.294668  0.275538  0  0.944398  0
H  H4  1  0.66963758  0.77652953  0.14997337  1  0  0.295437  0  0.9461  0  0  0.282037  0  1.006858  0  0  0.288341  0  1.003871  0  0  0.282654  0.277573  0  1.009069  0
H  H5  1  0.33037164  0.22347360  0.85002320  1  0  0.295478  0  0.946093  0  0  0.282065  0  1.006858  0  0  0.288367  0  1.003873  0  0  0.282682  0.277601  0  1.009073  0
H  H6  1  0.38849190  0.37974204  0.25704076  1  0  0.101355  0  0.944366  0  0  0.112044  0  1.003588  0  0  0.116091  0  1.000494  0  0  0.103674  0.109239  0  1.00553  0
H  H7  1  0.61149794  0.62025392  0.74296951  1  0  0.101249  0  0.94446  0  0  0.111998  0  1.003625  0  0  0.116076  0  1.000492  0  0  0.103615  0.109194  0  1.005567  0
H  H8  1  0.93849050  0.41362139  0.83903979  1  0  0.09247  0  0.946788  0  0  0.105238  0  1.004655  0  0  0.108243  0  1.003394  0  0  0.100938  0.103065  0  1.005612  0
H  H9  1  0.06150700  0.58637817  0.16096703  1  0  0.092487  0  0.946822  0  0  0.105249  0  1.004711  0  0  0.10825  0  1.003448  0  0  0.100935  0.103073  0  1.005672  0
H  H10  1  0.81561000  0.93020578  0.29366896  1  0  0.044648  0  0.972233  0  0  0.061027  0  1.050387  0  0  0.062258  0  1.047582  0  0  0.088921  0.059937  0  1.052574  0
H  H11  1  0.18439302  0.06979726  0.70632623  1  0  0.044585  0  0.972247  0  0  0.060971  0  1.050407  0  0  0.062201  0  1.047603  0  0  0.088902  0.059881  0  1.052597  0
H  H12  1  0.70961612  0.75989480  0.41402714  1  0  0.043673  0  0.907728  0  0  0.068513  0  0.956958  0  0  0.068257  0  0.957751  0  0  0.097338  0.068938  0  0.956194  0
H  H13  1  0.29039741  0.24010721  0.58597014  1  0  0.043651  0  0.907726  0  0  0.068488  0  0.956968  0  0  0.068231  0  0.957762  0  0  0.097334  0.068914  0  0.956202  0
H  H14  1  0.25308391  0.90409759  0.50285819  1  0  0.083584  0  0.933627  0  0  0.104501  0  0.98763  0  0  0.105272  0  0.988423  0  0  0.092466  0.10389  0  0.987059  0
H  H15  1  0.74690883  0.09590537  0.49714030  1  0  0.08357  0  0.933732  0  0  0.104493  0  0.987714  0  0  0.105264  0  0.988508  0  0  0.092464  0.103882  0  0.987144  0
H  H16  1  0.35589884  0.06908382  0.37485372  1  0  0.059158  0  0.960259  0  0  0.074503  0  1.034069  0  0  0.075433  0  1.032764  0  0  0.081882  0.073918  0  1.034856  0
H  H17  1  0.64411411  0.93092169  0.62514002  1  0  0.059155  0  0.96029  0  0  0.074488  0  1.034114  0  0  0.075419  0  1.032809  0  0  0.081863  0.073906  0  1.034898  0
C  C18  1  0.68253069  0.38355820  0.05410468  1  0  -0.057618  0  3.758337  0  0  -0.034408  0  3.993142  0  0  -0.04069  0  4.015718  0  0  -0.018571  -0.030381  0  3.978024  0
C  C19  1  0.31746156  0.61644836  0.94589977  1  0  -0.057661  0  3.758264  0  0  -0.034432  0  3.993077  0  0  -0.040724  0  4.015662  0  0  -0.018536  -0.030405  0  3.977963  0
C  C20  1  0.43666834  0.43437035  0.14499192  1  0  -0.079467  0  3.738999  0  0  -0.102377  0  3.988276  0  0  -0.103118  0  4.007199  0  0  -0.087502  -0.101827  0  3.975542  0
C  C21  1  0.56331999  0.56562206  0.85501897  1  0  -0.079465  0  3.738868  0  0  -0.102452  0  3.988174  0  0  -0.103214  0  4.007088  0  0  -0.087511  -0.101902  0  3.975448  0
C  C22  1  0.87290171  0.25872520  0.11486632  1  0  0.610942  0  3.961223  0  0  0.560499  0  4.251846  0  0  0.593584  0  4.248154  0  0  0.189684  0.538023  0  4.254011  0
C  C23  1  0.12710190  0.74127435  0.88513346  1  0  0.611033  0  3.961046  0  0  0.560593  0  4.251654  0  0  0.593687  0  4.247947  0  0  0.189743  0.538116  0  4.253822  0
C  C24  1  0.74411633  0.45045676  0.90873752  1  0  -0.075293  0  3.744097  0  0  -0.09828  0  3.995235  0  0  -0.099058  0  4.015659  0  0  -0.088482  -0.097783  0  3.981403  0
C  C25  1  0.25587658  0.54953204  0.09126377  1  0  -0.075361  0  3.744261  0  0  -0.098355  0  3.995358  0  0  -0.09913  0  4.015784  0  0  -0.088486  -0.097856  0  3.981522  0
C  C26  1  0.63510981  0.86414114  0.34804453  1  0  0.091224  0  3.643623  0  0  0.033519  0  3.903656  0  0  0.037849  0  3.918713  0  0  -0.076898  0.03061  0  3.893135  0
C  C27  1  0.36489513  0.13586315  0.65195451  1  0  0.091309  0  3.643527  0  0  0.033578  0  3.903561  0  0  0.037911  0  3.918614  0  0  -0.076916  0.030668  0  3.893043  0
C  C28  1  0.43240460  0.96915626  0.44489747  1  0  -0.134635  0  3.688192  0  0  -0.17206  0  3.941342  0  0  -0.174306  0  3.957773  0  0  -0.170434  -0.170035  0  3.92912  0
C  C29  1  0.56759882  0.03084446  0.55510113  1  0  -0.134632  0  3.68827  0  0  -0.172035  0  3.941387  0  0  -0.174281  0  3.957818  0  0  -0.170379  -0.170009  0  3.929162  0
N  N30  1  0.51387107  0.81421611  0.23209964  1  0  -0.61166  0  3.221551  0  0  -0.539088  0  3.473891  0  0  -0.563504  0  3.478286  0  0  -0.643391  -0.522522  0  3.470464  0
N  N31  1  0.48613855  0.18578470  0.76790035  1  0  -0.611779  0  3.221592  0  0  -0.5391  0  3.47389  0  0  -0.563515  0  3.478285  0  0  -0.643386  -0.522535  0  3.470466  0
O  O32  1  0.04728919  0.18311304  0.01830364  1  0  -0.659054  0  2.157298  0  0  -0.567639  0  2.430461  0  0  -0.601778  0  2.420279  0  0  -0.346565  -0.544374  0  2.43694  0
O  O33  1  0.95270021  0.81689814  0.98169422  1  0  -0.659143  0  2.157248  0  0  -0.567712  0  2.430385  0  0  -0.601856  0  2.420203  0  0  -0.346622  -0.544446  0  2.436865  0
O  O34  1  0.85538796  0.23109214  0.24911805  1  0  -0.604116  0  1.920549  0  0  -0.554403  0  2.14352  0  0  -0.578751  0  2.136198  0  0  -0.324584  -0.537724  0  2.148007  0
O  O35  1  0.14459498  0.76889415  0.75088047  1  0  -0.604077  0  1.920419  0  0  -0.55436  0  2.143362  0  0  -0.578713  0  2.136042  0  0  -0.324595  -0.537683  0  2.147852  0
