# generated using pymatgen
data_RbSnH6(C2O)6
_symmetry_space_group_name_H-M   'P 1'
_cell_length_a   12.16872059
_cell_length_b   12.12310000
_cell_length_c   12.16858865
_cell_angle_alpha   109.39529179
_cell_angle_beta   109.54274291
_cell_angle_gamma   109.39573198
_symmetry_Int_Tables_number   1
_chemical_formula_structural   RbSnH6(C2O)6
_chemical_formula_sum   'Rb4 Sn4 H24 C48 O24'
_cell_volume   1383.25959609
_cell_formula_units_Z   4
loop_
 _symmetry_equiv_pos_site_id
 _symmetry_equiv_pos_as_xyz
  1  'x, y, z'
loop_
 _atom_site_type_symbol
 _atom_site_label
 _atom_site_symmetry_multiplicity
 _atom_site_fract_x
 _atom_site_fract_y
 _atom_site_fract_z
 _atom_site_occupancy
 _atom_site_hle17_bader_spin_density
 _atom_site_hle17_ddec_charge
 _atom_site_hle17_ddec_spin_density
 _atom_site_hle17_ddec_sum_bond_order
 _atom_site_hle17_magmom
 _atom_site_hse06_10hf_bader_spin_density
 _atom_site_hse06_10hf_ddec_charge
 _atom_site_hse06_10hf_ddec_spin_density
 _atom_site_hse06_10hf_ddec_sum_bond_order
 _atom_site_hse06_10hf_magmom
 _atom_site_hse06_bader_spin_density
 _atom_site_hse06_ddec_charge
 _atom_site_hse06_ddec_spin_density
 _atom_site_hse06_ddec_sum_bond_order
 _atom_site_hse06_magmom
 _atom_site_pbe_bader_charge
 _atom_site_pbe_bader_spin_density
 _atom_site_pbe_cm5_charge
 _atom_site_pbe_ddec_charge
 _atom_site_pbe_ddec_spin_density
 _atom_site_pbe_ddec_sum_bond_order
 _atom_site_pbe_magmom
Rb  Rb0  1  0.55982114  0.99988729  0.00010855  1  0  0.955308  0  0.460911  0  0  0.906105  0  0.658403  0  0  0.921815  0  0.63529  0  0.904209  0  0.752584  0.894211  0  0.675366  0
Rb  Rb1  1  0.44027334  0.43998610  0.44008722  1  0  0.955324  0  0.460968  0  0  0.906061  0  0.658639  0  0  0.921735  0  0.635591  0  0.903645  0  0.75256  0.894152  0  0.67559  0
Rb  Rb2  1  0.99985207  0.99971176  0.55963588  1  0  0.95539  0  0.460219  0  0  0.906314  0  0.657439  0  0  0.92203  0  0.634354  0  0.904647  0  0.751976  0.894438  0  0.674387  0
Rb  Rb3  1  0.99993946  0.55961483  0.99999781  1  0  0.955438  0  0.464193  0  0  0.906041  0  0.66274  0  0  0.921732  0  0.639623  0  0.901826  0  0.75666  0.894179  0  0.67965  0
Sn  Sn4  1  0.21509172  0.99987811  0.99910705  1  0  0.990537  0  1.908068  0  0  0.833082  0  2.325918  0  0  0.876184  0  2.302218  0  1.366704  0  0.521993  0.801513  0  2.345514  0
Sn  Sn5  1  0.78429371  0.78459047  0.78519712  1  0  0.990932  0  1.906293  0  0  0.833073  0  2.324489  0  0  0.876115  0  2.300899  0  1.364924  0  0.522218  0.801639  0  2.343856  0
Sn  Sn6  1  0.00087631  0.00060491  0.21597487  1  0  0.990794  0  1.906232  0  0  0.833144  0  2.324167  0  0  0.876321  0  2.300433  0  1.367485  0  0.521936  0.801515  0  2.3438  0
Sn  Sn7  1  0.99994884  0.21534487  0.00002329  1  0  0.989091  0  1.911251  0  0  0.831754  0  2.329258  0  0  0.874698  0  2.305826  0  1.366125  0  0.520966  0.800381  0  2.348569  0
H  H8  1  0.56539515  0.27192697  0.96130370  1  0  0.092953  0  0.969024  0  0  0.098584  0  1.039226  0  0  0.101821  0  1.03779  0  0.100133  0  0.10621  0.09612  0  1.040563  0
H  H9  1  0.43350442  0.39487688  0.70626971  1  0  0.093075  0  0.967569  0  0  0.09856  0  1.037879  0  0  0.101823  0  1.03648  0  0.095919  0  0.106083  0.096067  0  1.039217  0
H  H10  1  0.69068515  0.72868514  0.29433897  1  0  0.092911  0  0.970332  0  0  0.098763  0  1.039982  0  0  0.101988  0  1.038583  0  0.075979  0  0.106443  0.096337  0  1.041248  0
H  H11  1  0.31025340  0.60416736  0.03796095  1  0  0.092625  0  0.968981  0  0  0.098405  0  1.038834  0  0  0.101622  0  1.037441  0  0.079815  0  0.1063  0.095966  0  1.040123  0
H  H12  1  0.60358784  0.03796636  0.30918383  1  0  0.092973  0  0.968364  0  0  0.098265  0  1.038943  0  0  0.101563  0  1.037464  0  0.107284  0  0.106316  0.095785  0  1.040267  0
H  H13  1  0.72770137  0.29385341  0.68964924  1  0  0.092963  0  0.968602  0  0  0.098356  0  1.038929  0  0  0.101647  0  1.037475  0  0.08489  0  0.106133  0.095868  0  1.040257  0
H  H14  1  0.39592909  0.70661106  0.43462608  1  0  0.092888  0  0.968663  0  0  0.098242  0  1.03914  0  0  0.101545  0  1.037658  0  0.096368  0  0.10613  0.095758  0  1.040465  0
H  H15  1  0.27285358  0.96142233  0.56656545  1  0  0.093308  0  0.968274  0  0  0.098515  0  1.038802  0  0  0.101798  0  1.037362  0  0.112237  0  0.106257  0.096052  0  1.040111  0
H  H16  1  0.29372137  0.68851777  0.72705128  1  0  0.093139  0  0.9689  0  0  0.098754  0  1.038775  0  0  0.101978  0  1.037415  0  0.097586  0  0.106341  0.096287  0  1.040087  0
H  H17  1  0.03862533  0.31064452  0.60409343  1  0  0.093438  0  0.969242  0  0  0.098825  0  1.039458  0  0  0.102063  0  1.038027  0  0.087756  0  0.10627  0.09636  0  1.040773  0
H  H18  1  0.96197074  0.56613703  0.27227386  1  0  0.093002  0  0.969063  0  0  0.098862  0  1.038812  0  0  0.102101  0  1.037414  0  0.108081  0  0.106222  0.096384  0  1.04016  0
H  H19  1  0.70559849  0.43433850  0.39626195  1  0  0.09313  0  0.969784  0  0  0.098406  0  1.040081  0  0  0.101698  0  1.038626  0  0.05938  0  0.106126  0.095942  0  1.041383  0
H  H20  1  0.51368663  0.52330477  0.26181863  1  0  0.081059  0  0.965639  0  0  0.088542  0  1.034096  0  0  0.092123  0  1.031835  0  0.069841  0  0.103461  0.085903  0  1.035945  0
H  H21  1  0.48699208  0.74866011  0.00962819  1  0  0.080893  0  0.96823  0  0  0.088452  0  1.036591  0  0  0.09194  0  1.034413  0  0.048292  0  0.103328  0.085898  0  1.038343  0
H  H22  1  0.73987583  0.47744214  0.99126999  1  0  0.081662  0  0.966736  0  0  0.08941  0  1.034767  0  0  0.092923  0  1.032553  0  0.067813  0  0.103516  0.086781  0  1.036605  0
H  H23  1  0.25970594  0.25036260  0.73763321  1  0  0.080338  0  0.966871  0  0  0.087728  0  1.035766  0  0  0.091303  0  1.033494  0  0.034342  0  0.103036  0.085088  0  1.037626  0
H  H24  1  0.25141741  0.73758040  0.26009543  1  0  0.081582  0  0.96643  0  0  0.089287  0  1.034519  0  0  0.092799  0  1.032299  0  0.031767  0  0.103629  0.086679  0  1.036353  0
H  H25  1  0.47785227  0.99059314  0.74023733  1  0  0.081608  0  0.966854  0  0  0.088711  0  1.035733  0  0  0.092215  0  1.033527  0  0.052629  0  0.103399  0.086106  0  1.037566  0
H  H26  1  0.74803191  0.00967298  0.48625450  1  0  0.080818  0  0.965396  0  0  0.088395  0  1.033872  0  0  0.091896  0  1.031687  0  0.056307  0  0.103394  0.085806  0  1.035672  0
H  H27  1  0.52259601  0.26167842  0.51301054  1  0  0.080372  0  0.968251  0  0  0.087922  0  1.036685  0  0  0.091409  0  1.034508  0  0.060207  0  0.103001  0.08536  0  1.038457  0
H  H28  1  0.99043465  0.73913884  0.47743210  1  0  0.081074  0  0.968584  0  0  0.088594  0  1.036904  0  0  0.092135  0  1.034679  0  0.046311  0  0.103448  0.085969  0  1.038737  0
H  H29  1  0.73818310  0.26146889  0.25190275  1  0  0.080923  0  0.965913  0  0  0.08833  0  1.034476  0  0  0.091839  0  1.032288  0  0.068948  0  0.103414  0.085725  0  1.036297  0
H  H30  1  0.26232730  0.51273313  0.52215402  1  0  0.080457  0  0.96722  0  0  0.0878  0  1.036102  0  0  0.091383  0  1.033824  0  0.043275  0  0.103077  0.08517  0  1.03795  0
H  H31  1  0.00881644  0.48610465  0.74854124  1  0  0.081627  0  0.965959  0  0  0.089233  0  1.034105  0  0  0.092768  0  1.031862  0  0.069019  0  0.10358  0.086612  0  1.035941  0
C  C32  1  0.53312492  0.38503195  0.11423157  1  0  -0.054092  0  3.748672  0  0  -0.031738  0  3.978167  0  0  -0.038573  0  4.001068  0  -0.013466  0  -0.009337  -0.027318  0  3.962896  0
C  C33  1  0.46647799  0.58088388  0.85156366  1  0  -0.056247  0  3.751879  0  0  -0.033548  0  3.980881  0  0  -0.040277  0  4.003591  0  0.007449  0  -0.00963  -0.029213  0  3.965758  0
C  C34  1  0.73056942  0.61553477  0.14905513  1  0  -0.058061  0  3.753219  0  0  -0.035726  0  3.982942  0  0  -0.042581  0  4.005769  0  -0.060135  0  -0.010328  -0.03129  0  3.967714  0
C  C35  1  0.26961101  0.41828169  0.88501851  1  0  -0.056647  0  3.75159  0  0  -0.034746  0  3.981572  0  0  -0.041573  0  4.004421  0  -0.081019  0  -0.010504  -0.030334  0  3.966339  0
C  C36  1  0.41845403  0.88506318  0.26939841  1  0  -0.061324  0  3.755519  0  0  -0.038631  0  3.985183  0  0  -0.045534  0  4.008022  0  -0.062741  0  -0.010415  -0.034179  0  3.969954  0
C  C37  1  0.61542391  0.14864027  0.73041732  1  0  -0.057484  0  3.752498  0  0  -0.035232  0  3.98188  0  0  -0.041979  0  4.004591  0  0.006766  0  -0.010475  -0.030881  0  3.966741  0
C  C38  1  0.58113338  0.85185123  0.46689248  1  0  -0.055148  0  3.748095  0  0  -0.032856  0  3.977473  0  0  -0.039674  0  4.00035  0  -0.022716  0  -0.009732  -0.028458  0  3.96222  0
C  C39  1  0.38510955  0.11439248  0.53354445  1  0  -0.057466  0  3.752735  0  0  -0.035063  0  3.982308  0  0  -0.041907  0  4.005182  0  -0.027382  0  -0.009739  -0.030642  0  3.967067  0
C  C40  1  0.14839328  0.72932034  0.61489605  1  0  -0.056863  0  3.752962  0  0  -0.03294  0  3.980364  0  0  -0.03966  0  4.003077  0  -0.04166  0  -0.009487  -0.028617  0  3.965224  0
C  C41  1  0.88576916  0.27081227  0.41888107  1  0  -0.054769  0  3.748804  0  0  -0.032639  0  3.978545  0  0  -0.039436  0  4.001371  0  -0.057948  0  -0.00977  -0.028248  0  3.963316  0
C  C42  1  0.11500356  0.53325449  0.38454551  1  0  -0.056847  0  3.752473  0  0  -0.034719  0  3.982225  0  0  -0.041561  0  4.005079  0  -0.043359  0  -0.00991  -0.030295  0  3.966985  0
C  C43  1  0.85093256  0.46648646  0.58150629  1  0  -0.060644  0  3.755107  0  0  -0.038004  0  3.984706  0  0  -0.044907  0  4.007568  0  -0.107112  0  -0.010936  -0.033536  0  3.969452  0
C  C44  1  0.42776569  0.26292499  0.09709827  1  0  0.634579  0  3.89835  0  0  0.589299  0  4.182582  0  0  0.623225  0  4.17483  0  1.545827  0  0.214078  0.566196  0  4.187  0
C  C45  1  0.57143425  0.66891651  0.83437664  1  0  0.637703  0  3.897309  0  0  0.592301  0  4.181149  0  0  0.626245  0  4.173292  0  1.520456  0  0.214894  0.569191  0  4.185666  0
C  C46  1  0.83566636  0.73772432  0.16603780  1  0  0.638048  0  3.89606  0  0  0.5929  0  4.179885  0  0  0.626852  0  4.172028  0  1.544131  0  0.21523  0.569777  0  4.184379  0
C  C47  1  0.16439169  0.33050676  0.90213058  1  0  0.639822  0  3.893634  0  0  0.595157  0  4.176793  0  0  0.62909  0  4.168926  0  1.558308  0  0.215657  0.572037  0  4.18131  0
C  C48  1  0.33028541  0.90204155  0.16419164  1  0  0.640384  0  3.892909  0  0  0.59498  0  4.177025  0  0  0.628951  0  4.169108  0  1.54183  0  0.21499  0.57185  0  4.181552  0
C  C49  1  0.73771999  0.16604655  0.83562294  1  0  0.63949  0  3.893749  0  0  0.594441  0  4.177343  0  0  0.628367  0  4.169442  0  1.527662  0  0.215061  0.571341  0  4.181881  0
C  C50  1  0.66933815  0.83505405  0.57238892  1  0  0.635983  0  3.895174  0  0  0.591325  0  4.178748  0  0  0.625257  0  4.170935  0  1.561046  0  0.214401  0.568211  0  4.183226  0
C  C51  1  0.26297428  0.09745792  0.42854390  1  0  0.639225  0  3.896783  0  0  0.594332  0  4.180087  0  0  0.628304  0  4.172212  0  1.528939  0  0.215488  0.571197  0  4.18459  0
C  C52  1  0.16557189  0.83452793  0.73708925  1  0  0.638184  0  3.893402  0  0  0.592636  0  4.177191  0  0  0.626549  0  4.169313  0  1.541057  0  0.214602  0.569548  0  4.181686  0
C  C53  1  0.90292436  0.16584207  0.33068969  1  0  0.636038  0  3.895578  0  0  0.590916  0  4.179672  0  0  0.62482  0  4.171884  0  1.565027  0  0.214148  0.567833  0  4.184108  0
C  C54  1  0.09793704  0.42835262  0.26225416  1  0  0.63813  0  3.897147  0  0  0.593487  0  4.180399  0  0  0.627447  0  4.172503  0  1.537057  0  0.214888  0.570351  0  4.184927  0
C  C55  1  0.83401707  0.57172371  0.66969492  1  0  0.640183  0  3.893185  0  0  0.594789  0  4.177296  0  0  0.628773  0  4.169367  0  1.548865  0  0.215436  0.571642  0  4.181847  0
C  C56  1  0.59616101  0.37209381  0.03688001  1  0  -0.069344  0  3.731648  0  0  -0.091119  0  3.97769  0  0  -0.092033  0  3.998356  0  -0.044087  0  -0.076836  -0.090369  0  3.963911  0
C  C57  1  0.40324361  0.44004561  0.77584242  1  0  -0.069229  0  3.72982  0  0  -0.090777  0  3.975257  0  0  -0.091791  0  3.995919  0  -0.066502  0  -0.077133  -0.089966  0  3.961537  0
C  C58  1  0.66579567  0.62846889  0.22465796  1  0  -0.069028  0  3.734844  0  0  -0.090977  0  3.980789  0  0  -0.091884  0  4.001453  0  0.023635  0  -0.076887  -0.090252  0  3.967042  0
C  C59  1  0.33486527  0.55906372  0.96277774  1  0  -0.068094  0  3.732632  0  0  -0.089711  0  3.978196  0  0  -0.090622  0  3.998832  0  0.017759  0  -0.076238  -0.08898  0  3.964513  0
C  C60  1  0.55884359  0.96269534  0.33416258  1  0  -0.067152  0  3.732108  0  0  -0.088554  0  3.977727  0  0  -0.089492  0  3.99833  0  -0.002643  0  -0.076587  -0.087798  0  3.964016  0
C  C61  1  0.62791687  0.22419617  0.66515513  1  0  -0.068539  0  3.732128  0  0  -0.089784  0  3.97749  0  0  -0.090801  0  3.998088  0  -0.033097  0  -0.07627  -0.088984  0  3.963818  0
C  C62  1  0.44075536  0.77595374  0.40380685  1  0  -0.06841  0  3.72878  0  0  -0.089843  0  3.974974  0  0  -0.090814  0  3.995567  0  0.000336  0  -0.076453  -0.089048  0  3.961238  0
C  C63  1  0.37264906  0.03688826  0.59686629  1  0  -0.069089  0  3.732481  0  0  -0.090286  0  3.978146  0  0  -0.091257  0  3.998785  0  -0.049506  0  -0.0771  -0.089535  0  3.964429  0
C  C64  1  0.22413231  0.66421698  0.62731749  1  0  -0.069179  0  3.732184  0  0  -0.090976  0  3.977019  0  0  -0.091954  0  3.99767  0  -0.030674  0  -0.076725  -0.090179  0  3.963304  0
C  C65  1  0.96309935  0.33524332  0.55924114  1  0  -0.069767  0  3.731663  0  0  -0.091056  0  3.977621  0  0  -0.091977  0  3.99825  0  -0.000763  0  -0.076333  -0.090291  0  3.963939  0
C  C66  1  0.03724181  0.59629719  0.37207520  1  0  -0.068685  0  3.732726  0  0  -0.090493  0  3.978505  0  0  -0.091439  0  3.999225  0  -0.047925  0  -0.076664  -0.089732  0  3.964739  0
C  C67  1  0.77529672  0.40384521  0.44111926  1  0  -0.067635  0  3.73429  0  0  -0.089079  0  3.97989  0  0  -0.09001  0  4.000489  0  0.102095  0  -0.076083  -0.088345  0  3.966194  0
C  C68  1  0.56773730  0.51393347  0.20694729  1  0  -0.065197  0  3.742406  0  0  -0.086641  0  3.989878  0  0  -0.087788  0  4.010214  0  -0.070237  0  -0.076842  -0.085805  0  3.976278  0
C  C69  1  0.43265689  0.63942386  0.94616950  1  0  -0.065555  0  3.745847  0  0  -0.087353  0  3.993108  0  0  -0.088433  0  4.013393  0  -0.030487  0  -0.077282  -0.086558  0  3.979527  0
C  C70  1  0.69395325  0.48666274  0.05431146  1  0  -0.064788  0  3.743933  0  0  -0.086628  0  3.991277  0  0  -0.087678  0  4.011596  0  -0.032246  0  -0.076434  -0.085814  0  3.97768  0
C  C71  1  0.30578718  0.35967425  0.79280194  1  0  -0.064167  0  3.740669  0  0  -0.085553  0  3.987761  0  0  -0.086693  0  4.008099  0  -0.002687  0  -0.076146  -0.08471  0  3.974142  0
C  C72  1  0.36039038  0.79278826  0.30603652  1  0  -0.064798  0  3.741988  0  0  -0.086732  0  3.98947  0  0  -0.087768  0  4.00982  0  -0.021307  0  -0.077154  -0.08595  0  3.97584  0
C  C73  1  0.48705070  0.05392811  0.69429417  1  0  -0.065194  0  3.743056  0  0  -0.086417  0  3.990111  0  0  -0.087491  0  4.010398  0  -0.056708  0  -0.07657  -0.085609  0  3.976537  0
C  C74  1  0.63915926  0.94611146  0.43217736  1  0  -0.06574  0  3.743094  0  0  -0.087395  0  3.990784  0  0  -0.088485  0  4.011138  0  -0.069871  0  -0.077249  -0.086588  0  3.977159  0
C  C75  1  0.51353726  0.20679656  0.56738811  1  0  -0.064427  0  3.745347  0  0  -0.086205  0  3.992709  0  0  -0.087265  0  4.013099  0  -0.031102  0  -0.076567  -0.085429  0  3.979062  0
C  C76  1  0.05385764  0.69331665  0.48648533  1  0  -0.065819  0  3.74669  0  0  -0.088014  0  3.993814  0  0  -0.089153  0  4.014125  0  -0.00949  0  -0.077285  -0.087149  0  3.980207  0
C  C77  1  0.79303572  0.30699520  0.36082755  1  0  -0.065631  0  3.743442  0  0  -0.087038  0  3.990923  0  0  -0.088139  0  4.011297  0  -0.036979  0  -0.077162  -0.086217  0  3.977292  0
C  C78  1  0.20720251  0.56688832  0.51294953  1  0  -0.063845  0  3.742478  0  0  -0.085476  0  3.990036  0  0  -0.086584  0  4.010342  0  -0.011931  0  -0.076557  -0.084663  0  3.976436  0
C  C79  1  0.94570057  0.43239498  0.63961251  1  0  -0.063996  0  3.74294  0  0  -0.085903  0  3.990425  0  0  -0.086954  0  4.010727  0  -0.075394  0  -0.076666  -0.085099  0  3.976833  0
O  O80  1  0.38949995  0.14682283  0.00009438  1  0  -0.61962  0  2.01171  0  0  -0.552198  0  2.24745  0  0  -0.578956  0  2.23974  0  -1.17457  0  -0.317243  -0.533135  0  2.252413  0
O  O81  1  0.60902744  0.60986762  0.75616455  1  0  -0.62072  0  2.008352  0  0  -0.553551  0  2.244175  0  0  -0.580203  0  2.236223  0  -1.171085  0  -0.317483  -0.534491  0  2.249119  0
O  O82  1  0.85525127  0.85397821  0.24438802  1  0  -0.621208  0  2.009692  0  0  -0.553788  0  2.245303  0  0  -0.580533  0  2.237489  0  -1.16986  0  -0.318362  -0.534737  0  2.250344  0
O  O83  1  0.14559812  0.38978299  0.99898032  1  0  -0.622333  0  2.009435  0  0  -0.555389  0  2.245053  0  0  -0.582134  0  2.23728  0  -1.173474  0  -0.319739  -0.536346  0  2.250064  0
O  O84  1  0.38902033  0.99858844  0.14445210  1  0  -0.621686  0  2.009905  0  0  -0.554589  0  2.246077  0  0  -0.581283  0  2.238133  0  -1.170995  0  -0.318448  -0.535569  0  2.251199  0
O  O85  1  0.85335419  0.24415990  0.85443869  1  0  -0.622256  0  2.009968  0  0  -0.555145  0  2.245882  0  0  -0.581853  0  2.238009  0  -1.16692  0  -0.319576  -0.536102  0  2.250894  0
O  O86  1  0.61068395  0.75724755  0.61072922  1  0  -0.620317  0  2.010435  0  0  -0.553595  0  2.24637  0  0  -0.580327  0  2.238576  0  -1.176227  0  -0.317359  -0.534565  0  2.251383  0
O  O87  1  0.14720310  0.00074905  0.39090314  1  0  -0.620966  0  2.007988  0  0  -0.554469  0  2.243997  0  0  -0.581202  0  2.236157  0  -1.171308  0  -0.317952  -0.53542  0  2.249045  0
O  O88  1  0.24371535  0.85358013  0.85284420  1  0  -0.620638  0  2.007389  0  0  -0.553852  0  2.243174  0  0  -0.580587  0  2.235383  0  -1.173666  0  -0.317201  -0.534807  0  2.248193  0
O  O89  1  0.99995466  0.14681000  0.38946767  1  0  -0.620578  0  2.011395  0  0  -0.553245  0  2.247014  0  0  -0.580027  0  2.239273  0  -1.179432  0  -0.317425  -0.534186  0  2.252012  0
O  O90  1  0.00110649  0.39079254  0.14662389  1  0  -0.621065  0  2.010951  0  0  -0.554291  0  2.246838  0  0  -0.580973  0  2.238937  0  -1.173471  0  -0.319313  -0.535288  0  2.251934  0
O  O91  1  0.75561080  0.60957495  0.61093545  1  0  -0.622133  0  2.009023  0  0  -0.554657  0  2.244721  0  0  -0.581392  0  2.236894  0  -1.173347  0  -0.31866  -0.535625  0  2.249772  0
O  O92  1  0.38007391  0.27517981  0.17485760  1  0  -0.64779  0  1.954629  0  0  -0.59323  0  2.182404  0  0  -0.617879  0  2.174762  0  -1.186619  0  -0.367123  -0.575624  0  2.187229  0
O  O93  1  0.61962062  0.79481553  0.89458207  1  0  -0.649339  0  1.956657  0  0  -0.594517  0  2.184789  0  0  -0.619274  0  2.177201  0  -1.165863  0  -0.369579  -0.57687  0  2.189598  0
O  O94  1  0.90060913  0.72541008  0.10545401  1  0  -0.649226  0  1.95663  0  0  -0.594496  0  2.184563  0  0  -0.619257  0  2.177029  0  -1.190036  0  -0.368505  -0.576837  0  2.189352  0
O  O95  1  0.09851689  0.20467720  0.82457375  1  0  -0.649193  0  1.953375  0  0  -0.594773  0  2.181154  0  0  -0.619439  0  2.173481  0  -1.184917  0  -0.367115  -0.577198  0  2.186092  0
O  O96  1  0.20478857  0.82477770  0.09930417  1  0  -0.649645  0  1.95502  0  0  -0.594807  0  2.18285  0  0  -0.619558  0  2.175305  0  -1.195907  0  -0.368158  -0.57715  0  2.187637  0
O  O97  1  0.72604471  0.10606258  0.90148048  1  0  -0.648533  0  1.954358  0  0  -0.593916  0  2.182266  0  0  -0.618637  0  2.174695  0  -1.176535  0  -0.366838  -0.576264  0  2.187024  0
O  O98  1  0.79479496  0.89504525  0.62011070  1  0  -0.648625  0  1.952724  0  0  -0.594161  0  2.180027  0  0  -0.618851  0  2.172452  0  -1.184604  0  -0.367303  -0.576578  0  2.184901  0
O  O99  1  0.27490615  0.17518973  0.38035333  1  0  -0.64975  0  1.957696  0  0  -0.594912  0  2.185366  0  0  -0.619701  0  2.177822  0  -1.173746  0  -0.369328  -0.577219  0  2.190148  0
O  O100  1  0.10545214  0.90033951  0.72521877  1  0  -0.649276  0  1.954018  0  0  -0.594328  0  2.181808  0  0  -0.619102  0  2.174264  0  -1.176075  0  -0.369178  -0.576679  0  2.186654  0
O  O101  1  0.82517582  0.10035155  0.20525829  1  0  -0.648055  0  1.952785  0  0  -0.593408  0  2.180162  0  0  -0.618088  0  2.172617  0  -1.194117  0  -0.366766  -0.57582  0  2.185003  0
O  O102  1  0.17544824  0.38001113  0.27387735  1  0  -0.648443  0  1.956037  0  0  -0.593754  0  2.183361  0  0  -0.618544  0  2.175948  0  -1.179285  0  -0.366953  -0.576101  0  2.188134  0
O  O103  1  0.89460039  0.62008177  0.79523971  1  0  -0.649105  0  1.956126  0  0  -0.594155  0  2.18403  0  0  -0.618919  0  2.176481  0  -1.188752  0  -0.367786  -0.576534  0  2.188891  0
