# generated using pymatgen
data_CdH26C34N10(ClO2)2
_symmetry_space_group_name_H-M   'P 1'
_cell_length_a   8.41371619
_cell_length_b   9.11433766
_cell_length_c   11.90155463
_cell_angle_alpha   78.56143677
_cell_angle_beta   75.54831449
_cell_angle_gamma   87.17334871
_symmetry_Int_Tables_number   1
_chemical_formula_structural   CdH26C34N10(ClO2)2
_chemical_formula_sum   'Cd1 H26 C34 N10 Cl2 O4'
_cell_volume   866.24349636
_cell_formula_units_Z   1
loop_
 _symmetry_equiv_pos_site_id
 _symmetry_equiv_pos_as_xyz
  1  'x, y, z'
loop_
 _atom_site_type_symbol
 _atom_site_label
 _atom_site_symmetry_multiplicity
 _atom_site_fract_x
 _atom_site_fract_y
 _atom_site_fract_z
 _atom_site_occupancy
 _atom_site_hle17_bader_spin_density
 _atom_site_hle17_ddec_charge
 _atom_site_hle17_ddec_spin_density
 _atom_site_hle17_ddec_sum_bond_order
 _atom_site_hle17_magmom
 _atom_site_hse06_10hf_bader_spin_density
 _atom_site_hse06_10hf_ddec_charge
 _atom_site_hse06_10hf_ddec_spin_density
 _atom_site_hse06_10hf_ddec_sum_bond_order
 _atom_site_hse06_10hf_magmom
 _atom_site_hse06_bader_spin_density
 _atom_site_hse06_ddec_charge
 _atom_site_hse06_ddec_spin_density
 _atom_site_hse06_ddec_sum_bond_order
 _atom_site_hse06_magmom
 _atom_site_pbe_bader_spin_density
 _atom_site_pbe_cm5_charge
 _atom_site_pbe_ddec_charge
 _atom_site_pbe_ddec_spin_density
 _atom_site_pbe_ddec_sum_bond_order
 _atom_site_pbe_magmom
Cd  Cd0  1  0.49999955  0.49999656  0.00000012  1  0  0.924359  0  1.950089  0  0  0.726132  0  2.414096  0  0  0.774499  0  2.376591  0  0  0.6507  0.688933  0  2.443968  0
H  H1  1  0.19014870  0.79171673  0.63589853  1  0  0.295425  0  0.891397  0  0  0.280631  0  0.949524  0  0  0.288542  0  0.942851  0  0  0.320648  0.274996  0  0.954322  0
H  H2  1  0.80986088  0.20828329  0.36409895  1  0  0.29549  0  0.891334  0  0  0.280695  0  0.949445  0  0  0.288604  0  0.942773  0  0  0.320678  0.275061  0  0.954235  0
H  H3  1  0.94763352  0.69538581  0.58100045  1  0  0.286139  0  0.909329  0  0  0.266049  0  0.977641  0  0  0.27411  0  0.971074  0  0  0.314157  0.260141  0  0.982757  0
H  H4  1  0.05236499  0.30461764  0.41899999  1  0  0.28615  0  0.909373  0  0  0.266048  0  0.977722  0  0  0.274104  0  0.971156  0  0  0.314148  0.260136  0  0.982848  0
H  H5  1  0.31701810  0.63868754  0.78641872  1  0  0.09579  0  0.928381  0  0  0.104096  0  0.990425  0  0  0.106828  0  0.988635  0  0  0.119624  0.102203  0  0.991723  0
H  H6  1  0.68298784  0.36130909  0.21357740  1  0  0.095799  0  0.928458  0  0  0.104114  0  0.990471  0  0  0.106844  0  0.988686  0  0  0.119636  0.10222  0  0.991766  0
H  H7  1  0.25416081  0.11774606  0.75668456  1  0  0.123099  0  0.945479  0  0  0.131674  0  1.007154  0  0  0.135015  0  1.004723  0  0  0.114521  0.129424  0  1.008667  0
H  H8  1  0.74584747  0.88224954  0.24331638  1  0  0.12313  0  0.945514  0  0  0.131694  0  1.007218  0  0  0.135028  0  1.004783  0  0  0.11453  0.129444  0  1.008724  0
H  H9  1  0.32206477  0.09071732  0.95268591  1  0  0.102721  0  0.997856  0  0  0.109004  0  1.065735  0  0  0.112263  0  1.064335  0  0  0.092928  0.105192  0  1.069425  0
H  H10  1  0.67792873  0.90927388  0.04731989  1  0  0.102685  0  0.997943  0  0  0.108986  0  1.065788  0  0  0.112246  0  1.064387  0  0  0.09294  0.105172  0  1.069476  0
H  H11  1  0.40014961  0.83533857  0.05139089  1  0  0.071069  0  0.956996  0  0  0.076929  0  1.029752  0  0  0.078753  0  1.029214  0  0  0.108783  0.075926  0  1.029537  0
H  H12  1  0.59984026  0.16464923  0.94861355  1  0  0.071055  0  0.957027  0  0  0.076927  0  1.029766  0  0  0.078753  0  1.029225  0  0  0.108817  0.075924  0  1.029555  0
H  H13  1  0.35981068  0.13897208  0.31902748  1  0  0.11221  0  0.954133  0  0  0.117273  0  1.022591  0  0  0.120472  0  1.021843  0  0  0.109233  0.115421  0  1.022296  0
H  H14  1  0.64019274  0.86102798  0.68097185  1  0  0.112204  0  0.95413  0  0  0.117256  0  1.022621  0  0  0.120453  0  1.021877  0  0  0.109204  0.115406  0  1.022321  0
H  H15  1  0.25220599  0.08100001  0.15440875  1  0  0.102952  0  0.985968  0  0  0.110625  0  1.049464  0  0  0.113761  0  1.047571  0  0  0.095419  0.108286  0  1.051018  0
H  H16  1  0.74779375  0.91900455  0.84559131  1  0  0.102935  0  0.986024  0  0  0.110631  0  1.04946  0  0  0.113756  0  1.047601  0  0  0.095405  0.108298  0  1.051002  0
H  H17  1  0.06178965  0.85675298  0.19908130  1  0  0.123532  0  0.926024  0  0  0.133585  0  0.98222  0  0  0.137492  0  0.980029  0  0  0.118229  0.130614  0  0.984225  0
H  H18  1  0.93821136  0.14325155  0.80091687  1  0  0.123532  0  0.926014  0  0  0.133586  0  0.982212  0  0  0.137495  0  0.980019  0  0  0.118218  0.130615  0  0.984215  0
H  H19  1  0.78420981  0.60302910  0.76759135  1  0  0.089938  0  0.971798  0  0  0.095878  0  1.039943  0  0  0.099384  0  1.036805  0  0  0.102053  0.093518  0  1.041635  0
H  H20  1  0.21578379  0.39697436  0.23240991  1  0  0.08991  0  0.971811  0  0  0.095891  0  1.039915  0  0  0.099397  0  1.03678  0  0  0.102038  0.093534  0  1.041606  0
H  H21  1  0.39993683  0.31483950  0.81385175  1  0  0.080069  0  0.981358  0  0  0.086286  0  1.050891  0  0  0.088896  0  1.048891  0  0  0.102301  0.084373  0  1.052508  0
H  H22  1  0.60005805  0.68516391  0.18614678  1  0  0.080036  0  0.98138  0  0  0.086261  0  1.050898  0  0  0.08887  0  1.048899  0  0  0.102291  0.084343  0  1.052511  0
H  H23  1  0.47427615  0.29762971  0.59803589  1  0  0.121048  0  0.960318  0  0  0.128312  0  1.022755  0  0  0.131764  0  1.021262  0  0  0.107675  0.125908  0  1.023596  0
H  H24  1  0.52572365  0.70237143  0.40196135  1  0  0.120993  0  0.960359  0  0  0.128258  0  1.0228  0  0  0.131705  0  1.021323  0  0  0.10765  0.125853  0  1.023642  0
H  H25  1  0.70691664  0.45791397  0.46031580  1  0  0.11409  0  0.956336  0  0  0.122664  0  1.018143  0  0  0.126859  0  1.014501  0  0  0.108482  0.119553  0  1.021055  0
H  H26  1  0.29308433  0.54208721  0.53968376  1  0  0.114139  0  0.956337  0  0  0.122696  0  1.018147  0  0  0.12689  0  1.014506  0  0  0.108482  0.119587  0  1.02106  0
C  C27  1  0.32009140  0.74170646  0.81970496  1  0  0.033356  0  3.669341  0  0  -0.002532  0  3.922523  0  0  0.001958  0  3.938697  0  0  0.045999  -0.005491  0  3.911844  0
C  C28  1  0.67991082  0.25828909  0.18029364  1  0  0.033307  0  3.669573  0  0  -0.00261  0  3.922718  0  0  0.001879  0  3.938895  0  0  0.045976  -0.005565  0  3.912037  0
C  C29  1  0.28290383  0.88016797  0.75568606  1  0  0.207188  0  3.796894  0  0  0.20583  0  4.044945  0  0  0.209658  0  4.066699  0  0  0.101988  0.202955  0  4.030162  0
C  C30  1  0.71710449  0.11982873  0.24431302  1  0  0.207327  0  3.796925  0  0  0.206077  0  4.044823  0  0  0.209906  0  4.066578  0  0  0.102027  0.203199  0  4.030041  0
C  C31  1  0.28465340  0.00877968  0.80314985  1  0  -0.096962  0  3.670419  0  0  -0.122402  0  3.916357  0  0  -0.121913  0  3.934511  0  0  -0.068387  -0.122302  0  3.903786  0
C  C32  1  0.71535120  0.99121593  0.19685170  1  0  -0.097021  0  3.670436  0  0  -0.122513  0  3.916386  0  0  -0.122011  0  3.934529  0  0  -0.068411  -0.122413  0  3.903814  0
C  C33  1  0.32413663  0.99298462  0.91188999  1  0  -0.113769  0  3.747157  0  0  -0.120866  0  3.990908  0  0  -0.12745  0  4.013921  0  0  -0.086113  -0.116119  0  3.976799  0
C  C34  1  0.67586059  0.00700654  0.08811352  1  0  -0.113715  0  3.74726  0  0  -0.120818  0  3.991  0  0  -0.127403  0  4.014015  0  0  -0.086083  -0.116067  0  3.976886  0
C  C35  1  0.36432962  0.85183321  0.96780894  1  0  0.107032  0  3.719205  0  0  0.075973  0  3.971165  0  0  0.080903  0  3.991459  0  0  0.03572  0.0725  0  3.957205  0
C  C36  1  0.63566636  0.14815908  0.03219543  1  0  0.107197  0  3.719264  0  0  0.076128  0  3.971217  0  0  0.081058  0  3.991513  0  0  0.035757  0.072653  0  3.957261  0
C  C37  1  0.28331901  0.99317146  0.54845065  1  0  0.516203  0  3.835792  0  0  0.467865  0  4.128418  0  0  0.496391  0  4.127156  0  0  0.243158  0.448697  0  4.128882  0
C  C38  1  0.71668199  0.00682858  0.45154741  1  0  0.51616  0  3.835817  0  0  0.467869  0  4.128412  0  0  0.4964  0  4.127145  0  0  0.243166  0.448705  0  4.128871  0
C  C39  1  0.22401363  0.95914230  0.44705235  1  0  0.114788  0  3.76611  0  0  0.118072  0  4.017993  0  0  0.119201  0  4.03578  0  0  0.11774  0.11661  0  4.0065  0
C  C40  1  0.77598857  0.04085889  0.55294701  1  0  0.114816  0  3.766032  0  0  0.118022  0  4.017994  0  0  0.119149  0  4.03578  0  0  0.117758  0.116563  0  4.006496  0
C  C41  1  0.27577230  0.04618091  0.33379238  1  0  -0.093232  0  3.661036  0  0  -0.11947  0  3.914509  0  0  -0.121954  0  3.933538  0  0  -0.071002  -0.118093  0  3.901389  0
C  C42  1  0.72423113  0.95382139  0.66620659  1  0  -0.093154  0  3.660917  0  0  -0.119368  0  3.914404  0  0  -0.121849  0  3.933429  0  0  -0.070972  -0.117995  0  3.901287  0
C  C43  1  0.21751217  0.01087098  0.24247789  1  0  -0.007414  0  3.682501  0  0  -0.021138  0  3.930934  0  0  -0.020577  0  3.94948  0  0  -0.064413  -0.021224  0  3.918022  0
C  C44  1  0.78249126  0.98913132  0.75752108  1  0  -0.007432  0  3.682642  0  0  -0.021159  0  3.931086  0  0  -0.020605  0  3.94963  0  0  -0.064377  -0.02125  0  3.918179  0
C  C45  1  0.11029523  0.89013270  0.26699634  1  0  -0.093195  0  3.658947  0  0  -0.118515  0  3.906471  0  0  -0.121098  0  3.925337  0  0  -0.066975  -0.116961  0  3.894056  0
C  C46  1  0.88970331  0.10986960  0.73300261  1  0  -0.093249  0  3.659083  0  0  -0.118582  0  3.906619  0  0  -0.121162  0  3.925484  0  0  -0.067013  -0.117026  0  3.894206  0
C  C47  1  0.06199481  0.81178878  0.38343796  1  0  0.10282  0  3.775442  0  0  0.108463  0  4.024449  0  0  0.108506  0  4.045107  0  0  0.114348  0.10795  0  4.010978  0
C  C48  1  0.93800618  0.18821351  0.61656058  1  0  0.102861  0  3.77562  0  0  0.10851  0  4.024586  0  0  0.108554  0  4.045247  0  0  0.1144  0.10799  0  4.011117  0
C  C49  1  0.93692107  0.68774523  0.41648830  1  0  0.507043  0  3.851099  0  0  0.457874  0  4.145674  0  0  0.485846  0  4.14623  0  0  0.23894  0.439308  0  4.144542  0
C  C50  1  0.06307862  0.31225713  0.58351380  1  0  0.507076  0  3.851241  0  0  0.457938  0  4.145775  0  0  0.485897  0  4.146347  0  0  0.238957  0.43938  0  4.14463  0
C  C51  1  0.76152275  0.54449034  0.60249102  1  0  0.216112  0  3.793101  0  0  0.212437  0  4.042456  0  0  0.21725  0  4.064378  0  0  0.101882  0.208304  0  4.027646  0
C  C52  1  0.23847699  0.45551310  0.39750922  1  0  0.216038  0  3.793227  0  0  0.212407  0  4.042515  0  0  0.217217  0  4.064438  0  0  0.101844  0.208273  0  4.02771  0
C  C53  1  0.71765770  0.53880281  0.72516342  1  0  0.02308  0  3.676411  0  0  -0.010023  0  3.926409  0  0  -0.006969  0  3.94434  0  0  0.041049  -0.01125  0  3.912685  0
C  C54  1  0.28233713  0.46120064  0.27483764  1  0  0.023177  0  3.676423  0  0  -0.009966  0  3.926377  0  0  -0.006913  0  3.944312  0  0  0.041075  -0.011198  0  3.912667  0
C  C55  1  0.50509251  0.37413875  0.75117950  1  0  0.090421  0  3.720387  0  0  0.057771  0  3.976777  0  0  0.062332  0  3.996288  0  0  0.029104  0.054943  0  3.963093  0
C  C56  1  0.49490607  0.62586239  0.24881795  1  0  0.090501  0  3.720408  0  0  0.057851  0  3.976781  0  0  0.062414  0  3.99629  0  0  0.029146  0.055034  0  3.963082  0
C  C57  1  0.54499479  0.36872430  0.63127989  1  0  -0.103005  0  3.741781  0  0  -0.114392  0  3.995979  0  0  -0.119719  0  4.018522  0  0  -0.086553  -0.110788  0  3.980504  0
C  C58  1  0.45500500  0.63127909  0.36871783  1  0  -0.102872  0  3.74175  0  0  -0.114278  0  3.995948  0  0  -0.119606  0  4.018488  0  0  -0.086536  -0.110674  0  3.980472  0
C  C59  1  0.67403358  0.45575765  0.55491629  1  0  -0.105005  0  3.680693  0  0  -0.131537  0  3.934158  0  0  -0.132166  0  3.952055  0  0  -0.078147  -0.131051  0  3.922613  0
C  C60  1  0.32596743  0.54424800  0.44508169  1  0  -0.105121  0  3.680712  0  0  -0.131626  0  3.934136  0  0  -0.132255  0  3.952034  0  0  -0.078131  -0.13114  0  3.922592  0
N  N61  1  0.36254603  0.72848025  0.92221504  1  0  -0.290032  0  3.264615  0  0  -0.217824  0  3.526128  0  0  -0.234411  0  3.546199  0  0  -0.317323  -0.205688  0  3.513556  0
N  N62  1  0.63745246  0.27151422  0.07778603  1  0  -0.290263  0  3.264812  0  0  -0.218061  0  3.526349  0  0  -0.234648  0  3.54642  0  0  -0.317449  -0.205933  0  3.513793  0
N  N63  1  0.24426344  0.88342471  0.64740010  1  0  -0.43612  0  3.382221  0  0  -0.384461  0  3.622126  0  0  -0.406289  0  3.631764  0  0  -0.396427  -0.369468  0  3.615212  0
N  N64  1  0.75574492  0.11657418  0.35259693  1  0  -0.436198  0  3.382129  0  0  -0.384574  0  3.621996  0  0  -0.406408  0  3.631641  0  0  -0.396466  -0.369584  0  3.615079  0
N  N65  1  0.11821425  0.84552824  0.47139652  1  0  -0.365762  0  3.183979  0  0  -0.334398  0  3.440886  0  0  -0.344511  0  3.45838  0  0  -0.310013  -0.327014  0  3.429415  0
N  N66  1  0.88178795  0.15447182  0.52860302  1  0  -0.36585  0  3.184081  0  0  -0.334456  0  3.440994  0  0  -0.344567  0  3.458488  0  0  -0.310077  -0.327071  0  3.429521  0
N  N67  1  0.88964639  0.63943384  0.53620320  1  0  -0.428748  0  3.416566  0  0  -0.377088  0  3.66153  0  0  -0.39931  0  3.672307  0  0  -0.395604  -0.361315  0  3.654188  0
N  N68  1  0.11035091  0.36057071  0.46379642  1  0  -0.428755  0  3.416642  0  0  -0.377138  0  3.661595  0  0  -0.399344  0  3.672364  0  0  -0.395606  -0.361364  0  3.654253  0
N  N69  1  0.59141153  0.45736438  0.79699128  1  0  -0.30799  0  3.293461  0  0  -0.231333  0  3.553119  0  0  -0.249006  0  3.575761  0  0  -0.327924  -0.218514  0  3.536931  0
N  N70  1  0.40858334  0.54263904  0.20300809  1  0  -0.308055  0  3.293412  0  0  -0.231405  0  3.553101  0  0  -0.249078  0  3.575742  0  0  -0.327923  -0.218589  0  3.536914  0
Cl  Cl71  1  0.75436568  0.66223900  0.97157719  1  0  -0.622434  0  0.795033  0  0  -0.570015  0  1.016973  0  0  -0.58507  0  0.997796  0  0  -0.36822  -0.558389  0  1.032212  0
Cl  Cl72  1  0.24563161  0.33775658  0.02842306  1  0  -0.622445  0  0.795034  0  0  -0.570021  0  1.016986  0  0  -0.58508  0  0.997805  0  0  -0.368222  -0.558395  0  1.032231  0
O  O73  1  0.35817897  0.10972991  0.54023499  1  0  -0.520915  0  1.942719  0  0  -0.480305  0  2.165376  0  0  -0.500129  0  2.161265  0  0  -0.28381  -0.466759  0  2.167877  0
O  O74  1  0.64181952  0.89027355  0.45976630  1  0  -0.520904  0  1.942816  0  0  -0.480293  0  2.165436  0  0  -0.500114  0  2.161322  0  0  -0.28381  -0.466752  0  2.167939  0
O  O75  1  0.88483095  0.64045320  0.34197060  1  0  -0.513696  0  1.891768  0  0  -0.474042  0  2.100381  0  0  -0.492838  0  2.09476  0  0  -0.288419  -0.460844  0  2.103583  0
O  O76  1  0.11516762  0.35955019  0.65802732  1  0  -0.51369  0  1.891835  0  0  -0.474056  0  2.10045  0  0  -0.492851  0  2.094841  0  0  -0.288421  -0.460862  0  2.103649  0
