# generated using pymatgen
data_TbH8C8NO8
_symmetry_space_group_name_H-M   'P 1'
_cell_length_a   9.93785895
_cell_length_b   10.12923383
_cell_length_c   12.73564976
_cell_angle_alpha   108.49204337
_cell_angle_beta   89.99989912
_cell_angle_gamma   119.37709974
_symmetry_Int_Tables_number   1
_chemical_formula_structural   TbH8C8NO8
_chemical_formula_sum   'Tb4 H32 C32 N4 O32'
_cell_volume   1040.52664636
_cell_formula_units_Z   4
loop_
 _symmetry_equiv_pos_site_id
 _symmetry_equiv_pos_as_xyz
  1  'x, y, z'
loop_
 _atom_site_type_symbol
 _atom_site_label
 _atom_site_symmetry_multiplicity
 _atom_site_fract_x
 _atom_site_fract_y
 _atom_site_fract_z
 _atom_site_occupancy
 _atom_site_hle17_bader_spin_density
 _atom_site_hle17_ddec_charge
 _atom_site_hle17_ddec_spin_density
 _atom_site_hle17_ddec_sum_bond_order
 _atom_site_hle17_magmom
 _atom_site_hse06_10hf_bader_spin_density
 _atom_site_hse06_10hf_ddec_charge
 _atom_site_hse06_10hf_ddec_spin_density
 _atom_site_hse06_10hf_ddec_sum_bond_order
 _atom_site_hse06_10hf_magmom
 _atom_site_hse06_bader_spin_density
 _atom_site_hse06_ddec_charge
 _atom_site_hse06_ddec_spin_density
 _atom_site_hse06_ddec_sum_bond_order
 _atom_site_hse06_magmom
 _atom_site_pbe_bader_spin_density
 _atom_site_pbe_cm5_charge
 _atom_site_pbe_ddec_charge
 _atom_site_pbe_ddec_spin_density
 _atom_site_pbe_ddec_sum_bond_order
 _atom_site_pbe_magmom
Tb  Tb0  1  0.14144868  0.35292073  0.42650608  1  0  2.26589  0  1.628127  0  0  2.118167  0  2.102055  0  0  2.236942  0  1.922749  0  0  1.491736  2.085136  0  2.131688  0
Tb  Tb1  1  0.78852337  0.64707899  0.07349411  1  0  2.26586  0  1.628164  0  0  2.118112  0  2.102147  0  0  2.236909  0  1.922797  0  0  1.491714  2.085074  0  2.131784  0
Tb  Tb2  1  0.85855772  0.64708043  0.57349554  1  0  2.265869  0  1.628172  0  0  2.118131  0  2.102144  0  0  2.236919  0  1.922802  0  0  1.49173  2.085094  0  2.131784  0
Tb  Tb3  1  0.21147298  0.35292218  0.92650673  1  0  2.265874  0  1.628123  0  0  2.11814  0  2.102072  0  0  2.236923  0  1.922743  0  0  1.491741  2.085105  0  2.131704  0
H  H4  1  0.26153845  0.03969422  0.63558222  1  0  0.122971  0  0.942365  0  0  0.132803  0  1.000738  0  0  0.13612  0  0.999125  0  0  0.119851  0.130408  0  1.001923  0
H  H5  1  0.22184016  0.96029918  0.86441258  1  0  0.122994  0  0.942368  0  0  0.132799  0  1.000782  0  0  0.136114  0  0.999172  0  0  0.119852  0.130404  0  1.001965  0
H  H6  1  0.73845789  0.96030091  0.36441392  1  0  0.12298  0  0.942352  0  0  0.132805  0  1.000738  0  0  0.136122  0  0.999124  0  0  0.119839  0.13041  0  1.001921  0
H  H7  1  0.77815639  0.03969838  0.13558419  1  0  0.122986  0  0.942366  0  0  0.132813  0  1.000748  0  0  0.13613  0  0.999134  0  0  0.119842  0.130417  0  1.001931  0
H  H8  1  0.55480824  0.83082296  0.59280431  1  0  0.114623  0  0.941198  0  0  0.124143  0  1.001207  0  0  0.127111  0  1.000115  0  0  0.114874  0.121993  0  1.002055  0
H  H9  1  0.72398407  0.16918033  0.90719249  1  0  0.1146  0  0.941218  0  0  0.124181  0  1.00117  0  0  0.127108  0  1.000128  0  0  0.114889  0.122042  0  1.002003  0
H  H10  1  0.44519478  0.16917948  0.40719214  1  0  0.114576  0  0.941242  0  0  0.124157  0  1.001197  0  0  0.127084  0  1.000154  0  0  0.114869  0.12202  0  1.002029  0
H  H11  1  0.27601593  0.83082210  0.09280474  1  0  0.114611  0  0.941249  0  0  0.124146  0  1.001247  0  0  0.1271  0  1.000173  0  0  0.114872  0.121994  0  1.002096  0
H  H12  1  0.50755808  0.31344903  0.68279152  1  0  0.091602  0  0.948591  0  0  0.100493  0  1.010973  0  0  0.103797  0  1.007894  0  0  0.122721  0.09813  0  1.013002  0
H  H13  1  0.19410809  0.68654858  0.81720735  1  0  0.091603  0  0.948591  0  0  0.100514  0  1.010945  0  0  0.103812  0  1.007882  0  0  0.122721  0.098151  0  1.012973  0
H  H14  1  0.49243908  0.68654973  0.31720712  1  0  0.091603  0  0.948599  0  0  0.100498  0  1.010962  0  0  0.103799  0  1.007892  0  0  0.122724  0.098135  0  1.01299  0
H  H15  1  0.80589108  0.31345018  0.18279130  1  0  0.091638  0  0.948528  0  0  0.100499  0  1.010936  0  0  0.103803  0  1.007859  0  0  0.122722  0.098135  0  1.012964  0
H  H16  1  0.78870549  0.11327524  0.64255186  1  0  0.085257  0  0.941753  0  0  0.095428  0  1.002918  0  0  0.098  0  1.000884  0  0  0.119542  0.09355  0  1.004068  0
H  H17  1  0.67543191  0.88672873  0.85744655  1  0  0.085254  0  0.941759  0  0  0.095406  0  1.00294  0  0  0.097976  0  1.00091  0  0  0.119539  0.093526  0  1.004089  0
H  H18  1  0.21129451  0.88672720  0.35744537  1  0  0.085221  0  0.941786  0  0  0.095391  0  1.002954  0  0  0.097962  0  1.000922  0  0  0.119528  0.093512  0  1.004103  0
H  H19  1  0.32456909  0.11327371  0.14255068  1  0  0.085263  0  0.941711  0  0  0.09542  0  1.002889  0  0  0.097992  0  1.000855  0  0  0.119537  0.093541  0  1.004038  0
H  H20  1  0.20532965  0.60278928  0.31715412  1  0  0.380185  0  0.949428  0  0  0.336375  0  1.035023  0  0  0.348548  0  1.018341  0  0  0.283833  0.327861  0  1.046755  0
H  H21  1  0.60253538  0.39720595  0.18284343  1  0  0.380226  0  0.949317  0  0  0.336404  0  1.034964  0  0  0.348578  0  1.018281  0  0  0.283853  0.327887  0  1.046701  0
H  H22  1  0.79467071  0.39720582  0.68284437  1  0  0.380162  0  0.949513  0  0  0.336387  0  1.035002  0  0  0.34856  0  1.01832  0  0  0.283847  0.327873  0  1.046735  0
H  H23  1  0.39746117  0.60279160  0.81715412  1  0  0.380203  0  0.949308  0  0  0.336385  0  1.034986  0  0  0.348559  0  1.018303  0  0  0.283847  0.327871  0  1.046719  0
H  H24  1  0.07878315  0.43039689  0.22504126  1  0  0.434949  0  0.843912  0  0  0.40755  0  0.911272  0  0  0.418631  0  0.894992  0  0  0.304639  0.399935  0  0.922555  0
H  H25  1  0.64838050  0.56959857  0.27495641  1  0  0.434963  0  0.843906  0  0  0.407564  0  0.911257  0  0  0.418645  0  0.894976  0  0  0.304653  0.399949  0  0.922541  0
H  H26  1  0.92121782  0.56959944  0.77495676  1  0  0.434936  0  0.843915  0  0  0.407535  0  0.911292  0  0  0.418615  0  0.895012  0  0  0.304641  0.39992  0  0.922575  0
H  H27  1  0.35161704  0.43039896  0.72504271  1  0  0.434917  0  0.843956  0  0  0.407521  0  0.911312  0  0  0.418602  0  0.895032  0  0  0.304639  0.399906  0  0.922594  0
H  H28  1  0.06696217  0.28739525  0.64463324  1  0  0.453682  0  0.835009  0  0  0.424356  0  0.894905  0  0  0.435955  0  0.877878  0  0  0.307605  0.416567  0  0.906448  0
H  H29  1  0.77956819  0.71260436  0.85536683  1  0  0.453703  0  0.834992  0  0  0.424376  0  0.894889  0  0  0.435975  0  0.877863  0  0  0.307625  0.416586  0  0.906433  0
H  H30  1  0.93303598  0.71260349  0.35536697  1  0  0.453656  0  0.835039  0  0  0.42434  0  0.894916  0  0  0.435938  0  0.877891  0  0  0.307614  0.416551  0  0.906458  0
H  H31  1  0.22043197  0.28739438  0.14463338  1  0  0.453701  0  0.834992  0  0  0.424374  0  0.89489  0  0  0.435973  0  0.877864  0  0  0.307625  0.416583  0  0.906435  0
H  H32  1  0.00915083  0.41029381  0.64261509  1  0  0.445647  0  0.840115  0  0  0.417146  0  0.899652  0  0  0.428312  0  0.883201  0  0  0.308093  0.409595  0  0.911004  0
H  H33  1  0.59885506  0.58970529  0.85738345  1  0  0.445631  0  0.840125  0  0  0.417131  0  0.899661  0  0  0.428295  0  0.883212  0  0  0.308064  0.409579  0  0.911014  0
H  H34  1  0.99084874  0.58970374  0.35738247  1  0  0.445611  0  0.840159  0  0  0.417111  0  0.899695  0  0  0.428276  0  0.883245  0  0  0.308066  0.409559  0  0.911048  0
H  H35  1  0.40114471  0.41029468  0.14261551  1  0  0.445622  0  0.840133  0  0  0.417121  0  0.899671  0  0  0.428285  0  0.883222  0  0  0.308077  0.409568  0  0.911024  0
C  C36  1  0.99834045  0.96993579  0.30017663  1  0  0.552478  0  3.941944  0  0  0.506115  0  4.249208  0  0  0.535307  0  4.247225  0  0  0.217235  0.486101  0  4.254708  0
C  C37  1  0.02841005  0.03007209  0.19983266  1  0  0.552479  0  3.942002  0  0  0.506106  0  4.249261  0  0  0.535314  0  4.247262  0  0  0.217202  0.486089  0  4.254764  0
C  C38  1  0.00166254  0.03007261  0.69983156  1  0  0.552499  0  3.942037  0  0  0.50612  0  4.24931  0  0  0.535329  0  4.247312  0  0  0.217217  0.486106  0  4.254813  0
C  C39  1  0.97159394  0.96993630  0.80017710  1  0  0.552469  0  3.941946  0  0  0.506109  0  4.249206  0  0  0.535294  0  4.247235  0  0  0.217226  0.486093  0  4.254707  0
C  C40  1  0.24604466  0.74855657  0.58275622  1  0  0.73368  0  3.855994  0  0  0.685485  0  4.145753  0  0  0.722287  0  4.13639  0  0  0.242705  0.661005  0  4.153818  0
C  C41  1  0.49747856  0.25144095  0.91723946  1  0  0.733774  0  3.855936  0  0  0.685568  0  4.145641  0  0  0.722387  0  4.136247  0  0  0.242714  0.661088  0  4.153702  0
C  C42  1  0.75396257  0.25144221  0.41724008  1  0  0.733817  0  3.85592  0  0  0.685603  0  4.145632  0  0  0.722428  0  4.136229  0  0  0.242728  0.661124  0  4.153696  0
C  C43  1  0.50251235  0.74855539  0.08275700  1  0  0.733619  0  3.856127  0  0  0.685446  0  4.145794  0  0  0.722263  0  4.13641  0  0  0.242683  0.660966  0  4.153853  0
C  C44  1  0.39030795  0.91444988  0.61188527  1  0  -0.029214  0  3.73006  0  0  -0.01046  0  3.957281  0  0  -0.013736  0  3.977041  0  0  0.004011  -0.007986  0  3.94319  0
C  C45  1  0.47585359  0.08555213  0.88811462  1  0  -0.029251  0  3.730164  0  0  -0.010362  0  3.957202  0  0  -0.013636  0  3.976934  0  0  0.004034  -0.007893  0  3.94312  0
C  C46  1  0.60969746  0.08555130  0.38811557  1  0  -0.029233  0  3.730167  0  0  -0.010345  0  3.957207  0  0  -0.01362  0  3.976937  0  0  0.004041  -0.007879  0  3.943132  0
C  C47  1  0.52414276  0.91444906  0.11188465  1  0  -0.029288  0  3.730222  0  0  -0.010456  0  3.957316  0  0  -0.013733  0  3.977063  0  0  0.00397  -0.007987  0  3.943229  0
C  C48  1  0.37645537  0.05165810  0.63743227  1  0  -0.108213  0  3.689429  0  0  -0.130068  0  3.938317  0  0  -0.133831  0  3.957472  0  0  -0.068993  -0.127352  0  3.924976  0
C  C49  1  0.32479645  0.94834197  0.86256409  1  0  -0.108186  0  3.689536  0  0  -0.130069  0  3.938379  0  0  -0.133829  0  3.957534  0  0  -0.068987  -0.127352  0  3.925037  0
C  C50  1  0.62354341  0.94834190  0.36256434  1  0  -0.108195  0  3.689631  0  0  -0.130092  0  3.93845  0  0  -0.133853  0  3.957603  0  0  -0.068987  -0.127375  0  3.925114  0
C  C51  1  0.67520010  0.05165557  0.13743424  1  0  -0.108221  0  3.689645  0  0  -0.13011  0  3.93849  0  0  -0.133872  0  3.957644  0  0  -0.069004  -0.127391  0  3.925143  0
C  C52  1  0.54000665  0.93515530  0.61351048  1  0  -0.116686  0  3.725783  0  0  -0.139217  0  3.97654  0  0  -0.14331  0  3.998168  0  0  -0.072908  -0.136593  0  3.961915  0
C  C53  1  0.60485097  0.06484717  0.88648542  1  0  -0.116691  0  3.725776  0  0  -0.139332  0  3.976523  0  0  -0.143394  0  3.998165  0  0  -0.072939  -0.136717  0  3.96189  0
C  C54  1  0.45999376  0.06484594  0.38648410  1  0  -0.116676  0  3.725773  0  0  -0.139315  0  3.976521  0  0  -0.143376  0  3.998162  0  0  -0.07293  -0.136699  0  3.96189  0
C  C55  1  0.39514681  0.93515283  0.11351119  1  0  -0.116657  0  3.725829  0  0  -0.139248  0  3.976558  0  0  -0.143329  0  3.998193  0  0  -0.072917  -0.136622  0  3.961931  0
C  C56  1  0.51190663  0.20307101  0.66370883  1  0  0.128142  0  3.673949  0  0  0.095954  0  3.931895  0  0  0.101058  0  3.947505  0  0  0.051174  0.092642  0  3.920678  0
C  C57  1  0.30883514  0.79692994  0.83628846  1  0  0.128094  0  3.673981  0  0  0.095902  0  3.931926  0  0  0.101004  0  3.947534  0  0  0.051169  0.092587  0  3.920709  0
C  C58  1  0.48809114  0.79692899  0.33628856  1  0  0.128087  0  3.674095  0  0  0.095923  0  3.932012  0  0  0.101026  0  3.947622  0  0  0.051175  0.092611  0  3.920793  0
C  C59  1  0.69116403  0.20306881  0.16371097  1  0  0.12816  0  3.673985  0  0  0.096005  0  3.931903  0  0  0.101109  0  3.947514  0  0  0.051208  0.092691  0  3.920681  0
C  C60  1  0.66981487  0.09163933  0.64154185  1  0  0.115933  0  3.704521  0  0  0.085516  0  3.960775  0  0  0.090101  0  3.978587  0  0  0.048434  0.082693  0  3.948412  0
C  C61  1  0.57817608  0.90836406  0.85845500  1  0  0.115899  0  3.704537  0  0  0.085523  0  3.960793  0  0  0.090109  0  3.978595  0  0  0.048415  0.082699  0  3.948429  0
C  C62  1  0.33018574  0.90836434  0.35845413  1  0  0.115899  0  3.704504  0  0  0.085497  0  3.960775  0  0  0.090082  0  3.978576  0  0  0.048397  0.082675  0  3.948411  0
C  C63  1  0.42182371  0.09163595  0.14154161  1  0  0.115911  0  3.704516  0  0  0.085527  0  3.96074  0  0  0.090111  0  3.978551  0  0  0.048426  0.0827  0  3.948373  0
C  C64  1  0.48735181  0.48434399  0.55597067  1  0  0.551025  0  3.949994  0  0  0.50488  0  4.255373  0  0  0.534573  0  4.252759  0  0  0.213932  0.484593  0  4.261651  0
C  C65  1  0.00300474  0.51565662  0.94403226  1  0  0.550972  0  3.949971  0  0  0.504792  0  4.255403  0  0  0.534485  0  4.25279  0  0  0.213914  0.484506  0  4.261676  0
C  C66  1  0.51265359  0.51565718  0.44403095  1  0  0.550966  0  3.949952  0  0  0.504762  0  4.255412  0  0  0.534454  0  4.2528  0  0  0.213917  0.484475  0  4.261688  0
C  C67  1  0.99699237  0.48434207  0.05597265  1  0  0.550989  0  3.950114  0  0  0.504816  0  4.255528  0  0  0.534509  0  4.252917  0  0  0.213873  0.484529  0  4.261801  0
N  N68  1  0.65591391  0.22277610  0.66630901  1  0  -0.28909  0  3.193783  0  0  -0.223783  0  3.438268  0  0  -0.236684  0  3.453659  0  0  -0.304009  -0.214563  0  3.427112  0
N  N69  1  0.43313637  0.77722527  0.83368979  1  0  -0.289071  0  3.193691  0  0  -0.223766  0  3.438224  0  0  -0.236666  0  3.453618  0  0  -0.304015  -0.214547  0  3.427066  0
N  N70  1  0.34408748  0.77722510  0.33368948  1  0  -0.289032  0  3.19366  0  0  -0.223731  0  3.438175  0  0  -0.236631  0  3.453569  0  0  -0.303994  -0.214513  0  3.427017  0
N  N71  1  0.56686381  0.22277350  0.16630729  1  0  -0.289156  0  3.193812  0  0  -0.223824  0  3.438279  0  0  -0.236725  0  3.453673  0  0  -0.304017  -0.214602  0  3.427119  0
O  O72  1  0.05964499  0.07645813  0.39798397  1  0  -0.634854  0  1.998425  0  0  -0.593343  0  2.243042  0  0  -0.623511  0  2.229012  0  0  -0.361626  -0.578894  0  2.249819  0
O  O73  1  0.98318739  0.92354364  0.10202295  1  0  -0.634816  0  1.998307  0  0  -0.593307  0  2.242915  0  0  -0.62348  0  2.228876  0  0  -0.361594  -0.578856  0  2.249689  0
O  O74  1  0.94035635  0.92354298  0.60202313  1  0  -0.634825  0  1.998313  0  0  -0.593313  0  2.242931  0  0  -0.623484  0  2.22889  0  0  -0.361598  -0.578863  0  2.249707  0
O  O75  1  0.01681255  0.07645868  0.89798447  1  0  -0.634868  0  1.998413  0  0  -0.593355  0  2.24303  0  0  -0.623521  0  2.229  0  0  -0.361632  -0.578906  0  2.249808  0
O  O76  1  0.25962274  0.62672372  0.53394939  1  0  -0.731656  0  2.055617  0  0  -0.6802  0  2.317518  0  0  -0.717299  0  2.303924  0  0  -0.398302  -0.661545  0  2.32334  0
O  O77  1  0.63289234  0.37327581  0.96604671  1  0  -0.731599  0  2.055459  0  0  -0.680183  0  2.317429  0  0  -0.717293  0  2.303824  0  0  -0.398277  -0.66153  0  2.323249  0
O  O78  1  0.74038409  0.37327628  0.46604722  1  0  -0.73162  0  2.055466  0  0  -0.680199  0  2.317433  0  0  -0.717308  0  2.303824  0  0  -0.39828  -0.661544  0  2.323255  0
O  O79  1  0.36710242  0.62672419  0.03394990  1  0  -0.731573  0  2.055676  0  0  -0.680139  0  2.317566  0  0  -0.717243  0  2.303963  0  0  -0.398271  -0.661485  0  2.323385  0
O  O80  1  0.34645465  0.39631042  0.56493000  1  0  -0.650803  0  2.043486  0  0  -0.597343  0  2.281587  0  0  -0.629172  0  2.270162  0  0  -0.343989  -0.581046  0  2.287491  0
O  O81  1  0.95014003  0.60369639  0.93507554  1  0  -0.650887  0  2.043351  0  0  -0.597417  0  2.281471  0  0  -0.629249  0  2.270046  0  0  -0.34405  -0.58112  0  2.287373  0
O  O82  1  0.65355720  0.60369560  0.43507365  1  0  -0.650895  0  2.043359  0  0  -0.59742  0  2.281493  0  0  -0.62925  0  2.270069  0  0  -0.344045  -0.581121  0  2.287395  0
O  O83  1  0.04985713  0.39631446  0.06493327  1  0  -0.650766  0  2.043603  0  0  -0.597297  0  2.281714  0  0  -0.629123  0  2.270288  0  0  -0.34394  -0.581002  0  2.287616  0
O  O84  1  0.09853117  0.18372656  0.22671274  1  0  -0.668267  0  2.075695  0  0  -0.612448  0  2.317702  0  0  -0.644799  0  2.305967  0  0  -0.344098  -0.595448  0  2.323583  0
O  O85  1  0.91479369  0.81627287  0.27329281  1  0  -0.66824  0  2.075511  0  0  -0.612435  0  2.317525  0  0  -0.644785  0  2.305796  0  0  -0.344079  -0.595433  0  2.323399  0
O  O86  1  0.90147762  0.81627334  0.77329326  1  0  -0.668222  0  2.075515  0  0  -0.612412  0  2.31753  0  0  -0.644761  0  2.305803  0  0  -0.34407  -0.59541  0  2.323404  0
O  O87  1  0.08519598  0.18372703  0.72671319  1  0  -0.668276  0  2.075733  0  0  -0.612464  0  2.317749  0  0  -0.644813  0  2.306009  0  0  -0.344103  -0.595464  0  2.323627  0
O  O88  1  0.39103598  0.45129986  0.37053142  1  0  -0.666643  0  2.063574  0  0  -0.622447  0  2.317996  0  0  -0.654587  0  2.306605  0  0  -0.375181  -0.606781  0  2.323765  0
O  O89  1  0.93972864  0.54869987  0.12947478  1  0  -0.666741  0  2.063506  0  0  -0.622547  0  2.317912  0  0  -0.654692  0  2.306523  0  0  -0.375206  -0.60687  0  2.323657  0
O  O90  1  0.60897343  0.54870127  0.62947333  1  0  -0.66677  0  2.06347  0  0  -0.622584  0  2.317858  0  0  -0.654728  0  2.306467  0  0  -0.375226  -0.606911  0  2.323615  0
O  O91  1  0.06026444  0.45129878  0.87053326  1  0  -0.666656  0  2.06364  0  0  -0.622462  0  2.318055  0  0  -0.654602  0  2.306661  0  0  -0.375172  -0.606789  0  2.323803  0
O  O92  1  0.87944972  0.25813039  0.39093653  1  0  -0.753541  0  2.095117  0  0  -0.701242  0  2.364659  0  0  -0.739827  0  2.350649  0  0  -0.411397  -0.682706  0  2.371859  0
O  O93  1  0.62131266  0.74186406  0.10906192  1  0  -0.753395  0  2.095089  0  0  -0.701093  0  2.364596  0  0  -0.739681  0  2.350594  0  0  -0.411346  -0.682551  0  2.371778  0
O  O94  1  0.12055284  0.74186107  0.60906024  1  0  -0.75341  0  2.095075  0  0  -0.701094  0  2.364595  0  0  -0.739672  0  2.3506  0  0  -0.411375  -0.682549  0  2.371776  0
O  O95  1  0.37868106  0.25812984  0.89093469  1  0  -0.75353  0  2.095117  0  0  -0.70123  0  2.364646  0  0  -0.739813  0  2.350639  0  0  -0.411405  -0.68269  0  2.371832  0
O  O96  1  0.11105965  0.48743494  0.30762563  1  0  -0.913146  0  1.937422  0  0  -0.857198  0  2.157332  0  0  -0.886286  0  2.118827  0  0  -0.626253  -0.843161  0  2.181047  0
O  O97  1  0.62361828  0.51256170  0.19237312  1  0  -0.91317  0  1.937281  0  0  -0.857214  0  2.157242  0  0  -0.886301  0  2.118732  0  0  -0.626293  -0.843175  0  2.180959  0
O  O98  1  0.88894392  0.51256257  0.69237505  1  0  -0.913125  0  1.93741  0  0  -0.857181  0  2.1573  0  0  -0.886267  0  2.118794  0  0  -0.626273  -0.843144  0  2.181015  0
O  O99  1  0.37637988  0.48743706  0.80762553  1  0  -0.913109  0  1.937269  0  0  -0.857155  0  2.157247  0  0  -0.88624  0  2.118737  0  0  -0.626273  -0.843118  0  2.180962  0
O  O100  1  0.04712149  0.34029669  0.59799607  1  0  -0.91393  0  1.850366  0  0  -0.866625  0  2.046934  0  0  -0.89368  0  2.006552  0  0  -0.643574  -0.854096  0  2.070411  0
O  O101  1  0.70682428  0.65970441  0.90200445  1  0  -0.913952  0  1.850393  0  0  -0.866638  0  2.046956  0  0  -0.893695  0  2.006576  0  0  -0.643571  -0.85411  0  2.070432  0
O  O102  1  0.95288190  0.65970447  0.40200555  1  0  -0.913887  0  1.850445  0  0  -0.866589  0  2.047029  0  0  -0.893644  0  2.00665  0  0  -0.643584  -0.854061  0  2.070504  0
O  O103  1  0.29317509  0.34029678  0.09799482  1  0  -0.913928  0  1.850372  0  0  -0.866615  0  2.046931  0  0  -0.89367  0  2.006553  0  0  -0.643584  -0.854085  0  2.070412  0
