# generated using pymatgen
data_NaH17C18(NO)10
_symmetry_space_group_name_H-M   'P 1'
_cell_length_a   9.17085800
_cell_length_b   11.09660079
_cell_length_c   11.80314096
_cell_angle_alpha   73.76549501
_cell_angle_beta   80.22385111
_cell_angle_gamma   90.00722197
_symmetry_Int_Tables_number   1
_chemical_formula_structural   NaH17C18(NO)10
_chemical_formula_sum   'Na2 H34 C36 N20 O20'
_cell_volume   1135.06980488
_cell_formula_units_Z   2
loop_
 _symmetry_equiv_pos_site_id
 _symmetry_equiv_pos_as_xyz
  1  'x, y, z'
loop_
 _atom_site_type_symbol
 _atom_site_label
 _atom_site_symmetry_multiplicity
 _atom_site_fract_x
 _atom_site_fract_y
 _atom_site_fract_z
 _atom_site_occupancy
 _atom_site_hle17_bader_spin_density
 _atom_site_hle17_ddec_charge
 _atom_site_hle17_ddec_spin_density
 _atom_site_hle17_ddec_sum_bond_order
 _atom_site_hle17_magmom
 _atom_site_hse06_10hf_bader_spin_density
 _atom_site_hse06_10hf_ddec_charge
 _atom_site_hse06_10hf_ddec_spin_density
 _atom_site_hse06_10hf_ddec_sum_bond_order
 _atom_site_hse06_10hf_magmom
 _atom_site_hse06_bader_spin_density
 _atom_site_hse06_ddec_charge
 _atom_site_hse06_ddec_spin_density
 _atom_site_hse06_ddec_sum_bond_order
 _atom_site_hse06_magmom
 _atom_site_pbe_bader_spin_density
 _atom_site_pbe_cm5_charge
 _atom_site_pbe_ddec_charge
 _atom_site_pbe_ddec_spin_density
 _atom_site_pbe_ddec_sum_bond_order
 _atom_site_pbe_magmom
Na  Na0  1  0.90793101  0.60852479  0.91433007  1  0  0.911822  0  0.356607  0  0  0.874016  0  0.501265  0  0  0.883226  0  0.481075  0  0  0.661938  0.867037  0  0.516298  0
Na  Na1  1  0.09206994  0.39147143  0.08566822  1  0  0.911821  0  0.356598  0  0  0.873978  0  0.501304  0  0  0.883222  0  0.481041  0  0  0.661897  0.867008  0  0.516334  0
H  H2  1  0.09792660  0.67327070  0.05395173  1  0  0.402735  0  0.91137  0  0  0.376797  0  0.970332  0  0  0.387199  0  0.954714  0  0  0.278616  0.369308  0  0.981659  0
H  H3  1  0.90207234  0.32672926  0.94604671  1  0  0.40274  0  0.91136  0  0  0.376801  0  0.970326  0  0  0.387202  0  0.954708  0  0  0.278604  0.36931  0  0.981655  0
H  H4  1  0.01029876  0.79297428  0.05652574  1  0  0.377699  0  0.945218  0  0  0.34104  0  1.021646  0  0  0.351217  0  1.006772  0  0  0.270891  0.334062  0  1.031777  0
H  H5  1  0.98970232  0.20702471  0.94347690  1  0  0.377648  0  0.94528  0  0  0.340988  0  1.021726  0  0  0.351164  0  1.006855  0  0  0.270852  0.334008  0  1.031861  0
H  H6  1  0.78875749  0.42824008  0.78131021  1  0  0.401045  0  0.901312  0  0  0.364928  0  0.976453  0  0  0.375014  0  0.961646  0  0  0.2882  0.357926  0  0.986706  0
H  H7  1  0.21124833  0.57176456  0.21869122  1  0  0.400993  0  0.901315  0  0  0.364887  0  0.976496  0  0  0.374971  0  0.96169  0  0  0.288196  0.357884  0  0.986751  0
H  H8  1  0.69890995  0.39840287  0.91554863  1  0  0.418914  0  0.88581  0  0  0.386549  0  0.951686  0  0  0.396877  0  0.936588  0  0  0.291713  0.379046  0  0.962753  0
H  H9  1  0.30108798  0.60159897  0.08444946  1  0  0.418869  0  0.88587  0  0  0.386531  0  0.951723  0  0  0.396859  0  0.936623  0  0  0.291689  0.379032  0  0.962785  0
H  H10  1  0.57398475  0.40142176  0.12354342  1  0  0.405617  0  0.888354  0  0  0.371263  0  0.968771  0  0  0.385274  0  0.952087  0  0  0.303409  0.361437  0  0.978874  0
H  H11  1  0.42601421  0.59857825  0.87644992  1  0  0.405648  0  0.888324  0  0  0.371327  0  0.968709  0  0  0.385336  0  0.951998  0  0  0.30345  0.361478  0  0.97886  0
H  H12  1  0.89015047  0.87210205  0.45969157  1  0  0.134997  0  0.953193  0  0  0.133131  0  1.034048  0  0  0.136896  0  1.030711  0  0  0.123264  0.130541  0  1.037431  0
H  H13  1  0.10985181  0.12789882  0.54031214  1  0  0.135127  0  0.952995  0  0  0.133238  0  1.033907  0  0  0.137006  0  1.030566  0  0  0.123273  0.130648  0  1.037276  0
H  H14  1  0.04626723  0.91013877  0.51976616  1  0  0.126171  0  0.91357  0  0  0.136818  0  0.977253  0  0  0.139  0  0.975901  0  0  0.130686  0.135253  0  0.979125  0
H  H15  1  0.95373401  0.08986307  0.48023320  1  0  0.126046  0  0.913782  0  0  0.136741  0  0.977425  0  0  0.138927  0  0.976072  0  0  0.130648  0.135177  0  0.979299  0
H  H16  1  0.72546301  0.76435221  0.75925131  1  0  0.415922  0  0.867433  0  0  0.384895  0  0.945233  0  0  0.397137  0  0.931089  0  0  0.314822  0.376312  0  0.954605  0
H  H17  1  0.27453239  0.23564397  0.24075025  1  0  0.415866  0  0.867482  0  0  0.38481  0  0.945335  0  0  0.39705  0  0.931225  0  0  0.314789  0.376225  0  0.954716  0
H  H18  1  0.54488805  0.68352230  0.48140024  1  0  0.086774  0  0.927056  0  0  0.091556  0  0.991785  0  0  0.095025  0  0.98905  0  0  0.116721  0.089688  0  0.992525  0
H  H19  1  0.45511222  0.31648144  0.51859452  1  0  0.086753  0  0.927022  0  0  0.091522  0  0.991756  0  0  0.09499  0  0.989022  0  0  0.116733  0.089661  0  0.99251  0
H  H20  1  0.50021618  0.57064836  0.33466466  1  0  0.117887  0  0.960256  0  0  0.119939  0  1.032904  0  0  0.124029  0  1.030082  0  0  0.111377  0.116795  0  1.035299  0
H  H21  1  0.49978035  0.42934873  0.66534160  1  0  0.117887  0  0.960279  0  0  0.119999  0  1.032839  0  0  0.124087  0  1.030019  0  0  0.111422  0.116851  0  1.035236  0
H  H22  1  0.97299590  0.54589827  0.24630070  1  0  0.127331  0  0.9782  0  0  0.135725  0  1.041068  0  0  0.139856  0  1.037724  0  0  0.121195  0.132621  0  1.043465  0
H  H23  1  0.02700295  0.45409983  0.75369569  1  0  0.127322  0  0.978213  0  0  0.135694  0  1.04108  0  0  0.139824  0  1.03774  0  0  0.121173  0.132586  0  1.043475  0
H  H24  1  0.44996784  0.09613858  0.45284016  1  0  0.409976  0  0.872008  0  0  0.378932  0  0.947396  0  0  0.391521  0  0.934331  0  0  0.310558  0.370138  0  0.956469  0
H  H25  1  0.55003115  0.90386231  0.54715888  1  0  0.40996  0  0.872044  0  0  0.37891  0  0.947435  0  0  0.3915  0  0.934369  0  0  0.310539  0.370118  0  0.956507  0
H  H26  1  0.70223822  0.18637482  0.18210935  1  0  0.144157  0  0.920735  0  0  0.14622  0  0.992389  0  0  0.149448  0  0.990177  0  0  0.129861  0.144058  0  0.993844  0
H  H27  1  0.29776087  0.81362797  0.81788834  1  0  0.144164  0  0.920756  0  0  0.14627  0  0.992381  0  0  0.149498  0  0.990167  0  0  0.129884  0.144105  0  0.993844  0
H  H28  1  0.82540619  0.20902320  0.27682644  1  0  0.142643  0  0.918157  0  0  0.15046  0  0.982372  0  0  0.153676  0  0.980567  0  0  0.13661  0.148118  0  0.983708  0
H  H29  1  0.17459506  0.79097864  0.72317121  1  0  0.142623  0  0.918179  0  0  0.150463  0  0.98239  0  0  0.153678  0  0.980585  0  0  0.136599  0.148119  0  0.983731  0
H  H30  1  0.33865478  0.95885964  0.21880873  1  0  0.081851  0  0.942915  0  0  0.08059  0  1.018051  0  0  0.084515  0  1.014482  0  0  0.112602  0.078983  0  1.018879  0
H  H31  1  0.66134219  0.04114499  0.78119215  1  0  0.081819  0  0.942955  0  0  0.080583  0  1.018065  0  0  0.084513  0  1.01448  0  0  0.112608  0.07897  0  1.018891  0
H  H32  1  0.31772714  0.81712084  0.09097150  1  0  0.113471  0  0.944202  0  0  0.120301  0  1.009666  0  0  0.124255  0  1.006979  0  0  0.111631  0.117252  0  1.011783  0
H  H33  1  0.68227209  0.18288388  0.90901891  1  0  0.113498  0  0.944179  0  0  0.120302  0  1.009684  0  0  0.124236  0  1.007017  0  0  0.111588  0.117248  0  1.011805  0
H  H34  1  0.79397833  0.81768258  0.02069921  1  0  0.119791  0  0.976916  0  0  0.125232  0  1.046305  0  0  0.129521  0  1.043144  0  0  0.117181  0.121947  0  1.048763  0
H  H35  1  0.20602745  0.18232116  0.97929737  1  0  0.119777  0  0.976965  0  0  0.1252  0  1.046367  0  0  0.129487  0  1.04321  0  0  0.117184  0.121914  0  1.048834  0
C  C36  1  0.71971966  0.48564228  0.18503208  1  0  0.673166  0  3.810535  0  0  0.626738  0  4.100325  0  0  0.659826  0  4.091394  0  0  0.244626  0.604308  0  4.1058  0
C  C37  1  0.28027807  0.51435581  0.81496531  1  0  0.673145  0  3.810607  0  0  0.626711  0  4.100385  0  0  0.659801  0  4.091452  0  0  0.244511  0.604277  0  4.105852  0
C  C38  1  0.97353464  0.83403763  0.51438691  1  0  -0.182782  0  3.632605  0  0  -0.249202  0  3.889563  0  0  -0.249879  0  3.894081  0  0  -0.046171  -0.258287  0  3.884196  0
C  C39  1  0.02646967  0.16595951  0.48561325  1  0  -0.182766  0  3.63267  0  0  -0.249259  0  3.88964  0  0  -0.249942  0  3.894155  0  0  -0.04612  -0.258332  0  3.884277  0
C  C40  1  0.89909966  0.76522054  0.64145465  1  0  0.698439  0  3.813952  0  0  0.643881  0  4.136288  0  0  0.676725  0  4.125408  0  0  0.238944  0.621168  0  4.145068  0
C  C41  1  0.10090037  0.23477939  0.35854789  1  0  0.698504  0  3.813869  0  0  0.644016  0  4.136108  0  0  0.676861  0  4.125221  0  0  0.238997  0.621308  0  4.144901  0
C  C42  1  0.88997651  0.63979846  0.38098920  1  0  0.141737  0  3.818113  0  0  0.145424  0  4.078028  0  0  0.147159  0  4.097651  0  0  0.117057  0.143948  0  4.066086  0
C  C43  1  0.11002373  0.36020438  0.61900071  1  0  0.141535  0  3.818231  0  0  0.145169  0  4.078168  0  0  0.146895  0  4.097806  0  0  0.116865  0.143692  0  4.066212  0
C  C44  1  0.63791088  0.65167408  0.42812544  1  0  0.133883  0  3.692029  0  0  0.11008  0  3.95965  0  0  0.113648  0  3.975455  0  0  0.052508  0.107286  0  3.948755  0
C  C45  1  0.36208934  0.34832872  0.57186956  1  0  0.133952  0  3.691935  0  0  0.110144  0  3.959585  0  0  0.113713  0  3.975389  0  0  0.052455  0.107331  0  3.948728  0
C  C46  1  0.61276850  0.58794149  0.34599999  1  0  -0.103799  0  3.686196  0  0  -0.136007  0  3.945195  0  0  -0.138502  0  3.966064  0  0  -0.069114  -0.133782  0  3.93132  0
C  C47  1  0.38723001  0.41205093  0.65400298  1  0  -0.103794  0  3.686337  0  0  -0.13603  0  3.945274  0  0  -0.138523  0  3.966143  0  0  -0.069152  -0.133811  0  3.931402  0
C  C48  1  0.73501672  0.54973943  0.27868762  1  0  -0.032818  0  3.74535  0  0  -0.011226  0  3.979158  0  0  -0.017097  0  4.001019  0  0  0.000251  -0.00765  0  3.96416  0
C  C49  1  0.26497953  0.45025206  0.72131504  1  0  -0.032932  0  3.745579  0  0  -0.01131  0  3.9793  0  0  -0.017184  0  4.001164  0  0  0.000278  -0.00773  0  3.964278  0
C  C50  1  0.87661069  0.57536425  0.29687656  1  0  -0.110042  0  3.654477  0  0  -0.147723  0  3.901998  0  0  -0.149094  0  3.920376  0  0  -0.06449  -0.145704  0  3.888386  0
C  C51  1  0.12338462  0.42463008  0.70312125  1  0  -0.10993  0  3.654473  0  0  -0.147601  0  3.902041  0  0  -0.148971  0  3.920423  0  0  -0.064428  -0.145583  0  3.888409  0
C  C52  1  0.03676187  0.67097857  0.40080232  1  0  0.236256  0  3.709456  0  0  0.193449  0  3.983984  0  0  0.20601  0  3.998494  0  0  0.244917  0.175722  0  3.972958  0
C  C53  1  0.96323851  0.32902706  0.59919109  1  0  0.236255  0  3.709408  0  0  0.193524  0  3.983836  0  0  0.206087  0  3.998346  0  0  0.244926  0.17581  0  3.972809  0
C  C54  1  0.55627517  0.72554703  0.96244757  1  0  0.684074  0  3.858256  0  0  0.627889  0  4.157554  0  0  0.661356  0  4.148921  0  0  0.231893  0.60538  0  4.162472  0
C  C55  1  0.44372583  0.27445098  0.03756128  1  0  0.684311  0  3.857905  0  0  0.627875  0  4.157495  0  0  0.661343  0  4.148865  0  0  0.23191  0.605371  0  4.162409  0
C  C56  1  0.75726536  0.13868931  0.25666873  1  0  -0.182284  0  3.615151  0  0  -0.252193  0  3.863147  0  0  -0.254271  0  3.867567  0  0  -0.038355  -0.250686  0  3.859967  0
C  C57  1  0.24273368  0.86131253  0.74333006  1  0  -0.182303  0  3.61516  0  0  -0.252296  0  3.863238  0  0  -0.254371  0  3.867651  0  0  -0.038368  -0.250787  0  3.860073  0
C  C58  1  0.64378738  0.07551905  0.36691470  1  0  0.695719  0  3.804284  0  0  0.630881  0  4.139703  0  0  0.664688  0  4.128668  0  0  0.242743  0.608  0  4.146616  0
C  C59  1  0.35620940  0.92448185  0.63308293  1  0  0.695826  0  3.804303  0  0  0.630963  0  4.139781  0  0  0.664768  0  4.128743  0  0  0.242743  0.608084  0  4.146692  0
C  C60  1  0.69210141  0.92256990  0.14096128  1  0  0.150799  0  3.812392  0  0  0.158941  0  4.061172  0  0  0.161337  0  4.081192  0  0  0.121548  0.156954  0  4.047669  0
C  C61  1  0.30789822  0.07742340  0.85905065  1  0  0.150845  0  3.812514  0  0  0.159011  0  4.06123  0  0  0.161404  0  4.081252  0  0  0.121542  0.157025  0  4.047736  0
C  C62  1  0.43820441  0.92470103  0.17536702  1  0  0.128562  0  3.712936  0  0  0.103691  0  3.983286  0  0  0.107448  0  4.000084  0  0  0.049447  0.100048  0  3.972506  0
C  C63  1  0.56179146  0.07530361  0.82463316  1  0  0.128701  0  3.713  0  0  0.103807  0  3.983375  0  0  0.107563  0  4.000175  0  0  0.049528  0.10016  0  3.972599  0
C  C64  1  0.42626093  0.84512748  0.10365821  1  0  -0.099423  0  3.669829  0  0  -0.128302  0  3.925  0  0  -0.131017  0  3.945344  0  0  -0.070665  -0.12558  0  3.911307  0
C  C65  1  0.57373931  0.15487622  0.89634249  1  0  -0.099455  0  3.669916  0  0  -0.128354  0  3.925105  0  0  -0.13105  0  3.945462  0  0  -0.070663  -0.12564  0  3.911416  0
C  C66  1  0.55605852  0.80568573  0.04668584  1  0  -0.027132  0  3.737036  0  0  -0.006766  0  3.974156  0  0  -0.011374  0  3.995791  0  0  -0.001201  -0.00402  0  3.959353  0
C  C67  1  0.44394342  0.19430945  0.95332530  1  0  -0.027208  0  3.736975  0  0  -0.006704  0  3.97406  0  0  -0.01131  0  3.99569  0  0  -0.001195  -0.003962  0  3.959262  0
C  C68  1  0.69171389  0.84590379  0.06530361  1  0  -0.130637  0  3.684162  0  0  -0.16552  0  3.930103  0  0  -0.169288  0  3.951247  0  0  -0.069832  -0.162158  0  3.915449  0
C  C69  1  0.30829023  0.15409049  0.93470409  1  0  -0.130578  0  3.684149  0  0  -0.16551  0  3.930096  0  0  -0.169276  0  3.95124  0  0  -0.069838  -0.16216  0  3.915462  0
C  C70  1  0.83273755  0.95964425  0.16715645  1  0  0.23997  0  3.700809  0  0  0.188633  0  3.966751  0  0  0.200909  0  3.980151  0  0  0.249374  0.180735  0  3.957407  0
C  C71  1  0.16726474  0.04035663  0.83284556  1  0  0.239948  0  3.700694  0  0  0.188649  0  3.966546  0  0  0.200926  0  3.979947  0  0  0.249367  0.180739  0  3.95721  0
N  N72  1  0.77317191  0.67757041  0.44610058  1  0  -0.295861  0  3.037421  0  0  -0.269488  0  3.305401  0  0  -0.276862  0  3.319081  0  0  -0.302585  -0.264486  0  3.296944  0
N  N73  1  0.22682875  0.32243995  0.55388649  1  0  -0.295742  0  3.03758  0  0  -0.269345  0  3.30553  0  0  -0.276719  0  3.319212  0  0  -0.302426  -0.264357  0  3.297089  0
N  N74  1  0.06829458  0.75354684  0.46001089  1  0  0.026041  0  3.527313  0  0  0.109302  0  3.753322  0  0  0.096584  0  3.778237  0  0  -0.111471  0.146246  0  3.70145  0
N  N75  1  0.93170785  0.24645596  0.53998467  1  0  0.025976  0  3.527303  0  0  0.109231  0  3.753317  0  0  0.096514  0  3.778233  0  0  -0.111535  0.146134  0  3.701504  0
N  N76  1  0.21576781  0.75528662  0.46124415  1  0  -0.101262  0  2.837223  0  0  -0.108673  0  3.124178  0  0  -0.10679  0  3.134174  0  0  -0.071579  -0.11807  0  3.111454  0
N  N77  1  0.78423548  0.24471152  0.53874742  1  0  -0.101238  0  2.837102  0  0  -0.108656  0  3.124086  0  0  -0.106774  0  3.134081  0  0  -0.071607  -0.118054  0  3.111382  0
N  N78  1  0.27150706  0.67718244  0.40332225  1  0  -0.044456  0  2.964495  0  0  -0.038612  0  3.273386  0  0  -0.037669  0  3.284444  0  0  -0.066166  -0.03959  0  3.268601  0
N  N79  1  0.72849298  0.32281665  0.59666780  1  0  -0.044426  0  2.964415  0  0  -0.038611  0  3.273364  0  0  -0.037668  0  3.28442  0  0  -0.066127  -0.039592  0  3.26858  0
N  N80  1  0.16448651  0.62379080  0.36395529  1  0  -0.294963  0  2.952474  0  0  -0.25962  0  3.231523  0  0  -0.271731  0  3.243023  0  0  -0.197777  -0.253057  0  3.227552  0
N  N81  1  0.83551041  0.37621203  0.63603504  1  0  -0.294993  0  2.95244  0  0  -0.259664  0  3.231475  0  0  -0.271774  0  3.242966  0  0  -0.197787  -0.253107  0  3.227503  0
N  N82  1  0.56781427  0.96325230  0.19443410  1  0  -0.310119  0  3.05226  0  0  -0.277768  0  3.310879  0  0  -0.287411  0  3.327248  0  0  -0.302962  -0.271512  0  3.301196  0
N  N83  1  0.43218557  0.03674476  0.80557598  1  0  -0.310224  0  3.052457  0  0  -0.277888  0  3.3111  0  0  -0.28753  0  3.32747  0  0  -0.303044  -0.27164  0  3.30142  0
N  N84  1  0.85643634  0.04923140  0.22067657  1  0  0.033705  0  3.530425  0  0  0.147302  0  3.714115  0  0  0.136684  0  3.736631  0  0  -0.107691  0.153852  0  3.700006  0
N  N85  1  0.14356496  0.95077136  0.77932423  1  0  0.033653  0  3.530414  0  0  0.147308  0  3.714042  0  0  0.136686  0  3.736562  0  0  -0.107697  0.153833  0  3.699971  0
N  N86  1  0.99995262  0.04978001  0.23410122  1  0  -0.09239  0  2.856454  0  0  -0.103635  0  3.141651  0  0  -0.102803  0  3.151443  0  0  -0.061111  -0.103512  0  3.134587  0
N  N87  1  0.00004778  0.95022652  0.76589789  1  0  -0.092312  0  2.856414  0  0  -0.103585  0  3.141628  0  0  -0.102763  0  3.151427  0  0  -0.061123  -0.103478  0  3.134589  0
N  N88  1  0.06171614  0.96380532  0.18888309  1  0  -0.052021  0  2.939942  0  0  -0.050405  0  3.249871  0  0  -0.04872  0  3.259953  0  0  -0.072662  -0.05154  0  3.241719  0
N  N89  1  0.93828874  0.03620216  0.81111519  1  0  -0.052041  0  2.939826  0  0  -0.050439  0  3.24978  0  0  -0.048736  0  3.25983  0  0  -0.072619  -0.051591  0  3.241654  0
N  N90  1  0.96161318  0.90648057  0.14636301  1  0  -0.294417  0  2.991923  0  0  -0.256274  0  3.275546  0  0  -0.269201  0  3.288533  0  0  -0.19571  -0.248542  0  3.266329  0
N  N91  1  0.03839153  0.09352408  0.85363687  1  0  -0.294429  0  2.991745  0  0  -0.256276  0  3.275344  0  0  -0.269206  0  3.288329  0  0  -0.195793  -0.248553  0  3.266144  0
O  O92  1  0.03601333  0.73449629  0.00718240  1  0  -0.87896  0  1.804701  0  0  -0.843368  0  1.983727  0  0  -0.858816  0  1.95282  0  0  -0.661247  -0.832048  0  2.0058  0
O  O93  1  0.96397188  0.26549607  0.99282570  1  0  -0.878958  0  1.804766  0  0  -0.84337  0  1.983754  0  0  -0.858824  0  1.952843  0  0  -0.6612  -0.83206  0  2.005832  0
O  O94  1  0.79229584  0.43695208  0.86197320  1  0  -0.868986  0  1.889031  0  0  -0.81873  0  2.068657  0  0  -0.83588  0  2.035489  0  0  -0.623732  -0.806496  0  2.092578  0
O  O95  1  0.20770935  0.56304129  0.13803036  1  0  -0.868964  0  1.889056  0  0  -0.818728  0  2.068668  0  0  -0.835882  0  2.035501  0  0  -0.623715  -0.806493  0  2.092585  0
O  O96  1  0.58175712  0.45305790  0.18504234  1  0  -0.531058  0  2.075528  0  0  -0.478824  0  2.288026  0  0  -0.501293  0  2.271595  0  0  -0.314184  -0.463255  0  2.298046  0
O  O97  1  0.41824062  0.54694020  0.81495419  1  0  -0.531086  0  2.07553  0  0  -0.478864  0  2.288004  0  0  -0.501328  0  2.271555  0  0  -0.314214  -0.463295  0  2.29806  0
O  O98  1  0.82904814  0.46784574  0.11440963  1  0  -0.643053  0  1.931983  0  0  -0.600275  0  2.164598  0  0  -0.620107  0  2.153599  0  0  -0.366384  -0.586496  0  2.172138  0
O  O99  1  0.17095549  0.53215894  0.88558700  1  0  -0.64301  0  1.931986  0  0  -0.60025  0  2.164645  0  0  -0.620084  0  2.153644  0  0  -0.366308  -0.586486  0  2.172191  0
O  O100  1  0.76778032  0.80643212  0.67111643  1  0  -0.522391  0  2.107989  0  0  -0.46923  0  2.324902  0  0  -0.491724  0  2.30998  0  0  -0.311906  -0.453435  0  2.334051  0
O  O101  1  0.23221402  0.19356499  0.32888588  1  0  -0.522329  0  2.107964  0  0  -0.469174  0  2.324883  0  0  -0.491667  0  2.309987  0  0  -0.311884  -0.453375  0  2.334036  0
O  O102  1  0.96323737  0.68443810  0.70719624  1  0  -0.611997  0  1.981129  0  0  -0.578168  0  2.226659  0  0  -0.598941  0  2.216956  0  0  -0.353364  -0.564014  0  2.233931  0
O  O103  1  0.03676050  0.31556277  0.29280634  1  0  -0.612071  0  1.981013  0  0  -0.578265  0  2.226512  0  0  -0.599053  0  2.216822  0  0  -0.353381  -0.564093  0  2.233747  0
O  O104  1  0.43158025  0.67672815  0.95868614  1  0  -0.616187  0  2.049215  0  0  -0.547216  0  2.266392  0  0  -0.57312  0  2.254955  0  0  -0.29227  -0.529201  0  2.273644  0
O  O105  1  0.56841775  0.32327549  0.04132164  1  0  -0.616402  0  2.049191  0  0  -0.547221  0  2.266351  0  0  -0.573127  0  2.254923  0  0  -0.292281  -0.52923  0  2.273595  0
O  O106  1  0.67908016  0.71300920  0.90044364  1  0  -0.672439  0  2.000225  0  0  -0.622687  0  2.237695  0  0  -0.645101  0  2.224728  0  0  -0.36004  -0.606907  0  2.246279  0
O  O107  1  0.32092357  0.28697846  0.09957090  1  0  -0.672447  0  2.000211  0  0  -0.622623  0  2.237802  0  0  -0.64504  0  2.224836  0  0  -0.360009  -0.60686  0  2.246399  0
O  O108  1  0.52775491  0.14232228  0.37909281  1  0  -0.516345  0  2.107058  0  0  -0.465681  0  2.329899  0  0  -0.487498  0  2.314879  0  0  -0.313235  -0.450744  0  2.339638  0
O  O109  1  0.47224643  0.85768141  0.62090859  1  0  -0.516394  0  2.10704  0  0  -0.465714  0  2.329915  0  0  -0.487533  0  2.314893  0  0  -0.313226  -0.450775  0  2.339642  0
O  O110  1  0.66709357  0.97389648  0.43731457  1  0  -0.565253  0  2.023544  0  0  -0.518956  0  2.257698  0  0  -0.541823  0  2.248687  0  0  -0.278597  -0.503218  0  2.26352  0
O  O111  1  0.33290427  0.02610348  0.56268401  1  0  -0.565255  0  2.023695  0  0  -0.518974  0  2.257916  0  0  -0.541825  0  2.248876  0  0  -0.278591  -0.503237  0  2.263735  0
