# generated using pymatgen
data_CuH17C13N5O2
_symmetry_space_group_name_H-M   'P 1'
_cell_length_a   9.26949750
_cell_length_b   9.52367341
_cell_length_c   17.26132591
_cell_angle_alpha   98.09854154
_cell_angle_beta   89.99882409
_cell_angle_gamma   90.00061147
_symmetry_Int_Tables_number   1
_chemical_formula_structural   CuH17C13N5O2
_chemical_formula_sum   'Cu4 H68 C52 N20 O8'
_cell_volume   1508.62737392
_cell_formula_units_Z   4
loop_
 _symmetry_equiv_pos_site_id
 _symmetry_equiv_pos_as_xyz
  1  'x, y, z'
loop_
 _atom_site_type_symbol
 _atom_site_label
 _atom_site_symmetry_multiplicity
 _atom_site_fract_x
 _atom_site_fract_y
 _atom_site_fract_z
 _atom_site_occupancy
 _atom_site_pbe_bader_charge
 _atom_site_pbe_bader_spin_density
 _atom_site_pbe_cm5_charge
 _atom_site_pbe_ddec_charge
 _atom_site_pbe_ddec_spin_density
 _atom_site_pbe_ddec_sum_bond_order
 _atom_site_pbe_magmom
Cu  Cu0  1  0.63396299  0.12669417  0.81392703  1  0.978183  -0.488611  0.740953  0.654355  -0.717644  2.387713  -0.488
Cu  Cu1  1  0.86604581  0.12660286  0.31388772  1  0.978852  0.489312  0.741012  0.654411  0.6774  2.387879  0.489
Cu  Cu2  1  0.36604817  0.87338427  0.18611524  1  0.978508  0.48933  0.741091  0.654592  0.677424  2.388045  0.489
Cu  Cu3  1  0.13395995  0.87331810  0.68606828  1  0.978345  0.488657  0.740984  0.654427  0.676293  2.387625  0.488
H  H4  1  0.82627045  0.78021708  0.93049904  1  0.022393  0.000222  0.099899  0.114446  0.000107  1.01805  0.0
H  H5  1  0.67371646  0.78021225  0.43052354  1  0.022245  -0.000145  0.099885  0.114478  -7.1e-05  1.018083  0.0
H  H6  1  0.17373208  0.21977455  0.06948030  1  0.022502  -0.000217  0.099871  0.114341  -0.000137  1.018167  0.0
H  H7  1  0.32628499  0.21978484  0.56949740  1  0.022225  -0.000148  0.099872  0.114501  -5.4e-05  1.017935  0.0
H  H8  1  0.69754281  0.59217554  0.98833184  1  0.040647  -0.000838  0.097194  0.086503  -0.000482  1.008027  0.0
H  H9  1  0.80244506  0.59216762  0.48834484  1  0.040489  0.000863  0.097171  0.086519  0.000461  1.008127  0.0
H  H10  1  0.30245864  0.40782434  0.01165921  1  0.040686  0.000919  0.09722  0.086565  0.000513  1.008149  0.0
H  H11  1  0.19755423  0.40782542  0.51166706  1  0.040466  0.00091  0.097231  0.086607  0.000501  1.008193  0.0
H  H12  1  0.42759831  0.60281058  0.00336671  1  0.04951  2.2e-05  0.091279  0.086139  1.5e-05  1.058734  0.0
H  H13  1  0.07239339  0.60279170  0.50337249  1  0.049447  0.000138  0.091316  0.086068  8.1e-05  1.058791  0.0
H  H14  1  0.57240421  0.39720507  0.99663203  1  0.049346  -5e-06  0.091324  0.086159  -1.4e-05  1.058737  0.0
H  H15  1  0.92761022  0.39719521  0.49662847  1  0.049517  0.000119  0.09129  0.086079  6.3e-05  1.058779  0.0
H  H16  1  0.29403837  0.80241085  0.95876576  1  0.025635  -0.000678  0.102788  0.099642  -0.000453  1.002385  0.0
H  H17  1  0.20595389  0.80241181  0.45877881  1  0.025928  0.000632  0.102737  0.099534  0.000356  1.002142  0.0
H  H18  1  0.70595984  0.19758803  0.04122230  1  0.02563  0.000714  0.10278  0.099603  0.000437  1.002529  0.0
H  H19  1  0.79404000  0.19759613  0.54123203  1  0.025741  0.000597  0.102775  0.09961  0.000338  1.002326  0.0
H  H20  1  0.27776756  0.00704039  0.90314314  1  0.096368  -0.011623  0.119873  0.08598  -0.006688  0.983007  -0.007
H  H21  1  0.22221883  0.00706652  0.40317668  1  0.096865  0.011686  0.119841  0.085999  0.006379  0.982971  0.007
H  H22  1  0.72222095  0.99293453  0.09682321  1  0.096866  0.011667  0.119855  0.085951  0.006362  0.982948  0.007
H  H23  1  0.77775781  0.99295367  0.59685721  1  0.096564  0.011626  0.119841  0.086043  0.006323  0.982963  0.007
H  H24  1  0.35274682  0.31404835  0.88246137  1  0.052438  -0.000284  0.10071  0.079018  -0.000119  1.013566  0.0
H  H25  1  0.14722880  0.31405756  0.38246706  1  0.052214  0.000286  0.100681  0.07905  0.00011  1.013449  0.0
H  H26  1  0.64724492  0.68592607  0.11752810  1  0.052062  0.000302  0.100619  0.078923  0.000118  1.013442  0.0
H  H27  1  0.85275431  0.68595894  0.61754160  1  0.052437  0.000266  0.100692  0.078938  0.000103  1.013756  0.0
H  H28  1  0.23049552  0.18639246  0.83518230  1  0.128032  -0.004182  0.107817  0.10052  -0.00277  1.025403  -0.003
H  H29  1  0.26949344  0.18639606  0.33519257  1  0.127829  0.00415  0.107813  0.100518  0.002609  1.025291  0.003
H  H30  1  0.76950917  0.81359491  0.16479784  1  0.127943  0.004163  0.107835  0.100647  0.002617  1.025098  0.003
H  H31  1  0.73049398  0.81360961  0.66482503  1  0.12807  0.004176  0.107786  0.100495  0.002613  1.025371  0.003
H  H32  1  0.36275208  0.17381079  0.71142455  1  0.101943  -4.7e-05  0.110044  0.102885  0.000176  1.019654  0.0
H  H33  1  0.13726857  0.17378908  0.21143180  1  0.102008  0.000382  0.110141  0.102903  0.000267  1.019698  0.0
H  H34  1  0.63728928  0.82620714  0.28856685  1  0.101882  0.000385  0.110127  0.102926  0.000262  1.019698  0.0
H  H35  1  0.86275553  0.82619341  0.78857690  1  0.101875  4.4e-05  0.110059  0.102955  -0.000203  1.019699  0.0
H  H36  1  0.32413330  0.35515295  0.74645119  1  0.047491  -0.005279  0.102665  0.082378  -0.003013  1.028945  -0.004
H  H37  1  0.17586433  0.35512849  0.24645084  1  0.047791  0.005369  0.102742  0.082412  0.00288  1.028841  0.004
H  H38  1  0.67586491  0.64486495  0.25354195  1  0.047818  0.005364  0.102766  0.082493  0.002875  1.028924  0.004
H  H39  1  0.82412957  0.64486041  0.75355608  1  0.047442  0.005278  0.102727  0.08245  0.002846  1.029111  0.004
H  H40  1  0.56133819  0.18429093  0.64107516  1  0.06905  7.9e-05  0.109146  0.098959  0.000406  1.000032  0.0
H  H41  1  0.93872447  0.18428574  0.14105623  1  0.069239  0.001167  0.1093  0.099131  0.000766  1.000121  0.0
H  H42  1  0.43872799  0.81570929  0.35894894  1  0.069197  0.001169  0.109308  0.09918  0.000768  1.000037  0.0
H  H43  1  0.06133092  0.81571120  0.85892356  1  0.068968  -7.7e-05  0.109154  0.098974  -0.000443  1.000183  0.0
H  H44  1  0.71868523  0.27696004  0.67908167  1  0.051379  -0.001779  0.104963  0.092091  -0.000784  1.031661  -0.001
H  H45  1  0.78135434  0.27691671  0.17905542  1  0.051319  0.001809  0.104932  0.092071  0.000719  1.031782  0.001
H  H46  1  0.28135614  0.72307507  0.32095000  1  0.051278  0.00181  0.104939  0.092066  0.00073  1.031721  0.001
H  H47  1  0.21867516  0.72304854  0.82091590  1  0.051485  0.001778  0.104903  0.092011  0.00074  1.031663  0.001
H  H48  1  0.60995388  0.40854532  0.58039779  1  0.017562  -0.001263  0.106638  0.082926  -0.000713  0.95949  -0.001
H  H49  1  0.89012561  0.40856589  0.08040009  1  0.017536  0.001305  0.106645  0.082933  0.000666  0.959402  0.001
H  H50  1  0.39012848  0.59142250  0.41960156  1  0.017508  0.001311  0.106661  0.082881  0.000676  0.959432  0.001
H  H51  1  0.10993625  0.59145823  0.91959995  1  0.017188  0.001329  0.106641  0.082912  0.000723  0.959435  0.001
H  H52  1  0.43993512  0.41821346  0.62965456  1  0.02172  3.5e-05  0.094118  0.055061  5e-06  1.007739  0.0
H  H53  1  0.06012717  0.41821951  0.12967946  1  0.020998  1.6e-05  0.094076  0.054911  -2e-05  1.007929  0.0
H  H54  1  0.56012998  0.58177511  0.37031931  1  0.020992  7e-06  0.094102  0.05495  -3.7e-05  1.007851  0.0
H  H55  1  0.93991743  0.58179346  0.87034455  1  0.021443  -2.7e-05  0.094061  0.054988  -1e-05  1.00792  0.0
H  H56  1  0.42601684  0.56394449  0.75663481  1  0.033529  2.1e-05  0.093616  0.059781  2.1e-05  1.020006  0.0
H  H57  1  0.07396660  0.56392373  0.25667527  1  0.033336  -5.5e-05  0.093768  0.060076  -4.5e-05  1.019667  0.0
H  H58  1  0.57397921  0.43607525  0.24332256  1  0.033295  -5.4e-05  0.093736  0.060037  -4.6e-05  1.019644  0.0
H  H59  1  0.92601543  0.43605485  0.74336612  1  0.033482  -2.1e-05  0.093683  0.059913  -3.1e-05  1.019916  0.0
H  H60  1  0.58536506  0.65167085  0.79387201  1  0.097429  -0.000827  0.105893  0.089063  -0.000415  0.99684  -0.001
H  H61  1  0.91460526  0.65162627  0.29389752  1  0.097154  0.00106  0.10596  0.089006  0.000601  0.996896  0.001
H  H62  1  0.41461158  0.34837193  0.20610063  1  0.097376  0.001065  0.105921  0.088961  0.000606  0.996918  0.001
H  H63  1  0.08535736  0.34833141  0.70612820  1  0.0975  0.000824  0.105876  0.088949  0.000379  0.996913  0.001
H  H64  1  0.70357697  0.42464604  0.80988828  1  0.041384  -0.001337  0.103635  0.084377  -0.000587  1.020791  -0.001
H  H65  1  0.79638579  0.42457513  0.30986476  1  0.041424  0.001338  0.103537  0.084391  0.000525  1.020908  0.001
H  H66  1  0.29638996  0.57542314  0.19014046  1  0.041306  0.001341  0.103518  0.084323  0.000527  1.020781  0.001
H  H67  1  0.20357466  0.57535390  0.69011104  1  0.041365  0.001337  0.103646  0.084392  0.000542  1.020935  0.001
H  H68  1  0.53507933  0.43724824  0.85965240  1  0.048263  -0.000553  0.104782  0.089822  -0.000171  1.020482  0.0
H  H69  1  0.96484601  0.43717459  0.35966276  1  0.048271  0.000548  0.10472  0.089759  0.000138  1.020613  0.0
H  H70  1  0.46485307  0.56282916  0.14034054  1  0.048178  0.000555  0.104734  0.089762  0.000137  1.02066  0.0
H  H71  1  0.03508315  0.56275158  0.64034640  1  0.048217  0.000547  0.104757  0.0898  0.000155  1.020439  0.0
C  C72  1  0.63510051  0.89299637  0.90486099  1  0.721856  -7.4e-05  0.09276  0.322051  -0.002058  4.08848  0.002
C  C73  1  0.86487577  0.89298670  0.40487723  1  0.722551  6.1e-05  0.093048  0.322441  0.001712  4.088293  -0.002
C  C74  1  0.36488368  0.10700257  0.09512418  1  0.722526  2.6e-05  0.092961  0.322301  0.001683  4.088714  -0.002
C  C75  1  0.13510734  0.10701047  0.59514023  1  0.721718  0.000111  0.092768  0.322133  0.001708  4.088398  -0.002
C  C76  1  0.70902238  0.78097265  0.93478463  1  -0.00233  -0.010693  -0.115215  -0.227864  -0.008559  3.973018  -0.009
C  C77  1  0.79096114  0.78098042  0.43480546  1  -0.002793  0.01103  -0.115338  -0.228023  0.008288  3.97322  0.009
C  C78  1  0.29097907  0.21902214  0.06519613  1  -0.002852  0.010841  -0.115197  -0.227558  0.008147  3.973316  0.009
C  C79  1  0.20903060  0.21902949  0.56521250  1  -0.001908  0.010893  -0.115158  -0.227991  0.008217  3.972591  0.009
C  C80  1  0.63585967  0.67730381  0.96761117  1  -0.082632  0.000573  -0.093215  -0.052474  0.000436  4.072202  0.0
C  C81  1  0.86412244  0.67729411  0.46762858  1  -0.082992  -0.000366  -0.093177  -0.052494  -0.000416  4.07201  0.0
C  C82  1  0.36412020  0.32269826  0.03237716  1  -0.083004  -0.000642  -0.093347  -0.052774  -0.000584  4.07254  0.0
C  C83  1  0.13586606  0.32271063  0.53238315  1  -0.082681  -0.00027  -0.093329  -0.052623  -0.000335  4.072014  0.0
C  C84  1  0.48487185  0.68213182  0.97557437  1  -0.098398  0.000964  -0.124584  -0.156794  0.000676  4.088761  0.0
C  C85  1  0.01511728  0.68213357  0.47558664  1  -0.098223  -0.000757  -0.124643  -0.156716  -0.000599  4.08923  0.0
C  C86  1  0.51513067  0.31787014  0.02441859  1  -0.098237  -0.000814  -0.124589  -0.156757  -0.000623  4.088432  0.0
C  C87  1  0.98487661  0.31786697  0.52442242  1  -0.098477  -0.000908  -0.124511  -0.156605  -0.000712  4.088989  0.0
C  C88  1  0.41046443  0.79300952  0.94994406  1  -0.007005  0.001811  -0.083558  -0.085663  0.001112  4.01166  0.001
C  C89  1  0.08951512  0.79300000  0.44996154  1  -0.007569  -0.002087  -0.083521  -0.085408  -0.00151  4.011486  -0.001
C  C90  1  0.58954241  0.20698941  0.05004169  1  -0.006916  -0.001821  -0.08355  -0.085528  -0.00121  4.011266  -0.001
C  C91  1  0.91046583  0.20700792  0.55005046  1  -0.007142  -0.002088  -0.083517  -0.085557  -0.001528  4.011503  -0.001
C  C92  1  0.48075974  0.89814209  0.91379129  1  -0.032741  -0.006446  -0.036968  -0.091525  -0.00466  4.020767  -0.006
C  C93  1  0.01922460  0.89815226  0.41380886  1  -0.031508  0.006396  -0.036946  -0.091808  0.004309  4.020633  0.006
C  C94  1  0.51922337  0.10184516  0.08619406  1  -0.031872  0.006483  -0.036959  -0.091855  0.004405  4.020679  0.006
C  C95  1  0.98074772  0.10186087  0.58620763  1  -0.031192  0.006347  -0.037014  -0.091627  0.004275  4.02089  0.006
C  C96  1  0.39376225  0.00959150  0.89002903  1  0.618268  0.005867  0.079092  0.116701  0.003389  3.942359  0.005
C  C97  1  0.10622468  0.00959793  0.39005115  1  0.616769  -0.006068  0.079121  0.116799  -0.004043  3.942884  -0.005
C  C98  1  0.60624675  0.99040562  0.10994265  1  0.616411  -0.006057  0.07899  0.117037  -0.004027  3.941283  -0.005
C  C99  1  0.89376814  0.99042573  0.60996970  1  0.616397  -0.00588  0.079007  0.116506  -0.003881  3.942583  -0.005
C  C100  1  0.34344357  0.22201229  0.83639678  1  0.238225  -0.006018  -0.073015  -0.065917  -0.00535  3.948518  -0.004
C  C101  1  0.15654144  0.22201825  0.33640847  1  0.239019  0.005952  -0.073034  -0.066063  0.004902  3.94852  0.004
C  C102  1  0.65654709  0.77798869  0.16359261  1  0.238901  0.006012  -0.073014  -0.065975  0.004963  3.948855  0.004
C  C103  1  0.84344922  0.77797912  0.66360032  1  0.238382  0.005961  -0.072981  -0.065772  0.004955  3.948347  0.004
C  C104  1  0.38649191  0.26212210  0.75767174  1  0.257649  -0.000367  -0.07873  -0.105335  -0.001075  3.864443  0.001
C  C105  1  0.11351176  0.26209816  0.25767616  1  0.257247  0.000326  -0.078846  -0.105302  0.000885  3.864593  -0.001
C  C106  1  0.61352572  0.73789576  0.24232314  1  0.257292  0.000343  -0.078907  -0.105466  0.000891  3.864549  -0.001
C  C107  1  0.88649077  0.73788112  0.74233343  1  0.257667  0.000349  -0.078783  -0.105545  0.000832  3.864565  -0.001
C  C108  1  0.60053222  0.28290697  0.67532096  1  0.274052  0.000172  -0.081644  -0.140175  -0.001038  3.911678  0.002
C  C109  1  0.89950756  0.28288861  0.17530887  1  0.273452  0.000921  -0.081672  -0.140405  0.001784  3.911962  -0.001
C  C110  1  0.39951238  0.71710516  0.32469255  1  0.273289  0.000923  -0.08169  -0.140467  0.001791  3.91213  -0.001
C  C111  1  0.10052301  0.71709960  0.82468119  1  0.274012  -0.00017  -0.081577  -0.140086  0.000769  3.911552  -0.002
C  C112  1  0.55813550  0.41289290  0.63799120  1  0.459986  -0.00675  -0.071365  0.011663  -0.005271  3.922551  -0.005
C  C113  1  0.94191695  0.41289459  0.13799889  1  0.461096  0.006873  -0.071474  0.011732  0.004982  3.922685  0.005
C  C114  1  0.44191989  0.58709949  0.36200210  1  0.461297  0.006875  -0.07148  0.011792  0.004978  3.922682  0.005
C  C115  1  0.05811686  0.58710812  0.86200861  1  0.460719  0.00677  -0.071356  0.011722  0.005  3.92251  0.005
C  C116  1  0.54423994  0.55300920  0.76083326  1  0.395687  -0.005369  -0.077793  0.001507  -0.004157  3.892986  -0.004
C  C117  1  0.95574889  0.55297561  0.26085521  1  0.395983  0.005462  -0.078032  0.001237  0.004098  3.892384  0.004
C  C118  1  0.45575504  0.44702499  0.23914387  1  0.395748  0.005469  -0.078003  0.001271  0.004102  3.892279  0.004
C  C119  1  0.04422883  0.44699167  0.73916901  1  0.395319  0.005368  -0.077853  0.001516  0.003911  3.892897  0.004
C  C120  1  0.58593862  0.42723513  0.80178672  1  0.263251  -0.000358  -0.082696  -0.132461  -0.001091  3.904836  0.001
C  C121  1  0.91402233  0.42717412  0.30178595  1  0.263912  0.00036  -0.082617  -0.132394  0.000817  3.904401  -0.001
C  C122  1  0.41403910  0.57282713  0.19821827  1  0.264276  0.000364  -0.08261  -0.13233  0.00082  3.904449  -0.001
C  C123  1  0.08594351  0.57276608  0.69821339  1  0.263587  0.000354  -0.082644  -0.132447  0.000852  3.904793  -0.001
N  N124  1  0.44142199  0.11193217  0.85507045  1  -1.16402  -0.089851  -0.38591  -0.247786  -0.067067  3.628254  -0.077
N  N125  1  0.05856965  0.11193630  0.35508536  1  -1.164548  0.089724  -0.385909  -0.247822  0.063098  3.628305  0.076
N  N126  1  0.55857083  0.88803593  0.14491617  1  -1.164134  0.089866  -0.385895  -0.248196  0.063211  3.627792  0.077
N  N127  1  0.94142101  0.88807039  0.64493407  1  -1.16387  0.089755  -0.385824  -0.247737  0.06316  3.627981  0.076
N  N128  1  0.54434208  0.28908709  0.75607969  1  -0.960329  -0.108286  -0.343286  -0.077614  -0.080656  3.485099  -0.094
N  N129  1  0.95566331  0.28904778  0.25607218  1  -0.960561  0.108651  -0.343395  -0.077864  0.076372  3.484914  0.094
N  N130  1  0.45566045  0.71095057  0.24393250  1  -0.960371  0.108682  -0.343318  -0.077782  0.07639  3.484989  0.094
N  N131  1  0.04433706  0.71091493  0.74391805  1  -0.960459  0.108303  -0.343382  -0.077735  0.076051  3.48508  0.094
N  N132  1  0.82831207  0.18009064  0.78389344  1  -0.228272  -0.039655  -0.319693  -0.515644  -0.032767  3.054378  -0.036
N  N133  1  0.67169745  0.17998249  0.28383220  1  -0.286186  0.038302  -0.319738  -0.515587  0.029397  3.054433  0.035
N  N134  1  0.17170017  0.82002886  0.21616619  1  -0.286042  0.038285  -0.319741  -0.515482  0.029387  3.0542  0.035
N  N135  1  0.32832342  0.81991147  0.71609545  1  -0.227799  0.03965  -0.319636  -0.515565  0.030686  3.054004  0.036
N  N136  1  0.93373140  0.11393854  0.79627310  1  -0.352322  -0.005267  0.082682  0.442827  -0.001795  4.465665  0.003
N  N137  1  0.56623264  0.11384814  0.29619247  1  -0.293816  0.003595  0.082583  0.442344  0.000374  4.466468  -0.004
N  N138  1  0.06622474  0.88616027  0.20380913  1  -0.294101  0.003602  0.082385  0.442  0.00038  4.466175  -0.004
N  N139  1  0.43374507  0.88606210  0.70371976  1  -0.352828  0.005275  0.082606  0.442833  0.001215  4.465447  -0.003
N  N140  1  0.03970180  0.05108388  0.80594640  1  -0.08467  -0.090033  -0.206321  -0.421897  -0.064775  2.719594  -0.065
N  N141  1  0.46024361  0.05102769  0.30583777  1  -0.085043  0.088416  -0.206042  -0.421221  0.059938  2.720763  0.065
N  N142  1  0.96023600  0.94898987  0.19416442  1  -0.084864  0.088409  -0.205874  -0.421007  0.059936  2.720809  0.065
N  N143  1  0.53972656  0.94890430  0.69405138  1  -0.084601  0.090006  -0.206331  -0.422005  0.061089  2.719616  0.065
O  O144  1  0.71201954  0.98342096  0.87215485  1  -1.106054  -0.118942  -0.341017  -0.496597  -0.08682  2.393332  -0.109
O  O145  1  0.78796338  0.98340554  0.37216622  1  -1.106071  0.119605  -0.341195  -0.496847  0.082325  2.393378  0.109
O  O146  1  0.28798514  0.01658861  0.12783063  1  -1.106159  0.119226  -0.341126  -0.49679  0.082056  2.393772  0.109
O  O147  1  0.21201865  0.01659270  0.62785133  1  -1.106041  0.119264  -0.341006  -0.496604  0.082014  2.3936  0.109
O  O148  1  0.60680571  0.54060469  0.68416299  1  -1.033171  -0.002752  -0.235538  -0.220904  -0.001856  2.431084  -0.002
O  O149  1  0.89322050  0.54059319  0.18417472  1  -1.033631  0.003587  -0.235409  -0.220788  0.002268  2.430773  0.003
O  O150  1  0.39322702  0.45939629  0.31582640  1  -1.03361  0.00359  -0.235444  -0.220785  0.002273  2.430779  0.003
O  O151  1  0.10679281  0.45939877  0.81583825  1  -1.033097  0.002759  -0.235494  -0.220892  0.001746  2.431098  0.002
