# generated using pymatgen
data_LiH4C4IO5
_symmetry_space_group_name_H-M   'P 1'
_cell_length_a   6.60984034
_cell_length_b   7.49809621
_cell_length_c   15.25801665
_cell_angle_alpha   100.77421857
_cell_angle_beta   89.99970881
_cell_angle_gamma   89.99894942
_symmetry_Int_Tables_number   1
_chemical_formula_structural   LiH4C4IO5
_chemical_formula_sum   'Li4 H16 C16 I4 O20'
_cell_volume   742.87510050
_cell_formula_units_Z   4
loop_
 _symmetry_equiv_pos_site_id
 _symmetry_equiv_pos_as_xyz
  1  'x, y, z'
loop_
 _atom_site_type_symbol
 _atom_site_label
 _atom_site_symmetry_multiplicity
 _atom_site_fract_x
 _atom_site_fract_y
 _atom_site_fract_z
 _atom_site_occupancy
 _atom_site_hle17_bader_spin_density
 _atom_site_hle17_ddec_charge
 _atom_site_hle17_ddec_spin_density
 _atom_site_hle17_ddec_sum_bond_order
 _atom_site_hle17_magmom
 _atom_site_hse06_10hf_bader_spin_density
 _atom_site_hse06_10hf_ddec_charge
 _atom_site_hse06_10hf_ddec_spin_density
 _atom_site_hse06_10hf_ddec_sum_bond_order
 _atom_site_hse06_10hf_magmom
 _atom_site_hse06_bader_spin_density
 _atom_site_hse06_ddec_charge
 _atom_site_hse06_ddec_spin_density
 _atom_site_hse06_ddec_sum_bond_order
 _atom_site_hse06_magmom
 _atom_site_pbe_bader_spin_density
 _atom_site_pbe_cm5_charge
 _atom_site_pbe_ddec_charge
 _atom_site_pbe_ddec_spin_density
 _atom_site_pbe_ddec_sum_bond_order
 _atom_site_pbe_magmom
Li  Li0  1  0.96400374  0.68135041  0.53693767  1  0  0.860941  0  0.397931  0  0  0.824807  0  0.498103  0  0  0.833966  0  0.48153  0  0  0.501728  0.818106  0  0.510135  0
Li  Li1  1  0.46400937  0.81864602  0.96305563  1  0  0.860933  0  0.397883  0  0  0.824783  0  0.498079  0  0  0.833943  0  0.481502  0  0  0.501728  0.818082  0  0.510111  0
Li  Li2  1  0.03599053  0.31864599  0.46305590  1  0  0.860957  0  0.397936  0  0  0.824809  0  0.498133  0  0  0.833969  0  0.481555  0  0  0.501755  0.818107  0  0.510165  0
Li  Li3  1  0.53599246  0.18134755  0.03694356  1  0  0.860963  0  0.397894  0  0  0.824808  0  0.498106  0  0  0.833971  0  0.481524  0  0  0.501727  0.818106  0  0.510138  0
H  H4  1  0.08238516  0.42990845  0.30164441  1  0  0.133204  0  0.973596  0  0  0.138256  0  1.043574  0  0  0.142407  0  1.040844  0  0  0.115618  0.135601  0  1.045111  0
H  H5  1  0.58238070  0.07009255  0.19835623  1  0  0.133183  0  0.973603  0  0  0.13822  0  1.043619  0  0  0.142373  0  1.040886  0  0  0.115594  0.135566  0  1.045157  0
H  H6  1  0.91760154  0.57010423  0.69835138  1  0  0.133144  0  0.973628  0  0  0.138231  0  1.043572  0  0  0.142382  0  1.040838  0  0  0.115568  0.135575  0  1.045113  0
H  H7  1  0.41757574  0.92989705  0.80163733  1  0  0.133079  0  0.973823  0  0  0.138182  0  1.043726  0  0  0.142336  0  1.040988  0  0  0.115558  0.135525  0  1.045263  0
H  H8  1  0.09445822  0.30814096  0.06681981  1  0  0.400893  0  0.881449  0  0  0.368369  0  0.960728  0  0  0.382033  0  0.946136  0  0  0.307426  0.358742  0  0.970973  0
H  H9  1  0.59447615  0.19187064  0.43318639  1  0  0.400771  0  0.881687  0  0  0.368241  0  0.960972  0  0  0.381903  0  0.946387  0  0  0.307378  0.358615  0  0.971213  0
H  H10  1  0.90554058  0.69186759  0.93317886  1  0  0.400902  0  0.881466  0  0  0.368367  0  0.96076  0  0  0.382034  0  0.94616  0  0  0.307422  0.35874  0  0.971006  0
H  H11  1  0.40551963  0.80812425  0.56681555  1  0  0.400815  0  0.881628  0  0  0.368292  0  0.960906  0  0  0.381952  0  0.946321  0  0  0.307393  0.358667  0  0.97115  0
H  H12  1  0.68325532  0.82853493  0.46500606  1  0  0.426009  0  0.87798  0  0  0.39198  0  0.947898  0  0  0.402235  0  0.932668  0  0  0.290437  0.384679  0  0.958753  0
H  H13  1  0.18326664  0.67147305  0.03499470  1  0  0.425861  0  0.878188  0  0  0.391838  0  0.948101  0  0  0.402091  0  0.932872  0  0  0.290374  0.384537  0  0.95895  0
H  H14  1  0.31675710  0.17148450  0.53499234  1  0  0.425973  0  0.878016  0  0  0.391983  0  0.947864  0  0  0.402235  0  0.932637  0  0  0.290461  0.384687  0  0.958704  0
H  H15  1  0.81675184  0.32852313  0.96501064  1  0  0.425974  0  0.878048  0  0  0.391972  0  0.947916  0  0  0.402226  0  0.932686  0  0  0.290439  0.384673  0  0.958762  0
H  H16  1  0.80250282  0.98077906  0.52839662  1  0  0.437762  0  0.823669  0  0  0.415632  0  0.884026  0  0  0.423681  0  0.872181  0  0  0.321637  0.409925  0  0.892454  0
H  H17  1  0.30253123  0.51922214  0.97161419  1  0  0.437819  0  0.823359  0  0  0.415658  0  0.883956  0  0  0.423713  0  0.872097  0  0  0.321607  0.40995  0  0.892386  0
H  H18  1  0.19749749  0.01922931  0.47161186  1  0  0.437834  0  0.823421  0  0  0.415687  0  0.883923  0  0  0.423738  0  0.872073  0  0  0.321648  0.409981  0  0.892351  0
H  H19  1  0.69751145  0.48077934  0.02839822  1  0  0.437916  0  0.823774  0  0  0.415786  0  0.883874  0  0  0.423837  0  0.872028  0  0  0.32171  0.410077  0  0.892304  0
C  C20  1  0.31979541  0.61666608  0.42240966  1  0  0.711774  0  3.883459  0  0  0.658733  0  4.183763  0  0  0.692044  0  4.174738  0  0  0.233623  0.636181  0  4.189303  0
C  C21  1  0.81979971  0.88332496  0.07759022  1  0  0.711862  0  3.883098  0  0  0.658918  0  4.183287  0  0  0.692225  0  4.174256  0  0  0.23379  0.636365  0  4.188828  0
C  C22  1  0.68020945  0.38332206  0.57758967  1  0  0.711854  0  3.883213  0  0  0.658865  0  4.183465  0  0  0.692175  0  4.17444  0  0  0.233824  0.636309  0  4.189007  0
C  C23  1  0.18020969  0.11667545  0.92240701  1  0  0.711822  0  3.883253  0  0  0.658871  0  4.183452  0  0  0.692176  0  4.174428  0  0  0.233727  0.636318  0  4.188992  0
C  C24  1  0.37316540  0.53587874  0.32651525  1  0  -0.084351  0  3.554949  0  0  -0.060254  0  3.816986  0  0  -0.060345  0  3.832057  0  0  -0.041169  -0.060633  0  3.807153  0
C  C25  1  0.87316754  0.96410886  0.17348080  1  0  -0.084231  0  3.554834  0  0  -0.060239  0  3.816947  0  0  -0.06033  0  3.832019  0  0  -0.041168  -0.060614  0  3.807117  0
C  C26  1  0.62683945  0.46411211  0.67348433  1  0  -0.084348  0  3.554962  0  0  -0.060311  0  3.817068  0  0  -0.060407  0  3.832142  0  0  -0.041235  -0.060687  0  3.807243  0
C  C27  1  0.12681765  0.03589014  0.82651892  1  0  -0.084278  0  3.55511  0  0  -0.060276  0  3.8172  0  0  -0.060367  0  3.832271  0  0  -0.041211  -0.060653  0  3.807376  0
C  C28  1  0.23098615  0.44489682  0.27273953  1  0  -0.216945  0  3.679605  0  0  -0.246349  0  3.936386  0  0  -0.250797  0  3.948868  0  0  -0.087946  -0.243422  0  3.928053  0
C  C29  1  0.73100172  0.05509919  0.22726526  1  0  -0.21704  0  3.679758  0  0  -0.246403  0  3.936587  0  0  -0.250859  0  3.94906  0  0  -0.087925  -0.243483  0  3.928261  0
C  C30  1  0.76901114  0.55510084  0.72725940  1  0  -0.216869  0  3.679498  0  0  -0.246311  0  3.936343  0  0  -0.250756  0  3.948819  0  0  -0.08787  -0.24339  0  3.928013  0
C  C31  1  0.26897742  0.94489154  0.77274021  1  0  -0.216831  0  3.679863  0  0  -0.246235  0  3.93668  0  0  -0.250676  0  3.94916  0  0  -0.087867  -0.243303  0  3.928344  0
C  C32  1  0.25071688  0.36629413  0.17705013  1  0  0.715078  0  3.83459  0  0  0.6691  0  4.130932  0  0  0.703606  0  4.118353  0  0  0.232585  0.645456  0  4.13929  0
C  C33  1  0.75073186  0.13370436  0.32295219  1  0  0.715347  0  3.83475  0  0  0.669354  0  4.131126  0  0  0.703884  0  4.118517  0  0  0.232654  0.64571  0  4.13949  0
C  C34  1  0.74926983  0.63371166  0.82295024  1  0  0.715044  0  3.835266  0  0  0.669069  0  4.131643  0  0  0.70358  0  4.119049  0  0  0.232547  0.645431  0  4.14  0
C  C35  1  0.24925182  0.86629193  0.67704726  1  0  0.715216  0  3.834463  0  0  0.669201  0  4.130891  0  0  0.70369  0  4.118332  0  0  0.23261  0.645558  0  4.139257  0
I  I36  1  0.66160280  0.59539194  0.28246516  1  0  0.107855  0  1.436465  0  0  0.091415  0  1.747756  0  0  0.087011  0  1.736431  0  0  0.180022  0.094418  0  1.755331  0
I  I37  1  0.16161403  0.90458794  0.21752841  1  0  0.107778  0  1.436417  0  0  0.091393  0  1.747698  0  0  0.086991  0  1.736372  0  0  0.179987  0.094395  0  1.755272  0
I  I38  1  0.33840206  0.40457584  0.71753155  1  0  0.107804  0  1.436409  0  0  0.091392  0  1.747686  0  0  0.086993  0  1.73636  0  0  0.179998  0.094393  0  1.755264  0
I  I39  1  0.83837872  0.09542581  0.78248256  1  0  0.107795  0  1.436538  0  0  0.091392  0  1.747825  0  0  0.086993  0  1.736494  0  0  0.180021  0.094399  0  1.755395  0
O  O40  1  0.42059488  0.75232968  0.46247069  1  0  -0.640749  0  2.031268  0  0  -0.576395  0  2.250179  0  0  -0.601423  0  2.238699  0  0  -0.295366  -0.559004  0  2.257709  0
O  O41  1  0.92061327  0.74767215  0.03752719  1  0  -0.640723  0  2.031255  0  0  -0.576376  0  2.250105  0  0  -0.601402  0  2.238621  0  0  -0.295382  -0.558982  0  2.257634  0
O  O42  1  0.57940090  0.24765982  0.53752811  1  0  -0.640675  0  2.031341  0  0  -0.57634  0  2.250207  0  0  -0.601367  0  2.238728  0  0  -0.295361  -0.558949  0  2.257733  0
O  O43  1  0.07940520  0.25232824  0.96247135  1  0  -0.640698  0  2.031399  0  0  -0.57638  0  2.25028  0  0  -0.601407  0  2.238798  0  0  -0.295336  -0.558989  0  2.257807  0
O  O44  1  0.17190770  0.54606210  0.45635550  1  0  -0.752141  0  1.976243  0  0  -0.705985  0  2.217542  0  0  -0.727634  0  2.204099  0  0  -0.425873  -0.690848  0  2.226405  0
O  O45  1  0.67189964  0.95392151  0.04364887  1  0  -0.752248  0  1.976031  0  0  -0.706115  0  2.217283  0  0  -0.727784  0  2.203886  0  0  -0.425997  -0.690979  0  2.226151  0
O  O46  1  0.82810018  0.45393830  0.54364238  1  0  -0.752273  0  1.975981  0  0  -0.706119  0  2.217226  0  0  -0.727792  0  2.203832  0  0  -0.426052  -0.69098  0  2.226091  0
O  O47  1  0.32810976  0.04607347  0.95634784  1  0  -0.752276  0  1.975993  0  0  -0.706135  0  2.217245  0  0  -0.727803  0  2.203848  0  0  -0.425996  -0.690999  0  2.226111  0
O  O48  1  0.07540265  0.35682610  0.13427137  1  0  -0.546973  0  2.087783  0  0  -0.499627  0  2.312035  0  0  -0.522297  0  2.296983  0  0  -0.321288  -0.483793  0  2.322082  0
O  O49  1  0.57542037  0.14319264  0.36573100  1  0  -0.546946  0  2.08819  0  0  -0.499608  0  2.312475  0  0  -0.522275  0  2.297398  0  0  -0.321231  -0.483772  0  2.322519  0
O  O50  1  0.92459313  0.64318522  0.86572428  1  0  -0.547043  0  2.088016  0  0  -0.499708  0  2.312294  0  0  -0.522384  0  2.297239  0  0  -0.321323  -0.483874  0  2.322342  0
O  O51  1  0.42456785  0.85679548  0.63426897  1  0  -0.54693  0  2.088106  0  0  -0.499593  0  2.312392  0  0  -0.522254  0  2.297349  0  0  -0.32122  -0.48376  0  2.322437  0
O  O52  1  0.41378354  0.31335183  0.14147204  1  0  -0.660004  0  2.036429  0  0  -0.617576  0  2.274689  0  0  -0.637298  0  2.262558  0  0  -0.360291  -0.603949  0  2.28291  0
O  O53  1  0.91380469  0.18663213  0.35852493  1  0  -0.660161  0  2.036492  0  0  -0.617674  0  2.274629  0  0  -0.637406  0  2.262485  0  0  -0.360353  -0.604048  0  2.282857  0
O  O54  1  0.58621830  0.68663229  0.85852362  1  0  -0.659883  0  2.037085  0  0  -0.617412  0  2.275232  0  0  -0.637133  0  2.263097  0  0  -0.360185  -0.603789  0  2.283454  0
O  O55  1  0.08618050  0.81337642  0.64147374  1  0  -0.660096  0  2.036292  0  0  -0.617621  0  2.274475  0  0  -0.637336  0  2.262344  0  0  -0.360313  -0.603998  0  2.282704  0
O  O56  1  0.81925361  0.86346449  0.48908610  1  0  -0.892325  0  1.780985  0  0  -0.852104  0  1.953393  0  0  -0.86718  0  1.92389  0  0  -0.651143  -0.841457  0  1.974171  0
O  O57  1  0.31926584  0.63654688  0.01091771  1  0  -0.892272  0  1.780874  0  0  -0.852044  0  1.953389  0  0  -0.867117  0  1.923892  0  0  -0.651056  -0.841397  0  1.974171  0
O  O58  1  0.18076184  0.13655761  0.51091518  1  0  -0.892382  0  1.780875  0  0  -0.852172  0  1.953336  0  0  -0.867247  0  1.923837  0  0  -0.651204  -0.841527  0  1.974115  0
O  O59  1  0.68076020  0.36345322  0.98909588  1  0  -0.892472  0  1.781223  0  0  -0.852242  0  1.953413  0  0  -0.867317  0  1.923904  0  0  -0.651233  -0.841594  0  1.974199  0
