# generated using pymatgen
data_ZnH3C16N(OF2)4
_symmetry_space_group_name_H-M   'P 1'
_cell_length_a   9.69272988
_cell_length_b   11.23636325
_cell_length_c   23.00457983
_cell_angle_alpha   89.84428811
_cell_angle_beta   90.02633522
_cell_angle_gamma   115.55533282
_symmetry_Int_Tables_number   1
_chemical_formula_structural   ZnH3C16N(OF2)4
_chemical_formula_sum   'Zn4 H12 C64 N4 O16 F32'
_cell_volume   2260.33284444
_cell_formula_units_Z   4
loop_
 _symmetry_equiv_pos_site_id
 _symmetry_equiv_pos_as_xyz
  1  'x, y, z'
loop_
 _atom_site_type_symbol
 _atom_site_label
 _atom_site_symmetry_multiplicity
 _atom_site_fract_x
 _atom_site_fract_y
 _atom_site_fract_z
 _atom_site_occupancy
 _atom_site_pbe_bader_charge
 _atom_site_pbe_bader_spin_density
 _atom_site_pbe_cm5_charge
 _atom_site_pbe_ddec_charge
 _atom_site_pbe_ddec_spin_density
 _atom_site_pbe_ddec_sum_bond_order
 _atom_site_pbe_magmom
Zn  Zn0  1  0.15043984  0.49906610  0.49463643  1  1.333037  0  0.700587  0.916518  0  2.384392  0
Zn  Zn1  1  0.65153102  0.50106646  0.00541089  1  1.333204  0  0.700748  0.917263  0  2.382113  0
Zn  Zn2  1  0.84953241  0.50092059  0.50536375  1  1.333109  0  0.700646  0.916748  0  2.384265  0
Zn  Zn3  1  0.34848299  0.49892121  0.99458928  1  1.333178  0  0.700707  0.917139  0  2.382302  0
H  H4  1  0.40856412  0.24114556  0.42348809  1  0.137303  0  0.127337  0.190066  0  0.946113  0
H  H5  1  0.16783217  0.75932036  0.07676748  1  0.141389  0  0.12737  0.189965  0  0.946816  0
H  H6  1  0.59146042  0.75883222  0.57651905  1  0.137646  0  0.12734  0.190031  0  0.945897  0
H  H7  1  0.83215269  0.24076790  0.92324049  1  0.141774  0  0.127286  0.189877  0  0.946675  0
H  H8  1  0.57568108  0.38966695  0.41110096  1  0.145998  0  0.124813  0.199005  0  0.983839  0
H  H9  1  0.18618328  0.61069405  0.08919936  1  0.157054  0  0.124923  0.199158  0  0.98235  0
H  H10  1  0.42430893  0.61035318  0.58891747  1  0.145565  0  0.124908  0.199126  0  0.98369  0
H  H11  1  0.81387930  0.38942584  0.91079557  1  0.156896  0  0.124888  0.199022  0  0.982657  0
H  H12  1  0.41664906  0.34081204  0.36177404  1  0.153745  0  0.122454  0.185191  0  0.969237  0
H  H13  1  0.07586836  0.65958481  0.13839266  1  0.13469  0  0.122742  0.185498  0  0.968393  0
H  H14  1  0.58334168  0.65917655  0.63823961  1  0.153481  0  0.122414  0.184997  0  0.969375  0
H  H15  1  0.92414370  0.34046500  0.86160923  1  0.134749  0  0.122702  0.185417  0  0.968589  0
C  C16  1  0.93384559  0.32300175  0.57996836  1  1.657076  0  0.22287  0.638023  0  4.169382  0
C  C17  1  0.61099035  0.67628677  0.91985635  1  1.657606  0  0.222879  0.639166  0  4.168984  0
C  C18  1  0.06613356  0.67699872  0.42003703  1  1.657541  0  0.222939  0.638121  0  4.169877  0
C  C19  1  0.38900165  0.32369405  0.08013470  1  1.657231  0  0.22301  0.639462  0  4.168583  0
C  C20  1  0.89116821  0.22639041  0.63002696  1  0.091663  0  -0.019016  -0.188204  0  3.984034  0
C  C21  1  0.66467110  0.77291926  0.86982705  1  0.086067  0  -0.018817  -0.189392  0  3.985229  0
C  C22  1  0.10884325  0.77359628  0.36997452  1  0.092112  0  -0.019024  -0.188401  0  3.984333  0
C  C23  1  0.33530922  0.22707531  0.13017530  1  0.08623  0  -0.018782  -0.189428  0  3.985009  0
C  C24  1  0.88660984  0.10126138  0.62421513  1  0.594586  0  0.094993  0.166094  0  4.084741  0
C  C25  1  0.78495813  0.89817130  0.87572904  1  0.5749  0  0.094323  0.166392  0  4.085982  0
C  C26  1  0.11340394  0.89873615  0.37578678  1  0.594222  0  0.095007  0.166236  0  4.084118  0
C  C27  1  0.21502932  0.10180452  0.12427505  1  0.575375  0  0.0942  0.166333  0  4.086027  0
C  C28  1  0.84691052  0.01353746  0.67084412  1  0.550734  0  0.088969  0.130422  0  4.077632  0
C  C29  1  0.83287067  0.98589080  0.82908259  1  0.474648  0  0.088614  0.128829  0  4.076987  0
C  C30  1  0.15313359  0.98646502  0.32915432  1  0.550066  0  0.088748  0.130032  0  4.07716  0
C  C31  1  0.16715355  0.01410079  0.17092455  1  0.473669  0  0.088587  0.128839  0  4.077223  0
C  C32  1  0.80983809  0.04656576  0.72542699  1  0.135648  0  -0.024933  -0.09527  0  4.09192  0
C  C33  1  0.76288901  0.95269823  0.77446778  1  0.115231  0  -0.024967  -0.094479  0  4.090862  0
C  C34  1  0.19021377  0.95343572  0.27457493  1  0.136672  0  -0.024583  -0.095039  0  4.091818  0
C  C35  1  0.23713693  0.04728649  0.22553327  1  0.115304  0  -0.025091  -0.094699  0  4.091227  0
C  C36  1  0.81530776  0.17258319  0.73073178  1  0.484242  0  0.088329  0.132446  0  4.079394  0
C  C37  1  0.64247782  0.82662368  0.76912027  1  0.510248  0  0.088926  0.132572  0  4.079649  0
C  C38  1  0.18473557  0.82740742  0.26927275  1  0.484038  0  0.088417  0.13271  0  4.079309  0
C  C39  1  0.35753744  0.17337682  0.23088121  1  0.510895  0  0.088974  0.132746  0  4.079347  0
C  C40  1  0.85505955  0.26043457  0.68425925  1  0.551127  0  0.094189  0.168032  0  4.083038  0
C  C41  1  0.59454870  0.73874537  0.81556420  1  0.618225  0  0.094537  0.168839  0  4.081945  0
C  C42  1  0.14494911  0.73956097  0.31574658  1  0.550987  0  0.094204  0.16802  0  4.083446  0
C  C43  1  0.40542799  0.26125020  0.18443510  1  0.617917  0  0.094398  0.168741  0  4.082117  0
C  C44  1  0.12524934  0.67624692  0.58045398  1  1.650136  0  0.222906  0.637605  0  4.162946  0
C  C45  1  0.44827717  0.32308254  0.91972370  1  1.647274  0  0.223717  0.638581  0  4.162125  0
C  C46  1  0.87472803  0.32374176  0.41954271  1  1.649953  0  0.222706  0.637375  0  4.163327  0
C  C47  1  0.55171126  0.67689526  0.08027996  1  1.646779  0  0.223546  0.638479  0  4.161858  0
C  C48  1  0.17566951  0.77153831  0.63074331  1  0.109644  0  -0.020364  -0.201272  0  3.969218  0
C  C49  1  0.40368244  0.22801297  0.86932314  1  0.071114  0  -0.020245  -0.200501  0  3.96729  0
C  C50  1  0.82428827  0.22849582  0.36923728  1  0.109988  0  -0.020089  -0.201232  0  3.969295  0
C  C51  1  0.59633340  0.77198457  0.13067704  1  0.071021  0  -0.020139  -0.200519  0  3.967413  0
C  C52  1  0.32186738  0.87623248  0.63341175  1  0.547786  0  0.097312  0.171435  0  4.073438  0
C  C53  1  0.44582416  0.12372233  0.86644874  1  0.622432  0  0.096882  0.170252  0  4.074767  0
C  C54  1  0.67811827  0.12377895  0.36657190  1  0.546934  0  0.097172  0.171409  0  4.073427  0
C  C55  1  0.55419106  0.87628016  0.13354752  1  0.62301  0  0.096866  0.170375  0  4.074517  0
C  C56  1  0.36457619  0.96548650  0.67933003  1  0.492371  0  0.09046  0.133271  0  4.080624  0
C  C57  1  0.39957324  0.03470925  0.82044398  1  0.481111  0  0.09109  0.134721  0  4.079602  0
C  C58  1  0.63541438  0.03451209  0.32065797  1  0.493644  0  0.090315  0.133136  0  4.080686  0
C  C59  1  0.60045190  0.96528832  0.17955098  1  0.48058  0  0.091114  0.134792  0  4.079414  0
C  C60  1  0.26520661  0.95291727  0.72532231  1  0.124826  0  -0.02112  -0.08606  0  4.079524  0
C  C61  1  0.31231827  0.04705321  0.77453735  1  0.162164  0  -0.021337  -0.086789  0  4.079628  0
C  C62  1  0.73479154  0.04708822  0.27466742  1  0.123988  0  -0.020982  -0.086098  0  4.079747  0
C  C63  1  0.68769221  0.95293153  0.22545979  1  0.161692  0  -0.021431  -0.086821  0  4.079725  0
C  C64  1  0.11981922  0.84774528  0.72293709  1  0.54274  0  0.090513  0.131915  0  4.081598  0
C  C65  1  0.27152703  0.15187032  0.77708960  1  0.473184  0  0.091259  0.133746  0  4.078993  0
C  C66  1  0.88015991  0.15227996  0.27704829  1  0.542911  0  0.090699  0.132309  0  4.081222  0
C  C67  1  0.72846971  0.84810552  0.22291189  1  0.472068  0  0.0912  0.133502  0  4.079511  0
C  C68  1  0.07515069  0.75967921  0.67654879  1  0.606285  0  0.098697  0.173849  0  4.078261  0
C  C69  1  0.31471421  0.23973856  0.82356824  1  0.580067  0  0.098366  0.17263  0  4.07646  0
C  C70  1  0.92481131  0.24035097  0.32343442  1  0.606143  0  0.098537  0.173794  0  4.078134  0
C  C71  1  0.68527574  0.76024020  0.17643802  1  0.581466  0  0.098515  0.172879  0  4.077042  0
C  C72  1  0.45032106  0.34290414  0.40744242  1  0.029537  0  -0.195375  -0.454448  0  3.93694  0
C  C73  1  0.10767079  0.65754135  0.09276141  1  0.023938  0  -0.195817  -0.454992  0  3.936305  0
C  C74  1  0.54966623  0.65707755  0.59257210  1  0.030102  0  -0.195368  -0.454233  0  3.937084  0
C  C75  1  0.89235302  0.34253609  0.90724049  1  0.023983  0  -0.195713  -0.454708  0  3.937291  0
C  C76  1  0.38422735  0.41234661  0.44127792  1  0.905755  0  0.259649  0.468996  0  3.892785  0
C  C77  1  0.97224070  0.58812663  0.05880197  1  0.940365  0  0.259645  0.469323  0  3.890631  0
C  C78  1  0.61572167  0.58761630  0.55874226  1  0.9059  0  0.259651  0.469108  0  3.891789  0
C  C79  1  0.02777730  0.41191235  0.94119776  1  0.939897  0  0.259791  0.46933  0  3.891845  0
N  N80  1  0.33036463  0.46788982  0.46875450  1  -1.257521  0  -0.324529  -0.40892  0  3.143131  0
N  N81  1  0.86281846  0.53244378  0.03129849  1  -1.282863  0  -0.324271  -0.408966  0  3.140513  0
N  N82  1  0.66960406  0.53207118  0.53125438  1  -1.257954  0  -0.324565  -0.40917  0  3.141631  0
N  N83  1  0.13720362  0.46757448  0.96870124  1  -1.282828  0  -0.324323  -0.408884  0  3.140945  0
O  O84  1  0.06781851  0.36051443  0.56018028  1  -1.150207  0  -0.306946  -0.531741  0  2.284088  0
O  O85  1  0.70760918  0.63891520  0.93964199  1  -1.139297  0  -0.306839  -0.531513  0  2.285105  0
O  O86  1  0.93215947  0.63949199  0.43982032  1  -1.15042  0  -0.306897  -0.531665  0  2.284075  0
O  O87  1  0.29237385  0.36105180  0.06035037  1  -1.139268  0  -0.306847  -0.531629  0  2.285339  0
O  O88  1  0.83117615  0.35722537  0.56391238  1  -1.145438  0  -0.307011  -0.538195  0  2.299217  0
O  O89  1  0.47407522  0.64188397  0.93588813  1  -1.153453  0  -0.306861  -0.538735  0  2.300321  0
O  O90  1  0.16880156  0.64277016  0.43609388  1  -1.145947  0  -0.307044  -0.538209  0  2.299493  0
O  O91  1  0.52592624  0.35808893  0.06410770  1  -1.153126  0  -0.306957  -0.538883  0  2.299845  0
O  O92  1  0.22064622  0.63621266  0.56112802  1  -1.153606  0  -0.305229  -0.543867  0  2.320776  0
O  O93  1  0.58379725  0.36334702  0.93903171  1  -1.160578  0  -0.305515  -0.5446  0  2.320793  0
O  O94  1  0.77933803  0.36376706  0.43888346  1  -1.153661  0  -0.305239  -0.543831  0  2.320818  0
O  O95  1  0.41619789  0.63665451  0.06096064  1  -1.160294  0  -0.305436  -0.544493  0  2.320549  0
O  O96  1  0.99098783  0.64492505  0.56250232  1  -1.154736  0  -0.30436  -0.545956  0  2.339581  0
O  O97  1  0.34509976  0.35403882  0.93771677  1  -1.146464  0  -0.305255  -0.546897  0  2.337086  0
O  O98  1  0.00900842  0.35507458  0.43747482  1  -1.154264  0  -0.304131  -0.545708  0  2.339519  0
O  O99  1  0.65487516  0.64592020  0.06229385  1  -1.146271  0  -0.305166  -0.546892  0  2.337164  0
F  F100  1  0.91901632  0.06221009  0.57249703  1  -0.61124  0  -0.090563  -0.104597  0  1.341279  0
F  F101  1  0.85646122  0.93726740  0.92746882  1  -0.612956  0  -0.090107  -0.104244  0  1.342273  0
F  F102  1  0.08098123  0.93779830  0.42750314  1  -0.611207  0  -0.090607  -0.10465  0  1.341037  0
F  F103  1  0.14351258  0.06271826  0.07253918  1  -0.613155  0  -0.089983  -0.104139  0  1.342443  0
F  F104  1  0.84667228  0.89399454  0.66265555  1  -0.620163  0  -0.085777  -0.112222  0  1.427667  0
F  F105  1  0.95209559  0.10550506  0.83727644  1  -0.624147  0  -0.085107  -0.111241  0  1.428039  0
F  F106  1  0.15338636  0.10602669  0.33734376  1  -0.620071  0  -0.085823  -0.112189  0  1.427038  0
F  F107  1  0.04792527  0.89447568  0.16273069  1  -0.624077  0  -0.08511  -0.111273  0  1.427814  0
F  F108  1  0.77389605  0.20929875  0.78152905  1  -0.627792  0  -0.085044  -0.113572  0  1.416478  0
F  F109  1  0.56455775  0.78981725  0.71827681  1  -0.625021  0  -0.085212  -0.113263  0  1.41678  0
F  F110  1  0.22616512  0.79070071  0.21848373  1  -0.62776  0  -0.085079  -0.113546  0  1.41661  0
F  F111  1  0.43547187  0.21018721  0.28172119  1  -0.625048  0  -0.085178  -0.113236  0  1.416627  0
F  F112  1  0.85778114  0.38051752  0.69250155  1  -0.608752  0  -0.090644  -0.106939  0  1.373616  0
F  F113  1  0.47747791  0.61850853  0.80730621  1  -0.614928  0  -0.090909  -0.10722  0  1.372811  0
F  F114  1  0.14220505  0.61946815  0.30750471  1  -0.60891  0  -0.090677  -0.106969  0  1.37363  0
F  F115  1  0.52247899  0.38151760  0.19269786  1  -0.614845  0  -0.090906  -0.107293  0  1.372735  0
F  F116  1  0.42494626  0.89610306  0.59049565  1  -0.618847  0  -0.084614  -0.104383  0  1.368537  0
F  F117  1  0.52934691  0.10395070  0.90929140  1  -0.619526  0  -0.084183  -0.103942  0  1.37014  0
F  F118  1  0.57502145  0.10388076  0.40948714  1  -0.618691  0  -0.084589  -0.1044  0  1.368486  0
F  F119  1  0.47068693  0.89607254  0.09069964  1  -0.619862  0  -0.084293  -0.104121  0  1.369765  0
F  F120  1  0.50581338  0.06722129  0.67886932  1  -0.624139  0  -0.0852  -0.104465  0  1.420203  0
F  F121  1  0.43951576  0.93324404  0.82077720  1  -0.624344  0  -0.085728  -0.105402  0  1.419815  0
F  F122  1  0.49420468  0.93272497  0.32112783  1  -0.624333  0  -0.085199  -0.104448  0  1.420164  0
F  F123  1  0.56051543  0.06675942  0.17922341  1  -0.62352  0  -0.085731  -0.105436  0  1.419748  0
F  F124  1  0.01946642  0.83017710  0.76666823  1  -0.625178  0  -0.089887  -0.10634  0  1.389164  0
F  F125  1  0.18818425  0.16926060  0.73347003  1  -0.62304  0  -0.090305  -0.107335  0  1.389628  0
F  F126  1  0.98053029  0.16984614  0.23332324  1  -0.625223  0  -0.090004  -0.106505  0  1.388978  0
F  F127  1  0.81178554  0.83069847  0.26653059  1  -0.623471  0  -0.090267  -0.107229  0  1.389741  0
F  F128  1  0.93278206  0.66082916  0.67784478  1  -0.616079  0  -0.083902  -0.096995  0  1.398981  0
F  F129  1  0.27063949  0.33827169  0.82238851  1  -0.608668  0  -0.084241  -0.097007  0  1.398273  0
F  F130  1  0.06719737  0.33918221  0.32215017  1  -0.615903  0  -0.083848  -0.09691  0  1.399002  0
F  F131  1  0.72932729  0.66170612  0.17761080  1  -0.608773  0  -0.084255  -0.097037  0  1.398664  0
