# generated using pymatgen
data_LiH3(C3O)2
_symmetry_space_group_name_H-M   'P 1'
_cell_length_a   5.27942604
_cell_length_b   8.54322846
_cell_length_c   10.35052504
_cell_angle_alpha   80.79075611
_cell_angle_beta   90.00086523
_cell_angle_gamma   90.00041001
_symmetry_Int_Tables_number   1
_chemical_formula_structural   LiH3(C3O)2
_chemical_formula_sum   'Li4 H12 C24 O8'
_cell_volume   460.82588245
_cell_formula_units_Z   4
loop_
 _symmetry_equiv_pos_site_id
 _symmetry_equiv_pos_as_xyz
  1  'x, y, z'
loop_
 _atom_site_type_symbol
 _atom_site_label
 _atom_site_symmetry_multiplicity
 _atom_site_fract_x
 _atom_site_fract_y
 _atom_site_fract_z
 _atom_site_occupancy
 _atom_site_pbe_bader_charge
 _atom_site_pbe_bader_spin_density
 _atom_site_pbe_cm5_charge
 _atom_site_pbe_ddec_charge
 _atom_site_pbe_ddec_spin_density
 _atom_site_pbe_ddec_sum_bond_order
 _atom_site_pbe_magmom
Li  Li0  1  0.88980642  0.14575170  0.98852948  1  0.870463  0  0.515986  0.82579  0  0.484868  0
Li  Li1  1  0.38981833  0.35422521  0.01147740  1  0.870489  0  0.51595  0.825827  0  0.484821  0
Li  Li2  1  0.11017689  0.85423109  0.01147261  1  0.870489  0  0.515966  0.825805  0  0.484864  0
Li  Li3  1  0.61020096  0.64575876  0.98853226  1  0.870471  0  0.515978  0.825809  0  0.484867  0
H  H4  1  0.17590175  0.78788934  0.27535433  1  0.084407  0  0.113341  0.101732  0  1.032283  0
H  H5  1  0.67593546  0.71211248  0.72464430  1  0.084649  0  0.113321  0.101789  0  1.032056  0
H  H6  1  0.82405882  0.21211361  0.72464705  1  0.084638  0  0.113318  0.101853  0  1.032005  0
H  H7  1  0.32409331  0.28788217  0.27535720  1  0.084478  0  0.113324  0.101736  0  1.032116  0
H  H8  1  0.05426073  0.82681146  0.49850497  1  0.114378  0  0.096561  0.096282  0  1.069786  0
H  H9  1  0.55428488  0.67320916  0.50148399  1  0.114336  0  0.096546  0.096223  0  1.069581  0
H  H10  1  0.94570174  0.17320928  0.50149407  1  0.11444  0  0.096556  0.096333  0  1.069552  0
H  H11  1  0.44572873  0.32680211  0.49850663  1  0.114428  0  0.096577  0.096344  0  1.069871  0
H  H12  1  0.85310938  0.06281770  0.29805043  1  0.072828  0  0.113056  0.113674  0  1.023973  0
H  H13  1  0.35315134  0.43721726  0.70195315  1  0.072588  0  0.113011  0.113599  0  1.02401  0
H  H14  1  0.14687204  0.93721728  0.70194191  1  0.072703  0  0.113025  0.113635  0  1.024077  0
H  H15  1  0.64690773  0.56279872  0.29806294  1  0.072875  0  0.113019  0.113607  0  1.024049  0
C  C16  1  0.52372335  0.92408955  0.27268931  1  -0.080828  0  -0.004484  -0.050877  0  3.958727  0
C  C17  1  0.02375501  0.57591681  0.72728740  1  -0.080639  0  -0.004605  -0.050832  0  3.95842  0
C  C18  1  0.47622586  0.07591343  0.72729178  1  -0.080816  0  -0.004589  -0.05087  0  3.958557  0
C  C19  1  0.97626996  0.42409447  0.27268486  1  -0.08127  0  -0.00439  -0.050608  0  3.958712  0
C  C20  1  0.38562211  0.96538763  0.52904821  1  0.061349  0  -0.002529  0.069721  0  3.989587  0
C  C21  1  0.88566032  0.53462399  0.47094366  1  -0.080901  0  -0.002435  0.069785  0  3.989176  0
C  C22  1  0.61433278  0.03464022  0.47094796  1  -0.080434  0  -0.002454  0.069887  0  3.98961  0
C  C23  1  0.11437224  0.46538252  0.52905145  1  0.061145  0  -0.00258  0.069632  0  3.9899  0
C  C24  1  0.29534657  0.85797709  0.33001880  1  -0.081182  0  -0.075845  -0.094079  0  3.972471  0
C  C25  1  0.79537078  0.64201899  0.66997236  1  -0.081214  0  -0.075857  -0.094175  0  3.972485  0
C  C26  1  0.70462727  0.14201046  0.66997687  1  -0.080636  0  -0.075891  -0.094344  0  3.972462  0
C  C27  1  0.20465799  0.35797802  0.33003463  1  -0.081057  0  -0.075912  -0.094231  0  3.972357  0
C  C28  1  0.22838405  0.87862283  0.45467083  1  -0.008269  0  -0.087107  -0.125746  0  3.968282  0
C  C29  1  0.72843048  0.62140042  0.54531661  1  -0.008294  0  -0.086995  -0.125524  0  3.968201  0
C  C30  1  0.77155569  0.12142046  0.54531269  1  -0.009029  0  -0.086903  -0.12552  0  3.968357  0
C  C31  1  0.27161533  0.37861913  0.45468258  1  -0.008481  0  -0.087021  -0.125685  0  3.968737  0
C  C32  1  0.67761473  0.01269668  0.34214092  1  -0.019733  0  -0.067292  -0.125658  0  3.906885  0
C  C33  1  0.17764382  0.48729297  0.65784950  1  -0.019228  0  -0.067251  -0.125573  0  3.907299  0
C  C34  1  0.32235342  0.98729917  0.65785173  1  -0.019374  0  -0.067288  -0.125606  0  3.907473  0
C  C35  1  0.82239253  0.51268274  0.34213130  1  -0.019039  0  -0.067289  -0.125583  0  3.907066  0
C  C36  1  0.60854904  0.88868102  0.14203243  1  1.569002  0  0.246295  0.654675  0  4.178254  0
C  C37  1  0.10857277  0.61131830  0.85798764  1  1.568083  0  0.246408  0.654401  0  4.178196  0
C  C38  1  0.39141911  0.11132429  0.85797926  1  1.568592  0  0.24642  0.654501  0  4.178167  0
C  C39  1  0.89144653  0.38867633  0.14203705  1  1.568934  0  0.246268  0.654408  0  4.178672  0
O  O40  1  0.82773609  0.93622508  0.10132616  1  -1.260398  0  -0.427817  -0.737657  0  2.233303  0
O  O41  1  0.32777808  0.56376391  0.89868678  1  -1.259566  0  -0.427765  -0.737442  0  2.233554  0
O  O42  1  0.17222260  0.06375179  0.89867960  1  -1.260234  0  -0.427822  -0.737493  0  2.233447  0
O  O43  1  0.67226584  0.43621295  0.10131802  1  -1.26041  0  -0.427788  -0.737561  0  2.233503  0
O  O44  1  0.46178823  0.80766651  0.07992076  1  -1.25121  0  -0.420216  -0.728032  0  2.187646  0
O  O45  1  0.96178538  0.69232980  0.92008668  1  -1.251234  0  -0.420281  -0.727957  0  2.18761  0
O  O46  1  0.53821213  0.19232458  0.92008603  1  -1.251124  0  -0.420284  -0.727999  0  2.187672  0
O  O47  1  0.03821119  0.30766484  0.07992738  1  -1.251164  0  -0.420238  -0.727993  0  2.187744  0
