# generated using pymatgen
data_CoH24C30N4(ClO3)2
_symmetry_space_group_name_H-M   'P 1'
_cell_length_a   7.51385213
_cell_length_b   9.74163093
_cell_length_c   9.87850843
_cell_angle_alpha   82.55061338
_cell_angle_beta   77.51500134
_cell_angle_gamma   73.75619012
_symmetry_Int_Tables_number   1
_chemical_formula_structural   CoH24C30N4(ClO3)2
_chemical_formula_sum   'Co1 H24 C30 N4 Cl2 O6'
_cell_volume   675.94903365
_cell_formula_units_Z   1
loop_
 _symmetry_equiv_pos_site_id
 _symmetry_equiv_pos_as_xyz
  1  'x, y, z'
loop_
 _atom_site_type_symbol
 _atom_site_label
 _atom_site_symmetry_multiplicity
 _atom_site_fract_x
 _atom_site_fract_y
 _atom_site_fract_z
 _atom_site_occupancy
 _atom_site_hle17_ddec_charge
 _atom_site_hle17_ddec_spin_density
 _atom_site_hle17_ddec_sum_bond_order
 _atom_site_hle17_magmom
 _atom_site_hse06_10hf_ddec_charge
 _atom_site_hse06_10hf_ddec_spin_density
 _atom_site_hse06_10hf_ddec_sum_bond_order
 _atom_site_hse06_10hf_magmom
 _atom_site_hse06_ddec_charge
 _atom_site_hse06_ddec_spin_density
 _atom_site_hse06_ddec_sum_bond_order
 _atom_site_hse06_magmom
 _atom_site_pbe_cm5_charge
 _atom_site_pbe_ddec_charge
 _atom_site_pbe_ddec_spin_density
 _atom_site_pbe_ddec_sum_bond_order
 _atom_site_pbe_magmom
Co  Co0  1  0.49999832  0.50000052  0.50000106  1  0.792965  -1.104213  2.319315  -1.025  0.788947  -1.030205  2.744171  -0.971  0.86135  -1.024726  2.664193  -0.974  0.632444  0.745059  -1.029456  2.796156  -0.962
H  H1  1  0.86799316  0.42689966  0.62301211  1  0.411926  -0.000366  0.86759  -0.001  0.39039  -0.000596  0.930479  -0.002  0.400057  -0.000431  0.916413  -0.001  0.294269  0.383937  -0.000757  0.93979  -0.002
H  H2  1  0.13200768  0.57310140  0.37698533  1  0.411945  -0.000366  0.867576  -0.001  0.390417  -0.000596  0.930443  -0.002  0.400085  -0.000431  0.916376  -0.001  0.294282  0.383965  -0.000757  0.939754  -0.002
H  H3  1  0.80037519  0.55780678  0.52068063  1  0.39804  0.000732  0.920994  0.001  0.365745  0.000295  0.989381  0.0  0.376815  0.000323  0.973231  0.0  0.282609  0.357945  0.000269  1.000699  0.0
H  H4  1  0.19962325  0.44219321  0.47931830  1  0.39805  0.000731  0.920975  0.001  0.365762  0.000295  0.989349  0.0  0.376831  0.000323  0.973201  0.0  0.282617  0.357963  0.000269  1.000666  0.0
H  H5  1  0.84648913  0.55547594  0.79377086  1  0.124321  -0.000116  0.974409  0.0  0.129696  -0.000154  1.042485  0.0  0.13414  -9.3e-05  1.039121  0.0  0.107513  0.126131  -0.000237  1.045304  0.0
H  H6  1  0.15350187  0.44452627  0.20622487  1  0.124437  -0.000116  0.974387  0.0  0.129774  -0.000154  1.042479  0.0  0.134218  -9.2e-05  1.039116  0.0  0.107552  0.126211  -0.000237  1.045293  0.0
H  H7  1  0.79663339  0.24583303  0.04262627  1  0.088456  2.5e-05  0.961665  0.0  0.098725  2.2e-05  1.026425  0.0  0.100463  1e-05  1.026811  0.0  0.093866  0.097233  4.2e-05  1.026992  0.0
H  H8  1  0.20336796  0.75416581  0.95737944  1  0.088468  2.4e-05  0.961686  0.0  0.098736  2.1e-05  1.026445  0.0  0.100477  1.1e-05  1.026823  0.0  0.093841  0.097243  4.2e-05  1.027012  0.0
H  H9  1  0.51578779  0.33119766  0.25631160  1  0.102396  2.2e-05  0.948455  0.0  0.105667  0.000198  1.022354  0.0  0.109035  0.000136  1.016134  0.0  0.134879  0.103154  0.000263  1.026811  0.0
H  H10  1  0.48421088  0.66880121  0.74369248  1  0.102374  2.2e-05  0.948467  0.0  0.105637  0.000198  1.022401  0.0  0.109008  0.000136  1.016175  0.0  0.134827  0.103122  0.000263  1.026858  0.0
H  H11  1  0.67540943  0.24891997  0.73244742  1  0.109721  0.000288  0.969464  0.0  0.11892  0.000163  1.032353  0.0  0.121634  0.000145  1.031161  0.0  0.098612  0.117023  0.000168  1.033279  0.0
H  H12  1  0.32459812  0.75107671  0.26755660  1  0.109715  0.000286  0.969488  0.0  0.118885  0.000163  1.032413  0.0  0.121595  0.000144  1.031222  0.0  0.098587  0.116988  0.000168  1.03334  0.0
H  H13  1  0.91853452  0.78961803  0.14202802  1  0.089018  1.5e-05  0.996586  0.0  0.096433  1.7e-05  1.065127  0.0  0.098439  3e-06  1.065269  0.0  0.095225  0.09492  2.4e-05  1.065404  0.0
H  H14  1  0.08147022  0.21038294  0.85797593  1  0.088994  1.5e-05  0.996628  0.0  0.096413  1.7e-05  1.065155  0.0  0.098418  3e-06  1.0653  0.0  0.095232  0.094901  2.4e-05  1.065432  0.0
H  H15  1  0.53326464  0.09304885  0.16500540  1  0.07635  3.9e-05  0.951712  0.0  0.088729  2.9e-05  1.020814  0.0  0.089324  1.3e-05  1.020941  0.0  0.106242  0.087677  6.5e-05  1.021812  0.0
H  H16  1  0.46673784  0.90695111  0.83499496  1  0.076336  3.8e-05  0.951771  0.0  0.088735  2.9e-05  1.020866  0.0  0.089332  1.3e-05  1.020996  0.0  0.106232  0.08768  6.5e-05  1.021864  0.0
H  H17  1  0.63403080  0.93146963  0.25470096  1  0.094365  5.1e-05  0.922932  0.0  0.108056  4.6e-05  0.985678  0.0  0.109247  2.6e-05  0.985411  0.0  0.115926  0.107107  4.3e-05  0.986055  0.0
H  H18  1  0.36596449  0.06853143  0.74530033  1  0.094397  5e-05  0.922945  0.0  0.108049  4.6e-05  0.985748  0.0  0.10924  2.6e-05  0.985481  0.0  0.115915  0.1071  4.3e-05  0.986123  0.0
H  H19  1  0.82415024  0.83061153  0.43697209  1  0.118181  6e-05  0.974411  0.0  0.12543  3.5e-05  1.039765  0.0  0.128683  2.4e-05  1.037744  0.0  0.102863  0.12312  6e-05  1.041085  0.0
H  H20  1  0.17585191  0.16938951  0.56302718  1  0.118171  5.9e-05  0.97439  0.0  0.125385  3.5e-05  1.039781  0.0  0.128655  2.4e-05  1.037741  0.0  0.102846  0.123065  6e-05  1.041111  0.0
H  H21  1  0.82323379  0.99923015  0.82063903  1  0.075972  -1.2e-05  1.005815  0.0  0.085241  1e-05  1.071819  0.0  0.086149  5e-06  1.074346  0.0  0.087973  0.08424  1.9e-05  1.070584  0.0
H  H22  1  0.17678041  0.00076765  0.17935679  1  0.075891  -1.1e-05  1.005816  0.0  0.085175  1.1e-05  1.071824  0.0  0.086082  5e-06  1.074354  0.0  0.087997  0.084176  1.9e-05  1.070587  0.0
H  H23  1  0.89755387  0.79536701  0.67539827  1  0.085489  7.3e-05  0.948462  0.0  0.100365  -1.1e-05  1.002903  0.0  0.10238  -4e-06  1.002747  0.0  0.095489  0.098746  -2.1e-05  1.003435  0.0
H  H24  1  0.10246172  0.20463079  0.32459632  1  0.08552  7.3e-05  0.948436  0.0  0.10035  -1.2e-05  1.002922  0.0  0.102364  -4e-06  1.002766  0.0  0.095499  0.09873  -2.1e-05  1.003465  0.0
C  C25  1  0.89240561  0.53876684  0.13282491  1  -0.087327  0.002944  3.729311  0.002  -0.074568  0.001424  3.970912  0.001  -0.079132  0.00078  3.988146  0.0  -0.015976  -0.073037  0.00247  3.961728  0.001
C  C26  1  0.10757859  0.46123541  0.86717081  1  -0.087142  0.002947  3.729045  0.002  -0.074366  0.001422  3.970658  0.001  -0.07893  0.000772  3.987892  0.0  -0.015922  -0.072834  0.002469  3.961473  0.001
C  C27  1  0.78917744  0.57022965  0.27870372  1  0.647532  0.006811  3.869547  0.004  0.598189  0.00302  4.174556  0.002  0.636618  0.001526  4.163879  0.001  0.215483  0.571425  0.004624  4.181896  0.003
C  C28  1  0.21081183  0.42976932  0.72129567  1  0.647352  0.006812  3.870008  0.004  0.597945  0.003021  4.175107  0.002  0.636376  0.001528  4.164432  0.001  0.215395  0.571181  0.004625  4.182442  0.003
C  C29  1  0.66637553  0.17890820  0.53548465  1  0.141748  0.004625  3.795965  0.004  0.142902  0.002147  4.045012  0.002  0.147585  0.001775  4.067867  0.001  0.088231  0.13993  0.002075  4.029851  0.002
C  C30  1  0.33362358  0.82108963  0.46451644  1  0.141778  0.004629  3.795907  0.004  0.14287  0.002146  4.045026  0.002  0.147551  0.001777  4.067881  0.001  0.088265  0.139897  0.002075  4.029864  0.002
C  C31  1  0.91462427  0.53153212  0.88421800  1  -0.13549  0.000495  3.712939  0.0  -0.167399  0.000176  3.966011  0.0  -0.169192  1.1e-05  3.984099  0.0  -0.090541  -0.166837  0.0005  3.955793  0.0
C  C32  1  0.08536016  0.46847331  0.11577935  1  -0.135509  0.000498  3.713005  0.0  -0.167359  0.000175  3.966035  0.0  -0.169154  5e-06  3.984127  0.0  -0.09051  -0.166797  0.0005  3.955817  0.0
C  C33  1  0.70845310  0.06050228  0.45355106  1  0.097903  -0.000129  3.780781  0.0  0.086525  0.000323  4.025281  0.0  0.08956  0.000241  4.048054  0.0  0.091156  0.084139  0.000313  4.010195  0.0
C  C34  1  0.29154766  0.93949876  0.54644943  1  0.097999  -0.00013  3.780805  0.0  0.086656  0.000323  4.025268  0.0  0.089694  0.000241  4.048043  0.0  0.091193  0.08427  0.000313  4.010178  0.0
C  C35  1  0.80929605  0.57050981  0.01421496  1  0.121529  0.001103  3.772428  0.001  0.122304  0.000516  4.045491  0.0  0.126858  0.000233  4.064656  0.0  0.015287  0.119192  0.00085  4.034318  0.0
C  C36  1  0.19069727  0.42949343  0.98578233  1  0.121444  0.0011  3.772246  0.001  0.122232  0.000517  4.045265  0.0  0.126786  0.00024  4.064431  0.0  0.015309  0.119121  0.00085  4.03409  0.0
C  C37  1  0.83536768  0.01908133  0.10401083  1  0.0659  0.000201  3.742798  0.0  0.085328  0.000117  3.981651  0.0  0.085127  6.7e-05  4.004136  0.0  -0.012363  0.085795  0.000201  3.965825  0.0
C  C38  1  0.16463650  0.98091754  0.89599041  1  0.065835  0.000204  3.742834  0.0  0.085282  0.000118  3.981672  0.0  0.08508  7e-05  4.004158  0.0  -0.012381  0.085747  0.000201  3.965849  0.0
C  C39  1  0.88495445  0.13745520  0.02478342  1  -0.108873  -6e-06  3.73371  0.0  -0.127129  8e-06  3.978607  0.0  -0.129308  1e-06  3.999875  0.0  -0.093285  -0.125231  5.7e-05  3.963682  0.0
C  C40  1  0.11505167  0.86254577  0.97522033  1  -0.108875  -5e-06  3.733893  0.0  -0.127113  7e-06  3.978727  0.0  -0.129292  -1e-06  3.999998  0.0  -0.093255  -0.125214  5.7e-05  3.9638  0.0
C  C41  1  0.57661536  0.26015929  0.33772580  1  0.206462  0.014128  3.613437  0.009  0.145634  0.005878  3.890545  0.004  0.167032  0.003839  3.897304  0.002  0.158141  0.131092  0.007893  3.885498  0.005
C  C42  1  0.42338123  0.73984173  0.66227835  1  0.206479  0.014128  3.613412  0.009  0.14564  0.005877  3.890494  0.004  0.167037  0.003839  3.897255  0.002  0.158178  0.131098  0.007894  3.885447  0.005
C  C43  1  0.70812657  0.15855376  0.66906993  1  -0.146683  -0.001284  3.751171  -0.002  -0.168325  -0.000234  4.00415  -0.001  -0.171186  -0.000174  4.023639  0.0  -0.098482  -0.166706  -0.00025  3.990768  -0.001
C  C44  1  0.29188206  0.84144402  0.33093076  1  -0.14677  -0.001282  3.751197  -0.002  -0.16837  -0.000236  4.004201  -0.001  -0.171234  -0.000176  4.023704  0.0  -0.098529  -0.166751  -0.00025  3.990819  -0.001
C  C45  1  0.95262518  0.88195187  0.07823673  1  -0.110247  6.4e-05  3.749397  0.0  -0.127455  3.6e-05  3.994141  0.0  -0.129855  1.6e-05  4.015542  0.0  -0.090998  -0.12548  4.6e-05  3.978897  0.0
C  C46  1  0.04737859  0.11804805  0.92176648  1  -0.110191  6.4e-05  3.749275  0.0  -0.127394  3.5e-05  3.994028  0.0  -0.129792  1.3e-05  4.015428  0.0  -0.090989  -0.125423  4.6e-05  3.978791  0.0
C  C47  1  0.65587790  0.03646629  0.21224871  1  -0.034064  2.7e-05  3.656073  0.0  -0.100109  4.2e-05  3.901819  0.0  -0.095723  2.6e-05  3.912477  0.0  -0.045451  -0.102917  9.2e-05  3.894799  0.0
C  C48  1  0.34412769  0.96353259  0.78775029  1  -0.034038  2.8e-05  3.65617  0.0  -0.100091  4.2e-05  3.901887  0.0  -0.095711  2.6e-05  3.912551  0.0  -0.045439  -0.102899  9.2e-05  3.894866  0.0
C  C49  1  0.79173958  0.92084644  0.50067432  1  -0.137303  0.002125  3.738099  0.001  -0.158603  0.000523  3.998113  0.0  -0.160806  0.000428  4.01799  0.0  -0.096583  -0.157047  0.000542  3.984418  0.0
C  C50  1  0.20826470  0.07915247  0.49932285  1  -0.137287  0.002132  3.738135  0.001  -0.158556  0.000522  3.998126  0.0  -0.16077  0.000428  4.017993  0.0  -0.09654  -0.156991  0.000542  3.984438  0.0
C  C51  1  0.79005725  0.01907576  0.71682403  1  -0.090795  0.00243  3.810816  0.002  -0.107038  0.000796  4.068676  0.001  -0.108858  0.000547  4.092179  0.0  -0.106636  -0.105101  0.000847  4.052326  0.001
C  C52  1  0.20995316  0.98092096  0.28317450  1  -0.090675  0.002421  3.810693  0.002  -0.106924  0.0008  4.068543  0.001  -0.108743  0.000551  4.092041  0.0  -0.106643  -0.104987  0.000847  4.052196  0.001
C  C53  1  0.83159500  0.90252716  0.63414366  1  -0.065596  -0.001217  3.771984  -0.002  -0.082362  -0.000273  4.029876  0.0  -0.084519  -0.00023  4.051875  0.0  -0.098714  -0.081102  -0.000308  4.014763  0.0
C  C54  1  0.16841163  0.09747280  0.36585405  1  -0.065641  -0.001218  3.771928  -0.002  -0.082382  -0.000274  4.029836  0.0  -0.084538  -0.000229  4.051837  0.0  -0.098737  -0.081126  -0.000308  4.014724  0.0
N  N55  1  0.58431315  0.30219713  0.45896380  1  -0.357363  0.014137  3.314285  0.008  -0.325831  0.009413  3.618672  0.007  -0.354562  0.009305  3.630094  0.007  -0.363892  -0.307363  0.008576  3.611002  0.006
N  N56  1  0.41568655  0.69780282  0.54103899  1  -0.357299  0.014137  3.314224  0.008  -0.325747  0.009414  3.618616  0.007  -0.354479  0.009306  3.630043  0.007  -0.363852  -0.307277  0.008576  3.610942  0.006
N  N57  1  0.64968020  0.11645493  0.32915728  1  -0.116356  0.001965  3.525376  0.001  -0.028075  0.001582  3.746991  0.001  -0.044819  0.001121  3.77067  0.001  -0.240438  -0.01667  0.001994  3.730447  0.001
N  N58  1  0.35031644  0.88354611  0.67084483  1  -0.116478  0.001966  3.52554  0.001  -0.028179  0.001584  3.74714  0.001  -0.044924  0.001121  3.770819  0.001  -0.240462  -0.016775  0.001994  3.730595  0.001
Cl  Cl59  1  0.57522007  0.66625187  0.02328540  1  -0.072074  0.000601  1.390042  0.0  -0.05635  0.000346  1.631043  0.0  -0.058922  0.000216  1.625124  0.0  0.026342  -0.055077  0.000305  1.636879  0.0
Cl  Cl60  1  0.42476789  0.33374713  0.97671215  1  -0.072085  0.000602  1.389973  0.0  -0.056371  0.000347  1.63095  0.0  -0.058945  0.000217  1.625035  0.0  0.026325  -0.055105  0.000305  1.636799  0.0
O  O61  1  0.63062329  0.53874097  0.31390805  1  -0.557171  0.016418  2.210177  0.012  -0.530032  0.006818  2.498489  0.006  -0.570264  0.006885  2.489428  0.006  -0.291697  -0.502103  0.005136  2.503736  0.004
O  O62  1  0.36936487  0.46126121  0.68609216  1  -0.557168  0.016418  2.21029  0.012  -0.530018  0.006818  2.498635  0.006  -0.570255  0.006884  2.489586  0.006  -0.291749  -0.502086  0.005136  2.503872  0.004
O  O63  1  0.75436662  0.50141691  0.60651028  1  -0.809845  -0.017414  1.888839  -0.03  -0.771754  -0.018466  2.079451  -0.029  -0.794898  -0.014766  2.046433  -0.024  -0.577049  -0.753553  -0.022483  2.101562  -0.035
O  O64  1  0.24563455  0.49858308  0.39348824  1  -0.809903  -0.017414  1.888882  -0.03  -0.771814  -0.018467  2.079452  -0.029  -0.794957  -0.014767  2.046432  -0.024  -0.577064  -0.753618  -0.022484  2.101562  -0.035
O  O65  1  0.86990270  0.61768717  0.35568171  1  -0.622657  0.003265  2.006538  0.003  -0.563804  0.000859  2.223597  0.001  -0.587852  0.000361  2.211008  0.0  -0.304285  -0.547184  0.00131  2.232141  0.001
O  O66  1  0.13008899  0.38231289  0.64431517  1  -0.622554  0.003266  2.00684  0.003  -0.563656  0.00086  2.223886  0.001  -0.587708  0.00036  2.211304  0.0  -0.304178  -0.547034  0.001311  2.232422  0.001
