# generated using pymatgen
data_ZnH16C8S2(NO2)2
_symmetry_space_group_name_H-M   'P 1'
_cell_length_a   5.25559161
_cell_length_b   9.58580618
_cell_length_c   13.29292348
_cell_angle_alpha   107.55556830
_cell_angle_beta   90.00057310
_cell_angle_gamma   89.99984401
_symmetry_Int_Tables_number   1
_chemical_formula_structural   ZnH16C8S2(NO2)2
_chemical_formula_sum   'Zn2 H32 C16 S4 N4 O8'
_cell_volume   638.49460444
_cell_formula_units_Z   2
loop_
 _symmetry_equiv_pos_site_id
 _symmetry_equiv_pos_as_xyz
  1  'x, y, z'
loop_
 _atom_site_type_symbol
 _atom_site_label
 _atom_site_symmetry_multiplicity
 _atom_site_fract_x
 _atom_site_fract_y
 _atom_site_fract_z
 _atom_site_occupancy
 _atom_site_pbe_bader_spin_density
 _atom_site_pbe_cm5_charge
 _atom_site_pbe_ddec_charge
 _atom_site_pbe_ddec_spin_density
 _atom_site_pbe_ddec_sum_bond_order
 _atom_site_pbe_magmom
Zn  Zn0  1  0.02569810  0.24204931  0.03929915  1  0  0.679461  0.834063  0  2.257502  0
Zn  Zn1  1  0.52570546  0.75795624  0.96070154  1  0  0.67949  0.834194  0  2.257192  0
H  H2  1  0.59266310  0.31668033  0.15209438  1  0  0.286501  0.276158  0  0.996043  0
H  H3  1  0.09267590  0.68331978  0.84789937  1  0  0.286531  0.276273  0  0.995934  0
H  H4  1  0.60633087  0.38594302  0.05489311  1  0  0.298513  0.296409  0  0.950473  0
H  H5  1  0.10634283  0.61404726  0.94510534  1  0  0.298482  0.296331  0  0.950468  0
H  H6  1  0.66125451  0.59087697  0.19444913  1  0  0.109644  0.071952  0  0.996961  0
H  H7  1  0.16129074  0.40913193  0.80554830  1  0  0.109566  0.071805  0  0.997082  0
H  H8  1  0.01405030  0.39878499  0.28093766  1  0  0.103373  0.124754  0  0.986351  0
H  H9  1  0.51404855  0.60123369  0.71906658  1  0  0.103359  0.124733  0  0.986213  0
H  H10  1  0.98576785  0.59186441  0.33546278  1  0  0.101503  0.118727  0  1.002474  0
H  H11  1  0.48579472  0.40813700  0.66452901  1  0  0.101491  0.118664  0  1.002492  0
H  H12  1  0.40966127  0.67736686  0.34293958  1  0  0.088693  0.134323  0  1.015951  0
H  H13  1  0.90967676  0.32263234  0.65706347  1  0  0.088698  0.13434  0  1.015904  0
H  H14  1  0.32806034  0.64224590  0.46418290  1  0  0.085759  0.123013  0  1.072328  0
H  H15  1  0.82807437  0.35774122  0.53581646  1  0  0.085748  0.123023  0  1.072388  0
H  H16  1  0.62435389  0.72683373  0.45313767  1  0  0.088765  0.135696  0  1.030643  0
H  H17  1  0.12436713  0.27316313  0.54686754  1  0  0.08875  0.13568  0  1.030642  0
H  H18  1  0.21755392  0.20659302  0.84901166  1  0  0.284052  0.278521  0  0.997467  0
H  H19  1  0.71755716  0.79340935  0.15098607  1  0  0.283985  0.278452  0  0.997581  0
H  H20  1  0.90661243  0.25234993  0.86177868  1  0  0.280119  0.278424  0  1.019354  0
H  H21  1  0.40661402  0.74765473  0.13821952  1  0  0.280115  0.278457  0  1.019338  0
H  H22  1  0.81313052  0.03197914  0.76922965  1  0  0.113329  0.08328  0  0.967545  0
H  H23  1  0.31312174  0.96802438  0.23077321  1  0  0.113313  0.083297  0  0.967455  0
H  H24  1  0.12912865  0.82216087  0.74517421  1  0  0.09247  0.101937  0  1.05154  0
H  H25  1  0.62914791  0.17782396  0.25482691  1  0  0.092517  0.102022  0  1.051557  0
H  H26  1  0.35208602  0.95270653  0.81923974  1  0  0.103262  0.128378  0  1.001717  0
H  H27  1  0.85207373  0.04729702  0.18076704  1  0  0.103251  0.12836  0  1.001885  0
H  H28  1  0.00024838  0.78380695  0.55918673  1  0  0.084095  0.123648  0  1.047859  0
H  H29  1  0.50025130  0.21618436  0.44080777  1  0  0.084111  0.123633  0  1.047758  0
H  H30  1  0.05411920  0.91203135  0.48764763  1  0  0.088375  0.138892  0  1.029613  0
H  H31  1  0.55410194  0.08796328  0.51235080  1  0  0.088387  0.138906  0  1.029654  0
H  H32  1  0.83664702  0.95536822  0.59556403  1  0  0.081892  0.116566  0  1.058605  0
H  H33  1  0.33663705  0.04463093  0.40443271  1  0  0.081879  0.11651  0  1.058557  0
C  C34  1  0.80767201  0.50583085  0.18290273  1  0  -0.009123  0.042785  0  3.890497  0
C  C35  1  0.30771944  0.49416613  0.81711224  1  0  -0.00907  0.042813  0  3.890523  0
C  C36  1  0.04292572  0.55641380  0.13406189  1  0  0.203969  0.565237  0  4.179928  0
C  C37  1  0.54292496  0.44357424  0.86592755  1  0  0.203955  0.565304  0  4.180349  0
C  C38  1  0.88459914  0.49233781  0.29086861  1  0  -0.148925  -0.233876  0  3.896625  0
C  C39  1  0.38460563  0.50767010  0.70912194  1  0  -0.148873  -0.23371  0  3.895992  0
C  C40  1  0.48401353  0.64608106  0.41027369  1  0  -0.236645  -0.402548  0  3.931266  0
C  C41  1  0.98401947  0.35391927  0.58972688  1  0  -0.236597  -0.402544  0  3.931167  0
C  C42  1  0.96518075  0.03227915  0.82659089  1  0  -0.000889  0.059945  0  3.850483  0
C  C43  1  0.46518570  0.96773540  0.17341495  1  0  -0.000836  0.060054  0  3.850551  0
C  C44  1  0.33567408  0.03282132  0.09381663  1  0  0.215491  0.5797  0  4.117439  0
C  C45  1  0.83569774  0.96716906  0.90616692  1  0  0.215623  0.579879  0  4.117008  0
C  C46  1  0.18461235  0.93783452  0.76793294  1  0  -0.153303  -0.225223  0  3.890902  0
C  C47  1  0.68460510  0.06215580  0.23206205  1  0  -0.153328  -0.225244  0  3.891226  0
C  C48  1  0.01694270  0.90043608  0.56588058  1  0  -0.238662  -0.398217  0  3.926032  0
C  C49  1  0.51692905  0.09955634  0.43411873  1  0  -0.23865  -0.398087  0  3.925894  0
S  S50  1  0.61982321  0.46488829  0.37010305  1  0  -0.025282  0.017857  0  2.724889  0
S  S51  1  0.11983508  0.53511513  0.62989980  1  0  -0.025267  0.017884  0  2.725158  0
S  S52  1  0.28138190  0.98097766  0.65010684  1  0  -0.039603  0.000868  0  2.70007  0
S  S53  1  0.78137227  0.01901054  0.34990236  1  0  -0.039649  0.000776  0  2.699828  0
N  N54  1  0.71564764  0.36553077  0.11284610  1  0  -0.625618  -0.584868  0  3.38943  0
N  N55  1  0.21566557  0.63446614  0.88715646  1  0  -0.625623  -0.58499  0  3.389428  0
N  N56  1  0.04530734  0.18472397  0.87783312  1  0  -0.632142  -0.602726  0  3.406257  0
N  N57  1  0.54530589  0.81528487  0.12216836  1  0  -0.632181  -0.602927  0  3.4064  0
O  O58  1  0.18377713  0.45740143  0.07309714  1  0  -0.326598  -0.550562  0  2.240896  0
O  O59  1  0.68376781  0.54258451  0.92690217  1  0  -0.326586  -0.550656  0  2.240732  0
O  O60  1  0.08487335  0.69218719  0.16048787  1  0  -0.326941  -0.557621  0  2.16362  0
O  O61  1  0.58486513  0.30781732  0.83952410  1  0  -0.326934  -0.557572  0  2.163991  0
O  O62  1  0.26293066  0.16686416  0.13046633  1  0  -0.325131  -0.556695  0  2.331256  0
O  O63  1  0.76292567  0.83315137  0.86953819  1  0  -0.325162  -0.556746  0  2.331814  0
O  O64  1  0.79556930  0.04757583  0.99860218  1  0  -0.300524  -0.518981  0  2.357612  0
O  O65  1  0.29556036  0.95243972  0.00140398  1  0  -0.300372  -0.518728  0  2.358429  0
