# generated using pymatgen
data_CdH22C28S2(N3O)2
_symmetry_space_group_name_H-M   'P 1'
_cell_length_a   10.86666044
_cell_length_b   12.81177954
_cell_length_c   13.39458313
_cell_angle_alpha   118.61754598
_cell_angle_beta   110.77967231
_cell_angle_gamma   89.98405800
_symmetry_Int_Tables_number   1
_chemical_formula_structural   CdH22C28S2(N3O)2
_chemical_formula_sum   'Cd2 H44 C56 S4 N12 O4'
_cell_volume   1497.46230830
_cell_formula_units_Z   2
loop_
 _symmetry_equiv_pos_site_id
 _symmetry_equiv_pos_as_xyz
  1  'x, y, z'
loop_
 _atom_site_type_symbol
 _atom_site_label
 _atom_site_symmetry_multiplicity
 _atom_site_fract_x
 _atom_site_fract_y
 _atom_site_fract_z
 _atom_site_occupancy
 _atom_site_pbe_bader_charge
 _atom_site_pbe_bader_spin_density
 _atom_site_pbe_cm5_charge
 _atom_site_pbe_ddec_charge
 _atom_site_pbe_ddec_spin_density
 _atom_site_pbe_ddec_sum_bond_order
 _atom_site_pbe_magmom
Cd  Cd0  1  0.75001427  0.92137395  0.00018755  1  1.172218  0  0.715164  0.725889  0  2.517656  0
Cd  Cd1  1  0.24998939  0.07862990  0.99981592  1  1.172191  0  0.715212  0.725908  0  2.517633  0
H  H2  1  0.90372753  0.78479035  0.13516192  1  0.069879  0  0.113062  0.085932  0  0.998372  0
H  H3  1  0.88989220  0.69580081  0.26321838  1  0.069012  0  0.106086  0.113938  0  1.014442  0
H  H4  1  0.69765891  0.72089299  0.32984664  1  0.113699  0  0.106706  0.110061  0  1.026792  0
H  H5  1  0.55136324  0.90858643  0.13009592  1  0.105594  0  0.113827  0.094471  0  0.997526  0
H  H6  1  0.39537074  0.79767753  0.19079595  1  0.044632  0  0.101236  0.07355  0  0.97637  0
H  H7  1  0.49605581  0.93750681  0.32516358  1  0.090846  0  0.101853  0.078138  0  1.021542  0
H  H8  1  0.54659522  0.74428744  0.52155384  1  0.098084  0  0.101978  0.110258  0  1.067677  0
H  H9  1  0.42529846  0.79551735  0.65962743  1  0.077726  0  0.096318  0.101236  0  1.03246  0
H  H10  1  0.23024365  0.89640500  0.62995152  1  0.073942  0  0.095412  0.093543  0  1.069962  0
H  H11  1  0.28425382  0.90065355  0.32744117  1  0.083124  0  0.09646  0.110078  0  1.054093  0
H  H12  1  0.09821203  0.97869441  0.37965243  1  0.092069  0  0.111932  0.0774  0  1.005294  0
H  H13  1  0.59638456  0.64955667  0.86481749  1  0.112828  0  0.112868  0.086092  0  0.997489  0
H  H14  1  0.61062920  0.43242991  0.73666266  1  0.076587  0  0.106044  0.114181  0  1.01463  0
H  H15  1  0.80302496  0.39121578  0.67022729  1  0.123248  0  0.106967  0.110234  0  1.026397  0
H  H16  1  0.94836188  0.77901580  0.86989612  1  0.101059  0  0.113679  0.094151  0  0.998243  0
H  H17  1  0.10483785  0.60762398  0.80939323  1  0.046915  0  0.101195  0.073616  0  0.975699  0
H  H18  1  0.00401843  0.61265070  0.67488937  1  0.070996  0  0.101676  0.077948  0  1.021393  0
H  H19  1  0.95361875  0.22295762  0.47855891  1  0.115044  0  0.102135  0.1109  0  1.067375  0
H  H20  1  0.07482069  0.13593841  0.34031590  1  0.0745  0  0.096492  0.101105  0  1.031118  0
H  H21  1  0.26983149  0.26658249  0.37009468  1  0.111283  0  0.095239  0.093522  0  1.070743  0
H  H22  1  0.21607599  0.57360654  0.67296947  1  0.094483  0  0.096747  0.110904  0  1.054163  0
H  H23  1  0.40203705  0.59933029  0.62060700  1  0.108103  0  0.111939  0.076927  0  1.006519  0
H  H24  1  0.09627237  0.21520802  0.86484147  1  0.069872  0  0.11304  0.085857  0  0.998411  0
H  H25  1  0.11010415  0.30419882  0.73678352  1  0.069087  0  0.106078  0.113931  0  1.014459  0
H  H26  1  0.30233723  0.27910634  0.67015404  1  0.113779  0  0.106698  0.110033  0  1.026805  0
H  H27  1  0.44863507  0.09141546  0.86990372  1  0.105603  0  0.113872  0.094535  0  0.997489  0
H  H28  1  0.60462598  0.20232219  0.80920332  1  0.044657  0  0.10126  0.073568  0  0.976373  0
H  H29  1  0.50394229  0.06249231  0.67483690  1  0.090846  0  0.101869  0.078198  0  1.021477  0
H  H30  1  0.45340658  0.25571094  0.47844502  1  0.09798  0  0.101983  0.110255  0  1.067714  0
H  H31  1  0.57470316  0.20448223  0.34037172  1  0.077699  0  0.096312  0.101225  0  1.032401  0
H  H32  1  0.76975702  0.10359333  0.37005092  1  0.073934  0  0.095407  0.093532  0  1.070024  0
H  H33  1  0.71574266  0.09934191  0.67255743  1  0.083094  0  0.096472  0.110072  0  1.054094  0
H  H34  1  0.90178840  0.02130212  0.62034728  1  0.092037  0  0.111912  0.077345  0  1.005279  0
H  H35  1  0.40362150  0.35044834  0.13518898  1  0.112887  0  0.112852  0.086077  0  0.99753  0
H  H36  1  0.38937312  0.56757680  0.26334186  1  0.07651  0  0.106043  0.114184  0  1.014575  0
H  H37  1  0.19697477  0.60878775  0.32977582  1  0.12322  0  0.106963  0.110228  0  1.026368  0
H  H38  1  0.05164297  0.22098788  0.13010810  1  0.100843  0  0.113652  0.094142  0  0.998239  0
H  H39  1  0.89516255  0.39237427  0.19060367  1  0.046898  0  0.101236  0.073661  0  0.975709  0
H  H40  1  0.99598320  0.38734962  0.32511053  1  0.071016  0  0.101675  0.077949  0  1.021363  0
H  H41  1  0.04637868  0.77703907  0.52143640  1  0.115064  0  0.102145  0.11092  0  1.067333  0
H  H42  1  0.92518093  0.86406116  0.65968325  1  0.07456  0  0.096505  0.101123  0  1.031062  0
H  H43  1  0.73017149  0.73341498  0.62990418  1  0.111325  0  0.095239  0.093541  0  1.070741  0
H  H44  1  0.78392230  0.42639461  0.32702942  1  0.094441  0  0.096743  0.110858  0  1.054225  0
H  H45  1  0.59796222  0.40066791  0.37939347  1  0.108088  0  0.111929  0.076892  0  1.006509  0
C  C46  1  0.82071507  0.79060270  0.16416035  1  0.458082  0  0.037504  0.07537  0  3.974025  0
C  C47  1  0.81233648  0.74180816  0.23504764  1  0.054818  0  -0.084621  -0.115818  0  3.982845  0
C  C48  1  0.70518376  0.75537117  0.27160736  1  -0.036835  0  -0.069754  -0.079232  0  3.91606  0
C  C49  1  0.60860398  0.81635195  0.23488149  1  0.000722  0  -0.004749  0.048465  0  3.944786  0
C  C50  1  0.62415977  0.86086137  0.16205693  1  0.452498  0  0.046613  0.039992  0  3.919549  0
C  C51  1  0.49212958  0.83888500  0.27324627  1  0.439048  0  -0.057296  -0.011947  0  3.916472  0
C  C52  1  0.42492124  0.82058636  0.41808388  1  0.435282  0  0.079185  0.25109  0  4.075184  0
C  C53  1  0.46260478  0.78973806  0.51036508  1  -0.038398  0  -0.09839  -0.185403  0  3.972713  0
C  C54  1  0.39268467  0.81705035  0.58607520  1  -0.024299  0  -0.093297  -0.061666  0  4.026999  0
C  C55  1  0.28373665  0.87317102  0.56962360  1  0.021075  0  -0.097393  -0.147711  0  3.980247  0
C  C56  1  0.24308176  0.90162249  0.47495894  1  -0.074377  0  -0.015156  0.083942  0  4.042361  0
C  C57  1  0.31519048  0.87645335  0.39930637  1  -0.031535  0  -0.105181  -0.258388  0  3.932624  0
C  C58  1  0.12594657  0.95565020  0.45294073  1  0.589398  0  0.071917  0.053853  0  3.908008  0
C  C59  1  0.90075123  0.01674969  0.87082290  1  0.520241  0  0.143846  0.258842  0  4.317238  0
C  C60  1  0.67940260  0.62644696  0.83579726  1  0.402217  0  0.037858  0.07523  0  3.971947  0
C  C61  1  0.68808886  0.50675958  0.76497929  1  0.065211  0  -0.084972  -0.116759  0  3.983624  0
C  C62  1  0.79524951  0.48395074  0.72843203  1  -0.058187  0  -0.070303  -0.079639  0  3.917445  0
C  C63  1  0.89159290  0.58183965  0.76518835  1  0.007751  0  -0.004444  0.049132  0  3.946187  0
C  C64  1  0.87579912  0.69917986  0.83798412  1  0.486905  0  0.046651  0.040277  0  3.920073  0
C  C65  1  0.00809829  0.56612619  0.72692365  1  0.458368  0  -0.057575  -0.012686  0  3.91487  0
C  C66  1  0.07539402  0.40278432  0.58215240  1  0.433398  0  0.079289  0.252459  0  4.075191  0
C  C67  1  0.03764430  0.27955604  0.48976366  1  -0.005526  0  -0.098292  -0.187226  0  3.973872  0
C  C68  1  0.10748579  0.23110471  0.41397422  1  -0.055143  0  -0.093894  -0.060988  0  4.023393  0
C  C69  1  0.21641579  0.30370407  0.43050357  1  -0.048231  0  -0.096674  -0.147514  0  3.9809  0
C  C70  1  0.25709508  0.42689312  0.52525365  1  -0.005052  0  -0.015108  0.084667  0  4.04445  0
C  C71  1  0.18510975  0.47748363  0.60100882  1  -0.074996  0  -0.105671  -0.260424  0  3.933946  0
C  C72  1  0.37422128  0.50292004  0.54725868  1  0.549885  0  0.071652  0.053919  0  3.908741  0
C  C73  1  0.59917909  0.14622509  0.12942099  1  0.515427  0  0.143235  0.257744  0  4.31678  0
C  C74  1  0.17928560  0.20939885  0.83584078  1  0.457985  0  0.037582  0.075538  0  3.974259  0
C  C75  1  0.18766356  0.25818678  0.76495320  1  0.054732  0  -0.084665  -0.115897  0  3.983223  0
C  C76  1  0.29480862  0.24462589  0.72839192  1  -0.036877  0  -0.069757  -0.079117  0  3.916231  0
C  C77  1  0.39139211  0.18364760  0.76511486  1  0.000714  0  -0.004705  0.048297  0  3.944844  0
C  C78  1  0.37583871  0.13913611  0.83794373  1  0.452456  0  0.046563  0.040018  0  3.919421  0
C  C79  1  0.50786831  0.16111381  0.72675299  1  0.439106  0  -0.057348  -0.011971  0  3.916397  0
C  C80  1  0.57507761  0.17941197  0.58191491  1  0.435268  0  0.079219  0.251157  0  4.075048  0
C  C81  1  0.53739569  0.21026393  0.48963558  1  -0.038365  0  -0.098413  -0.185459  0  3.972732  0
C  C82  1  0.60731637  0.18294883  0.41392536  1  -0.02423  0  -0.093303  -0.06162  0  4.026998  0
C  C83  1  0.71626223  0.12682881  0.43037669  1  0.021098  0  -0.097386  -0.14779  0  3.980412  0
C  C84  1  0.75691552  0.09837442  0.52504023  1  -0.074245  0  -0.015121  0.084132  0  4.042211  0
C  C85  1  0.68480661  0.12354400  0.60069233  1  -0.031577  0  -0.105268  -0.258559  0  3.932708  0
C  C86  1  0.87405995  0.04434923  0.54705830  1  0.589608  0  0.071948  0.053906  0  3.9081  0
C  C87  1  0.09926063  0.98324774  0.12918052  1  0.519729  0  0.14377  0.258783  0  4.316983  0
C  C88  1  0.32060068  0.37355852  0.16420603  1  0.402108  0  0.037891  0.075196  0  3.972154  0
C  C89  1  0.31191385  0.49324303  0.23502748  1  0.064936  0  -0.084937  -0.116685  0  3.983587  0
C  C90  1  0.20475376  0.51605399  0.27157051  1  -0.057959  0  -0.07031  -0.079641  0  3.917324  0
C  C91  1  0.10840660  0.41816282  0.23481279  1  0.007829  0  -0.004421  0.049143  0  3.946058  0
C  C92  1  0.12420492  0.30082237  0.16201953  1  0.488039  0  0.046648  0.040262  0  3.920033  0
C  C93  1  0.99190117  0.43387404  0.27307523  1  0.458357  0  -0.057617  -0.012795  0  3.914943  0
C  C94  1  0.92460306  0.59721549  0.41784423  1  0.433583  0  0.079293  0.252365  0  4.075184  0
C  C95  1  0.96235082  0.72044399  0.51023317  1  -0.005706  0  -0.098316  -0.18731  0  3.973962  0
C  C96  1  0.89251066  0.76889171  0.58602081  1  -0.054962  0  -0.093911  -0.060989  0  4.023455  0
C  C97  1  0.78358164  0.69629262  0.56949174  1  -0.048247  0  -0.096682  -0.147514  0  3.980855  0
C  C98  1  0.74289901  0.57310439  0.47474064  1  -0.004934  0  -0.015158  0.084503  0  4.044286  0
C  C99  1  0.81488648  0.52251249  0.39898499  1  -0.0752  0  -0.105671  -0.260258  0  3.933827  0
C  C100  1  0.62577721  0.49707819  0.45274274  1  0.54994  0  0.07176  0.054077  0  3.908802  0
C  C101  1  0.40080528  0.85378289  0.87057468  1  0.51492  0  0.143205  0.257578  0  4.316759  0
S  S102  1  0.73901140  0.98576589  0.83060380  1  0.075143  0  -0.139151  -0.291565  0  2.495261  0
S  S103  1  0.76094586  0.15538114  0.16984607  1  0.076165  0  -0.138609  -0.290786  0  2.49667  0
S  S104  1  0.26099725  0.01422892  0.16939606  1  0.07525  0  -0.139151  -0.291558  0  2.495215  0
S  S105  1  0.23905290  0.84462286  0.83015752  1  0.076327  0  -0.138552  -0.290641  0  2.497238  0
N  N106  1  0.72772725  0.84869777  0.12794609  1  -1.22537  0  -0.33131  -0.232325  0  3.554209  0
N  N107  1  0.05396741  0.97480940  0.51709834  1  -0.762081  0  -0.21387  -0.172466  0  3.355838  0
N  N108  1  0.01740690  0.03777762  0.89628552  1  -1.26879  0  -0.392306  -0.467712  0  3.161214  0
N  N109  1  0.77219940  0.72094004  0.87207068  1  -1.251039  0  -0.331154  -0.231906  0  3.553076  0
N  N110  1  0.44603073  0.45774777  0.48293826  1  -0.746693  0  -0.213926  -0.172322  0  3.355029  0
N  N111  1  0.48250641  0.14183030  0.10373396  1  -1.265084  0  -0.391704  -0.466658  0  3.16113  0
N  N112  1  0.27226847  0.15130094  0.87205215  1  -1.225334  0  -0.331325  -0.232387  0  3.55423  0
N  N113  1  0.94602928  0.02518883  0.48289942  1  -0.744444  0  -0.213849  -0.172465  0  3.356102  0
N  N114  1  0.98260491  0.96221434  0.10371695  1  -1.268414  0  -0.392205  -0.467659  0  3.16097  0
N  N115  1  0.22780566  0.27906395  0.12793476  1  -1.251826  0  -0.331187  -0.231924  0  3.55328  0
N  N116  1  0.55397027  0.54224916  0.51706004  1  -0.763477  0  -0.213937  -0.172336  0  3.355269  0
N  N117  1  0.51750139  0.85818803  0.89626228  1  -1.264759  0  -0.391729  -0.466636  0  3.160561  0
O  O118  1  0.50178152  0.78888505  0.35004099  1  -1.097714  0  -0.179213  -0.199368  0  2.578348  0
O  O119  1  0.99863688  0.43922668  0.65027913  1  -1.098675  0  -0.178807  -0.198526  0  2.578925  0
O  O120  1  0.49821379  0.21111379  0.64995556  1  -1.097708  0  -0.179201  -0.199373  0  2.57816  0
O  O121  1  0.00136079  0.56077181  0.34971890  1  -1.098833  0  -0.178796  -0.198427  0  2.578891  0
