# generated using pymatgen
data_CdH9C11N3O4
_symmetry_space_group_name_H-M   'P 1'
_cell_length_a   8.81057550
_cell_length_b   10.33235735
_cell_length_c   13.30610002
_cell_angle_alpha   89.99914931
_cell_angle_beta   89.99981714
_cell_angle_gamma   93.57613090
_symmetry_Int_Tables_number   1
_chemical_formula_structural   CdH9C11N3O4
_chemical_formula_sum   'Cd4 H36 C44 N12 O16'
_cell_volume   1208.94904471
_cell_formula_units_Z   4
loop_
 _symmetry_equiv_pos_site_id
 _symmetry_equiv_pos_as_xyz
  1  'x, y, z'
loop_
 _atom_site_type_symbol
 _atom_site_label
 _atom_site_symmetry_multiplicity
 _atom_site_fract_x
 _atom_site_fract_y
 _atom_site_fract_z
 _atom_site_occupancy
 _atom_site_hle17_bader_spin_density
 _atom_site_hle17_ddec_charge
 _atom_site_hle17_ddec_spin_density
 _atom_site_hle17_ddec_sum_bond_order
 _atom_site_hle17_magmom
 _atom_site_hse06_10hf_bader_spin_density
 _atom_site_hse06_10hf_ddec_charge
 _atom_site_hse06_10hf_ddec_spin_density
 _atom_site_hse06_10hf_ddec_sum_bond_order
 _atom_site_hse06_10hf_magmom
 _atom_site_hse06_bader_spin_density
 _atom_site_hse06_ddec_charge
 _atom_site_hse06_ddec_spin_density
 _atom_site_hse06_ddec_sum_bond_order
 _atom_site_hse06_magmom
 _atom_site_pbe_bader_spin_density
 _atom_site_pbe_cm5_charge
 _atom_site_pbe_ddec_charge
 _atom_site_pbe_ddec_spin_density
 _atom_site_pbe_ddec_sum_bond_order
 _atom_site_pbe_magmom
Cd  Cd0  1  0.51362528  0.86059891  0.91262772  1  0  1.121408  0  1.711115  0  0  0.925637  0  2.157794  0  0  0.981993  0  2.107686  0  0  0.782472  0.886734  0  2.191384  0
Cd  Cd1  1  0.98637566  0.63940331  0.41261502  1  0  1.121428  0  1.710953  0  0  0.92566  0  2.157595  0  0  0.982016  0  2.107489  0  0  0.78244  0.886756  0  2.191188  0
Cd  Cd2  1  0.48638378  0.13940826  0.08739094  1  0  1.121327  0  1.711129  0  0  0.925549  0  2.157797  0  0  0.981909  0  2.10769  0  0  0.782435  0.886649  0  2.191379  0
Cd  Cd3  1  0.01360715  0.36060292  0.58739011  1  0  1.121444  0  1.710876  0  0  0.925664  0  2.157511  0  0  0.982024  0  2.107407  0  0  0.782445  0.886758  0  2.191095  0
H  H4  1  0.14590853  0.92238509  0.36226362  1  0  0.089477  0  0.940119  0  0  0.098436  0  1.002409  0  0  0.101372  0  0.999653  0  0  0.120566  0.096223  0  1.004756  0
H  H5  1  0.35410446  0.57761590  0.86227445  1  0  0.089534  0  0.940078  0  0  0.098518  0  1.002287  0  0  0.101456  0  0.999531  0  0  0.120558  0.096299  0  1.00464  0
H  H6  1  0.85408364  0.07760520  0.63771972  1  0  0.08944  0  0.940365  0  0  0.098358  0  1.002659  0  0  0.101297  0  0.999894  0  0  0.12053  0.096114  0  1.005042  0
H  H7  1  0.64590609  0.42239413  0.13772016  1  0  0.089391  0  0.940331  0  0  0.098449  0  1.002459  0  0  0.101392  0  0.999685  0  0  0.120559  0.096194  0  1.004853  0
H  H8  1  0.32254168  0.09493564  0.44136135  1  0  0.107418  0  0.965784  0  0  0.115398  0  1.029194  0  0  0.118068  0  1.029693  0  0  0.109048  0.113526  0  1.028888  0
H  H9  1  0.17747423  0.40506871  0.94137545  1  0  0.107343  0  0.965728  0  0  0.115309  0  1.029167  0  0  0.117979  0  1.029664  0  0  0.108971  0.113435  0  1.028865  0
H  H10  1  0.67745748  0.90506509  0.55863777  1  0  0.107417  0  0.965757  0  0  0.115412  0  1.029175  0  0  0.118082  0  1.029674  0  0  0.109081  0.113541  0  1.02887  0
H  H11  1  0.82252408  0.59492525  0.05862743  1  0  0.107303  0  0.965818  0  0  0.115284  0  1.029234  0  0  0.117953  0  1.029733  0  0  0.108999  0.113412  0  1.02893  0
H  H12  1  0.41002653  0.06132676  0.61820666  1  0  0.111777  0  0.927012  0  0  0.122899  0  0.984095  0  0  0.125924  0  0.982663  0  0  0.114192  0.120748  0  0.985104  0
H  H13  1  0.08997886  0.43869202  0.11822656  1  0  0.111814  0  0.927117  0  0  0.122921  0  0.984194  0  0  0.125948  0  0.982757  0  0  0.114217  0.120765  0  0.985204  0
H  H14  1  0.58995325  0.93868250  0.38178119  1  0  0.111756  0  0.926907  0  0  0.122898  0  0.983991  0  0  0.125924  0  0.982558  0  0  0.114237  0.120747  0  0.984997  0
H  H15  1  0.91003237  0.56130533  0.88177782  1  0  0.111806  0  0.927063  0  0  0.122939  0  0.984127  0  0  0.125967  0  0.982689  0  0  0.114272  0.120785  0  0.985136  0
H  H16  1  0.76242083  0.85550058  0.10256896  1  0  0.108274  0  0.966922  0  0  0.117341  0  1.027703  0  0  0.120063  0  1.025919  0  0  0.11514  0.115484  0  1.029005  0
H  H17  1  0.73757526  0.64448933  0.60255970  1  0  0.108272  0  0.967045  0  0  0.117334  0  1.027814  0  0  0.120055  0  1.026029  0  0  0.11515  0.115482  0  1.029108  0
H  H18  1  0.23757106  0.14449654  0.89743167  1  0  0.108277  0  0.967024  0  0  0.117341  0  1.027791  0  0  0.120063  0  1.026005  0  0  0.115133  0.115486  0  1.029087  0
H  H19  1  0.26241165  0.35549533  0.39742739  1  0  0.108241  0  0.966933  0  0  0.117302  0  1.027725  0  0  0.120024  0  1.025942  0  0  0.115121  0.115446  0  1.029028  0
H  H20  1  0.07351470  0.84865870  0.07847774  1  0  0.109384  0  0.970077  0  0  0.119431  0  1.030396  0  0  0.121279  0  1.030349  0  0  0.119099  0.118172  0  1.030281  0
H  H21  1  0.42648310  0.65132987  0.57847779  1  0  0.109516  0  0.969861  0  0  0.119528  0  1.030238  0  0  0.121375  0  1.030191  0  0  0.119103  0.11827  0  1.03012  0
H  H22  1  0.92649092  0.15133011  0.92152213  1  0  0.109465  0  0.969941  0  0  0.119489  0  1.030314  0  0  0.121337  0  1.030268  0  0  0.11909  0.118225  0  1.030209  0
H  H23  1  0.57349755  0.34865016  0.42151382  1  0  0.109359  0  0.970014  0  0  0.119423  0  1.030334  0  0  0.121272  0  1.030285  0  0  0.119084  0.118153  0  1.03025  0
H  H24  1  0.81178791  0.75049495  0.73443611  1  0  0.132619  0  0.935786  0  0  0.154876  0  0.991203  0  0  0.156979  0  0.990137  0  0  0.100519  0.15311  0  0.992465  0
H  H25  1  0.68820371  0.74951789  0.23444601  1  0  0.132592  0  0.935786  0  0  0.154872  0  0.991159  0  0  0.156975  0  0.990092  0  0  0.100534  0.153109  0  0.992419  0
H  H26  1  0.18821295  0.24951935  0.26555324  1  0  0.132561  0  0.93585  0  0  0.154846  0  0.991216  0  0  0.156949  0  0.990148  0  0  0.100504  0.15308  0  0.992478  0
H  H27  1  0.31179376  0.25049654  0.76555611  1  0  0.132616  0  0.935787  0  0  0.154867  0  0.991213  0  0  0.156966  0  0.990153  0  0  0.100523  0.153103  0  0.992474  0
H  H28  1  0.96462414  0.87121576  0.72547470  1  0  0.129159  0  0.951487  0  0  0.147576  0  1.012713  0  0  0.149111  0  1.012872  0  0  0.097752  0.14612  0  1.013244  0
H  H29  1  0.53537860  0.62879487  0.22547806  1  0  0.129206  0  0.951454  0  0  0.147602  0  1.012706  0  0  0.149125  0  1.012878  0  0  0.097775  0.146149  0  1.013233  0
H  H30  1  0.03537696  0.12880047  0.27452292  1  0  0.129253  0  0.951441  0  0  0.147637  0  1.012699  0  0  0.14916  0  1.012871  0  0  0.097788  0.146179  0  1.013232  0
H  H31  1  0.46462593  0.37121247  0.77451881  1  0  0.12917  0  0.951519  0  0  0.147568  0  1.012769  0  0  0.149111  0  1.012917  0  0  0.097769  0.146114  0  1.013298  0
H  H32  1  0.77278017  0.91669104  0.74172131  1  0  0.137947  0  0.958072  0  0  0.155947  0  1.02287  0  0  0.158487  0  1.0211  0  0  0.101031  0.154046  0  1.024247  0
H  H33  1  0.72721960  0.58331453  0.24173008  1  0  0.137945  0  0.958114  0  0  0.155912  0  1.02295  0  0  0.15845  0  1.021179  0  0  0.100983  0.154012  0  1.024324  0
H  H34  1  0.22721895  0.08331846  0.25826880  1  0  0.137975  0  0.958093  0  0  0.155943  0  1.02294  0  0  0.158481  0  1.021167  0  0  0.101015  0.154044  0  1.024317  0
H  H35  1  0.27278291  0.41669484  0.75826604  1  0  0.137928  0  0.958029  0  0  0.155893  0  1.02289  0  0  0.158428  0  1.021118  0  0  0.101006  0.153995  0  1.024264  0
H  H36  1  0.11316871  0.85378263  0.88429455  1  0  0.322883  0  0.918501  0  0  0.303  0  0.981853  0  0  0.311157  0  0.975589  0  0  0.311887  0.297858  0  0.985206  0
H  H37  1  0.38682726  0.64622832  0.38428798  1  0  0.323005  0  0.918383  0  0  0.303084  0  0.981791  0  0  0.311245  0  0.975514  0  0  0.311883  0.297943  0  0.985149  0
H  H38  1  0.88682916  0.14622594  0.11570683  1  0  0.322831  0  0.918525  0  0  0.302935  0  0.981919  0  0  0.31109  0  0.975656  0  0  0.311846  0.297792  0  0.985273  0
H  H39  1  0.61316438  0.35376687  0.61569536  1  0  0.322914  0  0.918496  0  0  0.303016  0  0.981848  0  0  0.311173  0  0.975596  0  0  0.311934  0.297876  0  0.9852  0
C  C40  1  0.18333502  0.91511644  0.43997986  1  0  0.137118  0  3.695016  0  0  0.102186  0  3.950395  0  0  0.109802  0  3.966337  0  0  0.050526  0.097052  0  3.939644  0
C  C41  1  0.31666762  0.58489512  0.93998993  1  0  0.137313  0  3.694554  0  0  0.102398  0  3.949951  0  0  0.110013  0  3.965894  0  0  0.050686  0.097265  0  3.939203  0
C  C42  1  0.81665396  0.08488468  0.56001400  1  0  0.137161  0  3.695528  0  0  0.102282  0  3.950891  0  0  0.109899  0  3.966832  0  0  0.050641  0.097175  0  3.940143  0
C  C43  1  0.68335152  0.41510193  0.06001896  1  0  0.13713  0  3.695091  0  0  0.102131  0  3.950476  0  0  0.109749  0  3.966421  0  0  0.050527  0.09703  0  3.939737  0
C  C44  1  0.28204084  0.00958592  0.48393560  1  0  -0.096012  0  3.709179  0  0  -0.110489  0  3.964784  0  0  -0.115473  0  3.984558  0  0  -0.075818  -0.10645  0  3.950838  0
C  C45  1  0.21796737  0.49042180  0.98394787  1  0  -0.096078  0  3.70896  0  0  -0.110577  0  3.964646  0  0  -0.115562  0  3.984422  0  0  -0.075809  -0.10654  0  3.950699  0
C  C46  1  0.71794863  0.99041908  0.51606954  1  0  -0.095867  0  3.709212  0  0  -0.110383  0  3.964833  0  0  -0.115364  0  3.984605  0  0  -0.075851  -0.106345  0  3.950874  0
C  C47  1  0.78205044  0.50956460  0.01606178  1  0  -0.095768  0  3.709074  0  0  -0.110258  0  3.964737  0  0  -0.11524  0  3.98451  0  0  -0.075742  -0.106218  0  3.950778  0
C  C48  1  0.33018347  0.99095247  0.58211783  1  0  -0.022164  0  3.666061  0  0  -0.049505  0  3.913934  0  0  -0.046763  0  3.931027  0  0  -0.059263  -0.051339  0  3.902598  0
C  C49  1  0.16982365  0.50905610  0.08212759  1  0  -0.022154  0  3.665958  0  0  -0.049389  0  3.913845  0  0  -0.046644  0  3.930936  0  0  -0.059253  -0.051216  0  3.902505  0
C  C50  1  0.66980398  0.00905455  0.41788655  1  0  -0.022264  0  3.665698  0  0  -0.049569  0  3.913655  0  0  -0.04683  0  3.930751  0  0  -0.059307  -0.051398  0  3.902312  0
C  C51  1  0.83019101  0.49093236  0.91788130  1  0  -0.022193  0  3.665935  0  0  -0.049521  0  3.913831  0  0  -0.046775  0  3.930921  0  0  -0.059303  -0.051352  0  3.902493  0
C  C52  1  0.27933518  0.87856552  0.63436150  1  0  -0.075208  0  3.691097  0  0  -0.056628  0  3.927111  0  0  -0.062916  0  3.94509  0  0  0.006244  -0.053801  0  3.916696  0
C  C53  1  0.22068844  0.62144045  0.13436607  1  0  -0.075228  0  3.691031  0  0  -0.056828  0  3.927348  0  0  -0.063124  0  3.945325  0  0  0.006231  -0.053998  0  3.91693  0
C  C54  1  0.72067687  0.12144738  0.36564514  1  0  -0.075228  0  3.690762  0  0  -0.05676  0  3.92703  0  0  -0.063047  0  3.945005  0  0  0.006267  -0.053932  0  3.916616  0
C  C55  1  0.77932056  0.37854823  0.86564206  1  0  -0.075342  0  3.69096  0  0  -0.056798  0  3.927063  0  0  -0.063093  0  3.945039  0  0  0.006181  -0.053968  0  3.916643  0
C  C56  1  0.17922749  0.78855561  0.58518543  1  0  0.06619  0  3.726914  0  0  0.059301  0  3.970512  0  0  0.061145  0  3.98933  0  0  0.107092  0.057992  0  3.958163  0
C  C57  1  0.32077982  0.71146361  0.08519101  1  0  0.0663  0  3.726986  0  0  0.05933  0  3.970784  0  0  0.061181  0  3.989596  0  0  0.107025  0.058019  0  3.958436  0
C  C58  1  0.82078327  0.21146513  0.41481143  1  0  0.066395  0  3.726827  0  0  0.059419  0  3.970635  0  0  0.061265  0  3.989446  0  0  0.107078  0.058109  0  3.958292  0
C  C59  1  0.67921647  0.28853237  0.91481488  1  0  0.066431  0  3.726695  0  0  0.05945  0  3.970484  0  0  0.061301  0  3.989293  0  0  0.107068  0.05814  0  3.958137  0
C  C60  1  0.34125014  0.86018213  0.73846718  1  0  0.666513  0  3.939155  0  0  0.608791  0  4.244354  0  0  0.645245  0  4.233879  0  0  0.200881  0.584225  0  4.250709  0
C  C61  1  0.15876405  0.63981537  0.23846565  1  0  0.666564  0  3.939013  0  0  0.60891  0  4.244171  0  0  0.645367  0  4.233695  0  0  0.201015  0.584349  0  4.25052  0
C  C62  1  0.65875226  0.13982627  0.26153871  1  0  0.666448  0  3.938928  0  0  0.608704  0  4.244246  0  0  0.645158  0  4.233777  0  0  0.200907  0.584136  0  4.250594  0
C  C63  1  0.84123821  0.36016480  0.76153422  1  0  0.666302  0  3.939114  0  0  0.608596  0  4.244305  0  0  0.645054  0  4.233835  0  0  0.200938  0.584031  0  4.250647  0
C  C64  1  0.12465215  0.66157112  0.63516482  1  0  0.607966  0  3.957325  0  0  0.555168  0  4.262129  0  0  0.588478  0  4.255401  0  0  0.19988  0.532668  0  4.265938  0
C  C65  1  0.37535964  0.83844015  0.13517480  1  0  0.607931  0  3.957807  0  0  0.555191  0  4.262534  0  0  0.588502  0  4.255801  0  0  0.199845  0.532693  0  4.266346  0
C  C66  1  0.87535299  0.33844107  0.36483506  1  0  0.607885  0  3.957579  0  0  0.555102  0  4.262376  0  0  0.588413  0  4.255646  0  0  0.19984  0.532603  0  4.266183  0
C  C67  1  0.62464457  0.16155552  0.86483635  1  0  0.607935  0  3.957553  0  0  0.555115  0  4.262419  0  0  0.588427  0  4.255686  0  0  0.199821  0.53262  0  4.266225  0
C  C68  1  0.82902198  0.84784830  0.03469931  1  0  -0.004467  0  3.760386  0  0  -0.0387  0  4.031652  0  0  -0.035856  0  4.050357  0  0  -0.011018  -0.040853  0  4.019348  0
C  C69  1  0.67097636  0.65213018  0.53469461  1  0  -0.00443  0  3.760633  0  0  -0.038663  0  4.031891  0  0  -0.035811  0  4.050592  0  0  -0.010982  -0.040821  0  4.019594  0
C  C70  1  0.17098279  0.15213373  0.96529906  1  0  -0.004459  0  3.760423  0  0  -0.03868  0  4.031683  0  0  -0.035832  0  4.050384  0  0  -0.011033  -0.040837  0  4.019384  0
C  C71  1  0.32901068  0.34785545  0.46529850  1  0  -0.004288  0  3.76038  0  0  -0.038501  0  4.031668  0  0  -0.035655  0  4.050368  0  0  -0.010922  -0.040654  0  4.019364  0
C  C72  1  0.98351662  0.84590823  0.02321421  1  0  0.001951  0  3.69477  0  0  -0.040799  0  3.96641  0  0  -0.038374  0  3.984739  0  0  -0.00262  -0.042271  0  3.953743  0
C  C73  1  0.51647812  0.65407742  0.52321355  1  0  0.00176  0  3.694625  0  0  -0.04098  0  3.966261  0  0  -0.038559  0  3.984597  0  0  -0.00271  -0.04245  0  3.953599  0
C  C74  1  0.01648338  0.15407203  0.97678341  1  0  0.001864  0  3.694595  0  0  -0.040879  0  3.966234  0  0  -0.038462  0  3.984564  0  0  -0.002644  -0.042351  0  3.953575  0
C  C75  1  0.48350512  0.34591419  0.47678181  1  0  0.001934  0  3.694988  0  0  -0.040864  0  3.966667  0  0  -0.038431  0  3.985002  0  0  -0.00269  -0.04234  0  3.954  0
C  C76  1  0.87436156  0.84484604  0.87268036  1  0  0.420305  0  3.726588  0  0  0.400908  0  3.989588  0  0  0.417007  0  4.005054  0  0  0.217137  0.390209  0  3.979125  0
C  C77  1  0.62562646  0.65515160  0.37268022  1  0  0.420346  0  3.72675  0  0  0.400919  0  3.98977  0  0  0.417022  0  4.005236  0  0  0.217123  0.39022  0  3.979304  0
C  C78  1  0.12563772  0.15515566  0.12731876  1  0  0.420199  0  3.726648  0  0  0.400786  0  3.989686  0  0  0.416882  0  4.005151  0  0  0.217059  0.390087  0  3.979219  0
C  C79  1  0.37436114  0.34484763  0.62731288  1  0  0.4202  0  3.726602  0  0  0.400773  0  3.989633  0  0  0.416881  0  4.005097  0  0  0.217093  0.390076  0  3.979166  0
C  C80  1  0.85542329  0.84589408  0.76206720  1  0  -0.397344  0  3.69313  0  0  -0.477451  0  3.927124  0  0  -0.481144  0  3.932363  0  0  -0.233217  -0.474685  0  3.924181  0
C  C81  1  0.64458010  0.65411388  0.26207004  1  0  -0.39733  0  3.693227  0  0  -0.477399  0  3.92721  0  0  -0.481079  0  3.932456  0  0  -0.233172  -0.474632  0  3.924258  0
C  C82  1  0.14457934  0.15411625  0.23793042  1  0  -0.397376  0  3.693254  0  0  -0.477443  0  3.927223  0  0  -0.481122  0  3.932469  0  0  -0.233198  -0.474678  0  3.92428  0
C  C83  1  0.35542253  0.34589646  0.73792607  1  0  -0.397276  0  3.693056  0  0  -0.477326  0  3.927077  0  0  -0.481015  0  3.932302  0  0  -0.233179  -0.474561  0  3.924128  0
N  N84  1  0.13335039  0.80826238  0.48987795  1  0  -0.347714  0  3.29017  0  0  -0.275853  0  3.555925  0  0  -0.293506  0  3.573322  0  0  -0.326854  -0.263913  0  3.543601  0
N  N85  1  0.36664334  0.69176122  0.98988140  1  0  -0.347762  0  3.289973  0  0  -0.275847  0  3.555752  0  0  -0.293501  0  3.573146  0  0  -0.326831  -0.263906  0  3.543428  0
N  N86  1  0.86663633  0.19173883  0.51012042  1  0  -0.347811  0  3.29037  0  0  -0.275906  0  3.556142  0  0  -0.293562  0  3.573539  0  0  -0.326882  -0.26396  0  3.543798  0
N  N87  1  0.63336786  0.30824490  0.01012749  1  0  -0.347735  0  3.28993  0  0  -0.275833  0  3.555764  0  0  -0.293491  0  3.57316  0  0  -0.326814  -0.263889  0  3.543422  0
N  N88  1  0.76221922  0.84658375  0.94054182  1  0  -0.477838  0  3.239701  0  0  -0.397928  0  3.517208  0  0  -0.422975  0  3.535161  0  0  -0.373489  -0.381299  0  3.505191  0
N  N89  1  0.73777931  0.65340926  0.44053997  1  0  -0.477809  0  3.239724  0  0  -0.397899  0  3.517267  0  0  -0.42295  0  3.53522  0  0  -0.373427  -0.381265  0  3.505253  0
N  N90  1  0.23778300  0.15340519  0.05945655  1  0  -0.477786  0  3.239603  0  0  -0.397853  0  3.517082  0  0  -0.422904  0  3.535042  0  0  -0.373418  -0.38122  0  3.505062  0
N  N91  1  0.26221065  0.34659961  0.55945539  1  0  -0.477986  0  3.239824  0  0  -0.398074  0  3.517315  0  0  -0.423122  0  3.535266  0  0  -0.373518  -0.381442  0  3.505295  0
N  N92  1  0.00951758  0.84305193  0.92102373  1  0  -0.340871  0  3.410325  0  0  -0.275908  0  3.638525  0  0  -0.293225  0  3.653653  0  0  -0.377413  -0.264486  0  3.627675  0
N  N93  1  0.49047758  0.65694472  0.42101833  1  0  -0.341014  0  3.410402  0  0  -0.276003  0  3.63855  0  0  -0.293327  0  3.653689  0  0  -0.377416  -0.264582  0  3.627701  0
N  N94  1  0.99048448  0.15694480  0.07897839  1  0  -0.340803  0  3.410332  0  0  -0.27583  0  3.638516  0  0  -0.293136  0  3.653634  0  0  -0.377343  -0.264409  0  3.627668  0
N  N95  1  0.50950881  0.34304483  0.57896801  1  0  -0.340879  0  3.410508  0  0  -0.275849  0  3.638654  0  0  -0.293194  0  3.653817  0  0  -0.377409  -0.264427  0  3.627805  0
O  O96  1  0.47041382  0.81169452  0.74463368  1  0  -0.626103  0  1.93357  0  0  -0.559334  0  2.170682  0  0  -0.589501  0  2.160842  0  0  -0.323654  -0.538998  0  2.177298  0
O  O97  1  0.02960704  0.68832012  0.24461756  1  0  -0.626159  0  1.933418  0  0  -0.55943  0  2.170559  0  0  -0.589599  0  2.160719  0  0  -0.323739  -0.539105  0  2.177174  0
O  O98  1  0.52958817  0.18831973  0.25537897  1  0  -0.625982  0  1.933344  0  0  -0.559207  0  2.170507  0  0  -0.589376  0  2.160669  0  0  -0.32367  -0.53887  0  2.177114  0
O  O99  1  0.97041183  0.31168375  0.75538982  1  0  -0.625965  0  1.933181  0  0  -0.559225  0  2.170299  0  0  -0.589393  0  2.160464  0  0  -0.323726  -0.538886  0  2.176901  0
O  O100  1  0.27220036  0.90698634  0.81253826  1  0  -0.643032  0  1.972177  0  0  -0.588707  0  2.209531  0  0  -0.616255  0  2.199563  0  0  -0.322132  -0.568814  0  2.214816  0
O  O101  1  0.22778545  0.59301373  0.31254917  1  0  -0.64306  0  1.972237  0  0  -0.588703  0  2.209582  0  0  -0.616253  0  2.199614  0  0  -0.322179  -0.568818  0  2.214874  0
O  O102  1  0.72780188  0.09302985  0.18746386  1  0  -0.643043  0  1.972254  0  0  -0.58865  0  2.209583  0  0  -0.616195  0  2.199606  0  0  -0.322109  -0.568743  0  2.214852  0
O  O103  1  0.77219314  0.40694983  0.68745295  1  0  -0.64296  0  1.972424  0  0  -0.588579  0  2.209703  0  0  -0.616127  0  2.199742  0  0  -0.322099  -0.568696  0  2.215014  0
O  O104  1  0.03619621  0.58530904  0.58090453  1  0  -0.670376  0  2.137016  0  0  -0.585413  0  2.410265  0  0  -0.617514  0  2.397026  0  0  -0.339474  -0.562709  0  2.418218  0
O  O105  1  0.46382763  0.91469697  0.08092020  1  0  -0.670352  0  2.137201  0  0  -0.585411  0  2.410491  0  0  -0.617519  0  2.397258  0  0  -0.339448  -0.562718  0  2.418443  0
O  O106  1  0.96380667  0.41470323  0.41909309  1  0  -0.670367  0  2.137103  0  0  -0.585349  0  2.41028  0  0  -0.617451  0  2.397047  0  0  -0.339438  -0.562643  0  2.418223  0
O  O107  1  0.53618550  0.08529739  0.91909696  1  0  -0.670351  0  2.137077  0  0  -0.585356  0  2.410353  0  0  -0.617458  0  2.39712  0  0  -0.339442  -0.562656  0  2.418299  0
O  O108  1  0.16882193  0.63930456  0.72198072  1  0  -0.569338  0  1.90898  0  0  -0.530259  0  2.132907  0  0  -0.552688  0  2.126518  0  0  -0.308553  -0.514631  0  2.136975  0
O  O109  1  0.33119572  0.86070188  0.22199354  1  0  -0.569364  0  1.909339  0  0  -0.530292  0  2.133241  0  0  -0.552722  0  2.12685  0  0  -0.308568  -0.514674  0  2.137319  0
O  O110  1  0.83119121  0.36071705  0.27801689  1  0  -0.569317  0  1.909138  0  0  -0.530222  0  2.133035  0  0  -0.552655  0  2.126647  0  0  -0.308524  -0.514577  0  2.137089  0
O  O111  1  0.66882548  0.13928438  0.77801986  1  0  -0.569363  0  1.909153  0  0  -0.530243  0  2.13303  0  0  -0.552677  0  2.126641  0  0  -0.308488  -0.514609  0  2.137088  0
