# generated using pymatgen
data_Sc2H10C18O17
_symmetry_space_group_name_H-M   'P 1'
_cell_length_a   8.71078634
_cell_length_b   10.56757092
_cell_length_c   11.91744663
_cell_angle_alpha   92.54630757
_cell_angle_beta   92.06913971
_cell_angle_gamma   105.11947789
_symmetry_Int_Tables_number   1
_chemical_formula_structural   Sc2H10C18O17
_chemical_formula_sum   'Sc4 H20 C36 O34'
_cell_volume   1056.70835928
_cell_formula_units_Z   2
loop_
 _symmetry_equiv_pos_site_id
 _symmetry_equiv_pos_as_xyz
  1  'x, y, z'
loop_
 _atom_site_type_symbol
 _atom_site_label
 _atom_site_symmetry_multiplicity
 _atom_site_fract_x
 _atom_site_fract_y
 _atom_site_fract_z
 _atom_site_occupancy
 _atom_site_hle17_bader_spin_density
 _atom_site_hle17_ddec_charge
 _atom_site_hle17_ddec_spin_density
 _atom_site_hle17_ddec_sum_bond_order
 _atom_site_hle17_magmom
 _atom_site_hse06_10hf_bader_spin_density
 _atom_site_hse06_10hf_ddec_charge
 _atom_site_hse06_10hf_ddec_spin_density
 _atom_site_hse06_10hf_ddec_sum_bond_order
 _atom_site_hse06_10hf_magmom
 _atom_site_hse06_bader_spin_density
 _atom_site_hse06_ddec_charge
 _atom_site_hse06_ddec_spin_density
 _atom_site_hse06_ddec_sum_bond_order
 _atom_site_hse06_magmom
 _atom_site_pbe_bader_spin_density
 _atom_site_pbe_cm5_charge
 _atom_site_pbe_ddec_charge
 _atom_site_pbe_ddec_spin_density
 _atom_site_pbe_ddec_sum_bond_order
 _atom_site_pbe_magmom
Sc  Sc0  1  0.48499888  0.04710778  0.29432940  1  0  2.052213  0  1.648365  0  0  1.947018  0  2.093822  0  0  2.063345  0  1.973036  0  0  1.255131  1.864277  0  2.174568  0
Sc  Sc1  1  0.51500379  0.95289298  0.70567212  1  0  2.05219  0  1.648374  0  0  1.946992  0  2.093833  0  0  2.063331  0  1.97303  0  0  1.255128  1.864248  0  2.174576  0
Sc  Sc2  1  0.92279103  0.26911314  0.05858334  1  0  2.047543  0  1.659547  0  0  1.93898  0  2.10795  0  0  2.056323  0  1.985961  0  0  1.258701  1.855473  0  2.189566  0
Sc  Sc3  1  0.07720762  0.73087879  0.94141769  1  0  2.047606  0  1.659595  0  0  1.938971  0  2.108167  0  0  2.056317  0  1.986157  0  0  1.258681  1.855481  0  2.189737  0
H  H4  1  0.35935964  0.90780094  0.09388328  1  0  0.451765  0  0.834356  0  0  0.422752  0  0.894026  0  0  0.43465  0  0.876791  0  0  0.315568  0.414161  0  0.906465  0
H  H5  1  0.64064251  0.09220179  0.90611748  1  0  0.45172  0  0.834418  0  0  0.4227  0  0.894099  0  0  0.434599  0  0.876864  0  0  0.315533  0.414109  0  0.90654  0
H  H6  1  0.54314793  0.89387121  0.10320270  1  0  0.457698  0  0.832117  0  0  0.424173  0  0.897358  0  0  0.437017  0  0.879007  0  0  0.309302  0.415052  0  0.910362  0
H  H7  1  0.45685830  0.10613347  0.89679908  1  0  0.457532  0  0.832344  0  0  0.424022  0  0.89755  0  0  0.436863  0  0.879207  0  0  0.309232  0.414904  0  0.91055  0
H  H8  1  0.79741161  0.98934589  0.99680838  1  0  0.453062  0  0.83764  0  0  0.418074  0  0.90474  0  0  0.431788  0  0.885041  0  0  0.308302  0.408322  0  0.91872  0
H  H9  1  0.20258977  0.01065096  0.00318958  1  0  0.453012  0  0.837702  0  0  0.418034  0  0.904789  0  0  0.431747  0  0.885093  0  0  0.308284  0.408286  0  0.918766  0
H  H10  1  0.89568360  0.07393508  0.89468615  1  0  0.438599  0  0.862124  0  0  0.40423  0  0.930544  0  0  0.417841  0  0.911166  0  0  0.303135  0.394567  0  0.944279  0
H  H11  1  0.10431707  0.92606668  0.10531201  1  0  0.43858  0  0.862154  0  0  0.404196  0  0.930596  0  0  0.417807  0  0.911219  0  0  0.303136  0.394534  0  0.944328  0
H  H12  1  0.39851747  0.45131157  0.26797267  1  0  0.132244  0  0.942574  0  0  0.143192  0  0.999872  0  0  0.14611  0  0.998542  0  0  0.116046  0.141086  0  1.00085  0
H  H13  1  0.60147734  0.54868628  0.73202518  1  0  0.132198  0  0.942632  0  0  0.143126  0  0.999956  0  0  0.146043  0  0.99863  0  0  0.116015  0.141018  0  1.000931  0
H  H14  1  0.48656055  0.70828307  0.20837110  1  0  0.14122  0  0.975066  0  0  0.1436  0  1.044336  0  0  0.147784  0  1.041403  0  0  0.117792  0.140551  0  1.046532  0
H  H15  1  0.51343164  0.29171381  0.79162581  1  0  0.141219  0  0.975176  0  0  0.143582  0  1.044452  0  0  0.147767  0  1.041511  0  0  0.117805  0.140537  0  1.046656  0
H  H16  1  0.20680561  0.25160798  0.39349956  1  0  0.143241  0  0.920974  0  0  0.156406  0  0.971079  0  0  0.159796  0  0.968701  0  0  0.12581  0.153903  0  0.97301  0
H  H17  1  0.79320113  0.74839473  0.60650130  1  0  0.143149  0  0.920924  0  0  0.156312  0  0.971057  0  0  0.159704  0  0.968672  0  0  0.125771  0.153801  0  0.973  0
H  H18  1  0.21871458  0.21761353  0.62103417  1  0  0.141943  0  0.929661  0  0  0.152854  0  0.984274  0  0  0.156127  0  0.982891  0  0  0.119156  0.1505  0  0.985332  0
H  H19  1  0.78129196  0.78239214  0.37896598  1  0  0.141971  0  0.929746  0  0  0.152865  0  0.98438  0  0  0.156137  0  0.983  0  0  0.119176  0.150509  0  0.985438  0
H  H20  1  0.23958545  0.55146987  0.54558362  1  0  0.136863  0  0.929056  0  0  0.14979  0  0.980078  0  0  0.153241  0  0.978421  0  0  0.119393  0.147242  0  0.981413  0
H  H21  1  0.76042109  0.44853580  0.45441652  1  0  0.136879  0  0.929033  0  0  0.14981  0  0.980056  0  0  0.153261  0  0.9784  0  0  0.119385  0.14727  0  0.981383  0
H  H22  1  0.03424915  0.41578450  0.37401475  1  0  0.12774  0  0.974755  0  0  0.133906  0  1.039858  0  0  0.136526  0  1.039607  0  0  0.112617  0.131912  0  1.040292  0
H  H23  1  0.96575145  0.58421328  0.62599246  1  0  0.127751  0  0.974713  0  0  0.133911  0  1.039829  0  0  0.136529  0  1.039576  0  0  0.112618  0.131909  0  1.040275  0
C  C24  1  0.58238705  0.29166477  0.14632501  1  0  0.692964  0  3.909562  0  0  0.644948  0  4.20602  0  0  0.684436  0  4.194928  0  0  0.243899  0.617853  0  4.212879  0
C  C25  1  0.41760972  0.70833210  0.85367117  1  0  0.692942  0  3.909698  0  0  0.644909  0  4.206206  0  0  0.684396  0  4.195111  0  0  0.243909  0.617811  0  4.213064  0
C  C26  1  0.57592624  0.42932210  0.14782661  1  0  0.069174  0  3.662714  0  0  0.060164  0  3.928485  0  0  0.060372  0  3.94142  0  0  0.072883  0.059861  0  3.919826  0
C  C27  1  0.42406823  0.57067480  0.85216700  1  0  0.069166  0  3.662561  0  0  0.060129  0  3.928376  0  0  0.060349  0  3.941298  0  0  0.072866  0.059824  0  3.919727  0
C  C28  1  0.48652107  0.49528036  0.20921313  1  0  -0.121821  0  3.704041  0  0  -0.155231  0  3.96689  0  0  -0.154929  0  3.983232  0  0  -0.095704  -0.155112  0  3.955533  0
C  C29  1  0.51347769  0.50471552  0.79078472  1  0  -0.121646  0  3.703955  0  0  -0.155029  0  3.966803  0  0  -0.154726  0  3.98314  0  0  -0.09562  -0.154911  0  3.955448  0
C  C30  1  0.53209889  0.62742044  0.17873689  1  0  -0.137968  0  3.706004  0  0  -0.172656  0  3.977883  0  0  -0.174533  0  3.994156  0  0  -0.09963  -0.17116  0  3.966638  0
C  C31  1  0.46789151  0.37257449  0.82125822  1  0  -0.137995  0  3.70617  0  0  -0.172693  0  3.978042  0  0  -0.174567  0  3.99431  0  0  -0.099607  -0.171201  0  3.966806  0
C  C32  1  0.64645247  0.63461714  0.10046333  1  0  0.082325  0  3.645926  0  0  0.068982  0  3.92023  0  0  0.071305  0  3.932378  0  0  0.075537  0.067147  0  3.912258  0
C  C33  1  0.35353857  0.36537976  0.89953187  1  0  0.082083  0  3.646061  0  0  0.068826  0  3.920259  0  0  0.071154  0  3.932406  0  0  0.075456  0.066987  0  3.912296  0
C  C34  1  0.73728032  0.74616144  0.03941574  1  0  0.689324  0  3.893556  0  0  0.63241  0  4.200683  0  0  0.670259  0  4.188665  0  0  0.24105  0.606449  0  4.208368  0
C  C35  1  0.26272126  0.25383245  0.96058377  1  0  0.689617  0  3.893321  0  0  0.632644  0  4.200507  0  0  0.670493  0  4.188491  0  0  0.24112  0.60669  0  4.208196  0
C  C36  1  0.87427997  0.14211262  0.29484632  1  0  0.701706  0  3.903844  0  0  0.655962  0  4.19517  0  0  0.696004  0  4.182989  0  0  0.244986  0.628328  0  4.203197  0
C  C37  1  0.12573136  0.85789007  0.70515548  1  0  0.701779  0  3.903619  0  0  0.655933  0  4.195111  0  0  0.695975  0  4.182945  0  0  0.244955  0.628307  0  4.20312  0
C  C38  1  0.95327723  0.15372995  0.40727823  1  0  0.052697  0  3.669256  0  0  0.043741  0  3.936389  0  0  0.043239  0  3.949454  0  0  0.068396  0.04393  0  3.92794  0
C  C39  1  0.04672849  0.84627669  0.59272362  1  0  0.052626  0  3.669289  0  0  0.043802  0  3.936389  0  0  0.043252  0  3.94947  0  0  0.068429  0.043986  0  3.92793  0
C  C40  1  0.10932906  0.20829267  0.44552780  1  0  -0.111837  0  3.696723  0  0  -0.144643  0  3.961341  0  0  -0.142819  0  3.975116  0  0  -0.088291  -0.145683  0  3.95208  0
C  C41  1  0.89067914  0.79171103  0.55447229  1  0  -0.111639  0  3.696673  0  0  -0.144462  0  3.961294  0  0  -0.142637  0  3.975082  0  0  -0.088239  -0.145502  0  3.952022  0
C  C42  1  0.11574300  0.19052630  0.56253138  1  0  -0.124429  0  3.682755  0  0  -0.15851  0  3.949082  0  0  -0.160069  0  3.964483  0  0  -0.093944  -0.157271  0  3.938557  0
C  C43  1  0.88426145  0.80947642  0.43746943  1  0  -0.124434  0  3.682807  0  0  -0.158535  0  3.949148  0  0  -0.160092  0  3.964545  0  0  -0.093923  -0.157291  0  3.938619  0
C  C44  1  0.96368867  0.12502519  0.58921516  1  0  0.083526  0  3.650834  0  0  0.069597  0  3.927432  0  0  0.072473  0  3.940594  0  0  0.074071  0.067518  0  3.918899  0
C  C45  1  0.03631693  0.87497752  0.41078651  1  0  0.083483  0  3.650926  0  0  0.069701  0  3.927442  0  0  0.072551  0  3.940591  0  0  0.074106  0.067611  0  3.918909  0
C  C46  1  0.89929655  0.07478539  0.69651737  1  0  0.662865  0  3.927894  0  0  0.609067  0  4.23604  0  0  0.645569  0  4.225628  0  0  0.228243  0.583977  0  4.242877  0
C  C47  1  0.10070644  0.92521634  0.30348504  1  0  0.662764  0  3.92804  0  0  0.608871  0  4.236286  0  0  0.645366  0  4.225878  0  0  0.228103  0.583782  0  4.243118  0
C  C48  1  0.43561356  0.80925255  0.46489456  1  0  0.701283  0  3.914129  0  0  0.65271  0  4.211981  0  0  0.692725  0  4.197851  0  0  0.243997  0.62513  0  4.221171  0
C  C49  1  0.56438482  0.19074923  0.53510355  1  0  0.701063  0  3.914545  0  0  0.652745  0  4.212019  0  0  0.692765  0  4.197884  0  0  0.243999  0.625167  0  4.221212  0
C  C50  1  0.31016724  0.69576488  0.41726467  1  0  0.076024  0  3.659031  0  0  0.063109  0  3.928397  0  0  0.064916  0  3.940359  0  0  0.074296  0.061705  0  3.920651  0
C  C51  1  0.68983095  0.30423984  0.58273356  1  0  0.07621  0  3.658921  0  0  0.063165  0  3.928312  0  0  0.064966  0  3.940278  0  0  0.074345  0.061758  0  3.920574  0
C  C52  1  0.22480651  0.58086766  0.46065833  1  0  -0.13364  0  3.707225  0  0  -0.164801  0  3.968477  0  0  -0.165945  0  3.984952  0  0  -0.096112  -0.163786  0  3.957271  0
C  C53  1  0.77519743  0.41913703  0.53934255  1  0  -0.133746  0  3.707265  0  0  -0.164897  0  3.96855  0  0  -0.166041  0  3.98503  0  0  -0.096128  -0.163888  0  3.95734  0
C  C54  1  0.11854872  0.51110174  0.37229950  1  0  -0.138625  0  3.728592  0  0  -0.168936  0  3.99284  0  0  -0.170397  0  4.010944  0  0  -0.096289  -0.167809  0  3.980701  0
C  C55  1  0.88145103  0.48889705  0.62770438  1  0  -0.138555  0  3.728642  0  0  -0.168849  0  3.992869  0  0  -0.17031  0  4.010972  0  0  -0.096243  -0.167718  0  3.980724  0
C  C56  1  0.14482466  0.58752883  0.28051395  1  0  0.082529  0  3.648941  0  0  0.070279  0  3.911481  0  0  0.071964  0  3.923038  0  0  0.077465  0.068865  0  3.904191  0
C  C57  1  0.85517380  0.41246605  0.71948638  1  0  0.082516  0  3.648927  0  0  0.070245  0  3.911457  0  0  0.071934  0  3.923008  0  0  0.077403  0.068833  0  3.904163  0
C  C58  1  0.07852640  0.56755786  0.16386506  1  0  0.716017  0  3.886523  0  0  0.672463  0  4.173568  0  0  0.713119  0  4.158508  0  0  0.253733  0.644373  0  4.183537  0
C  C59  1  0.92145368  0.43242624  0.83614024  1  0  0.715944  0  3.886971  0  0  0.672417  0  4.173987  0  0  0.713071  0  4.158933  0  0  0.253792  0.644327  0  4.183957  0
O  O60  1  0.45851306  0.92526857  0.14196537  1  0  -0.917402  0  1.846694  0  0  -0.87328  0  2.059523  0  0  -0.903405  0  2.018157  0  0  -0.621171  -0.851994  0  2.088387  0
O  O61  1  0.54148876  0.07473318  0.85803449  1  0  -0.91721  0  1.846914  0  0  -0.87308  0  2.059743  0  0  -0.903206  0  2.018375  0  0  -0.621077  -0.851793  0  2.088603  0
O  O62  1  0.83555264  0.07936068  0.96620870  1  0  -0.926214  0  1.876995  0  0  -0.868305  0  2.08426  0  0  -0.901486  0  2.043325  0  0  -0.602821  -0.844854  0  2.1126  0
O  O63  1  0.16444562  0.92063716  0.03379007  1  0  -0.926188  0  1.877017  0  0  -0.868269  0  2.084302  0  0  -0.90145  0  2.043368  0  0  -0.602849  -0.844828  0  2.112636  0
O  O64  1  0.48170397  0.21589687  0.20437520  1  0  -0.681448  0  2.000314  0  0  -0.636982  0  2.252579  0  0  -0.673813  0  2.239298  0  0  -0.357591  -0.611028  0  2.260824  0
O  O65  1  0.51828742  0.78410098  0.79562509  1  0  -0.681413  0  2.000557  0  0  -0.63693  0  2.25281  0  0  -0.673782  0  2.239569  0  0  -0.357563  -0.610979  0  2.261055  0
O  O66  1  0.68573378  0.25582575  0.08890888  1  0  -0.715657  0  2.058906  0  0  -0.672678  0  2.329372  0  0  -0.710941  0  2.315367  0  0  -0.376345  -0.645444  0  2.338194  0
O  O67  1  0.31426252  0.74417306  0.91109325  1  0  -0.715694  0  2.058823  0  0  -0.672676  0  2.329265  0  0  -0.710939  0  2.315261  0  0  -0.3764  -0.645448  0  2.338086  0
O  O68  1  0.67427780  0.51396399  0.08104247  1  0  -0.162074  0  2.416826  0  0  -0.092222  0  2.632199  0  0  -0.107862  0  2.643106  0  0  -0.092373  -0.081913  0  2.625065  0
O  O69  1  0.32571618  0.48603486  0.91895373  1  0  -0.162039  0  2.416806  0  0  -0.092195  0  2.632146  0  0  -0.107845  0  2.643056  0  0  -0.092392  -0.081883  0  2.625014  0
O  O70  1  0.84960038  0.72806964  0.97998385  1  0  -0.722053  0  2.035389  0  0  -0.679131  0  2.309584  0  0  -0.719084  0  2.294139  0  0  -0.392508  -0.650829  0  2.319227  0
O  O71  1  0.15040820  0.27192817  0.02001348  1  0  -0.722086  0  2.035357  0  0  -0.679172  0  2.309574  0  0  -0.71913  0  2.294134  0  0  -0.392451  -0.650863  0  2.319215  0
O  O72  1  0.69783575  0.85312704  0.04840545  1  0  -0.589044  0  1.996166  0  0  -0.518608  0  2.199383  0  0  -0.545511  0  2.187095  0  0  -0.269959  -0.499972  0  2.20757  0
O  O73  1  0.30216833  0.14686388  0.95159566  1  0  -0.589142  0  1.996083  0  0  -0.518688  0  2.1993  0  0  -0.545577  0  2.186978  0  0  -0.270005  -0.500054  0  2.207498  0
O  O74  1  0.72848877  0.08040817  0.28072966  1  0  -0.705185  0  2.05765  0  0  -0.662168  0  2.32374  0  0  -0.700522  0  2.309972  0  0  -0.374358  -0.63511  0  2.332518  0
O  O75  1  0.27151319  0.91959750  0.71927206  1  0  -0.705201  0  2.057762  0  0  -0.662137  0  2.323903  0  0  -0.700494  0  2.310141  0  0  -0.374364  -0.635087  0  2.332677  0
O  O76  1  0.96011646  0.19729237  0.21728934  1  0  -0.696459  0  1.998909  0  0  -0.652408  0  2.252457  0  0  -0.690093  0  2.238697  0  0  -0.363483  -0.625884  0  2.261277  0
O  O77  1  0.03989281  0.80270735  0.78271816  1  0  -0.69651  0  1.998704  0  0  -0.652442  0  2.252336  0  0  -0.690123  0  2.238567  0  0  -0.363453  -0.625915  0  2.261131  0
O  O78  1  0.86375518  0.10205332  0.49482472  1  0  -0.177682  0  2.45194  0  0  -0.107087  0  2.671099  0  0  -0.124324  0  2.684089  0  0  -0.094855  -0.095649  0  2.662585  0
O  O79  1  0.13624908  0.89795235  0.50517705  1  0  -0.177685  0  2.452193  0  0  -0.107234  0  2.671386  0  0  -0.124385  0  2.684332  0  0  -0.094937  -0.095791  0  2.662868  0
O  O80  1  0.75378988  0.00539680  0.69426926  1  0  -0.741833  0  2.053083  0  0  -0.699773  0  2.336765  0  0  -0.740833  0  2.322295  0  0  -0.409498  -0.670535  0  2.345779  0
O  O81  1  0.24621127  0.99460984  0.30573500  1  0  -0.741807  0  2.053069  0  0  -0.699722  0  2.336795  0  0  -0.74078  0  2.322329  0  0  -0.409472  -0.670485  0  2.345807  0
O  O82  1  0.99136563  0.10101751  0.78264302  1  0  -0.557597  0  1.943515  0  0  -0.508368  0  2.157512  0  0  -0.53279  0  2.148722  0  0  -0.280967  -0.491461  0  2.16344  0
O  O83  1  0.00863448  0.89899308  0.21735972  1  0  -0.557547  0  1.943631  0  0  -0.508286  0  2.157672  0  0  -0.532704  0  2.148882  0  0  -0.28086  -0.491378  0  2.163598  0
O  O84  1  0.50245110  0.89713090  0.40032684  1  0  -0.70248  0  2.049563  0  0  -0.666135  0  2.323855  0  0  -0.702332  0  2.3081  0  0  -0.36414  -0.640507  0  2.333893  0
O  O85  1  0.49755070  0.10287088  0.59966715  1  0  -0.702395  0  2.049743  0  0  -0.666163  0  2.323972  0  0  -0.702339  0  2.308163  0  0  -0.364108  -0.640533  0  2.334014  0
O  O86  1  0.46938440  0.80946597  0.56957402  1  0  -0.700008  0  2.011449  0  0  -0.655924  0  2.265839  0  0  -0.692744  0  2.252115  0  0  -0.36562  -0.62996  0  2.27449  0
O  O87  1  0.53061135  0.19053485  0.43042147  1  0  -0.69997  0  2.011537  0  0  -0.655959  0  2.265808  0  0  -0.692784  0  2.252083  0  0  -0.36565  -0.629993  0  2.274459  0
O  O88  1  0.26083823  0.70060918  0.30772635  1  0  -0.173847  0  2.482216  0  0  -0.100052  0  2.698408  0  0  -0.116702  0  2.709939  0  0  -0.091639  -0.088971  0  2.691014  0
O  O89  1  0.73915939  0.29938669  0.69227232  1  0  -0.173893  0  2.481948  0  0  -0.100087  0  2.698208  0  0  -0.116738  0  2.709738  0  0  -0.091687  -0.089005  0  2.69082  0
O  O90  1  0.11809451  0.66249631  0.10074452  1  0  -0.671903  0  2.03882  0  0  -0.634923  0  2.303465  0  0  -0.670569  0  2.288062  0  0  -0.355565  -0.609873  0  2.313457  0
O  O91  1  0.88189558  0.33749764  0.89925138  1  0  -0.671747  0  2.039464  0  0  -0.634779  0  2.304084  0  0  -0.670421  0  2.288683  0  0  -0.355495  -0.60973  0  2.31408  0
O  O92  1  0.98627852  0.45515011  0.13606857  1  0  -0.725335  0  2.074204  0  0  -0.685533  0  2.343459  0  0  -0.725189  0  2.328761  0  0  -0.37664  -0.657323  0  2.352627  0
O  O93  1  0.01371915  0.54484572  0.86393765  1  0  -0.725483  0  2.07411  0  0  -0.685677  0  2.34335  0  0  -0.725342  0  2.328655  0  0  -0.376733  -0.657466  0  2.352515  0
