# generated using pymatgen
data_ZnH20C26(S3N5)2
_symmetry_space_group_name_H-M   'P 1'
_cell_length_a   8.75746206
_cell_length_b   8.75913877
_cell_length_c   19.29670000
_cell_angle_alpha   85.38811873
_cell_angle_beta   85.38723382
_cell_angle_gamma   80.84090127
_symmetry_Int_Tables_number   1
_chemical_formula_structural   ZnH20C26(S3N5)2
_chemical_formula_sum   'Zn2 H40 C52 S12 N20'
_cell_volume   1453.16074266
_cell_formula_units_Z   2
loop_
 _symmetry_equiv_pos_site_id
 _symmetry_equiv_pos_as_xyz
  1  'x, y, z'
loop_
 _atom_site_type_symbol
 _atom_site_label
 _atom_site_symmetry_multiplicity
 _atom_site_fract_x
 _atom_site_fract_y
 _atom_site_fract_z
 _atom_site_occupancy
 _atom_site_hle17_bader_spin_density
 _atom_site_hle17_ddec_charge
 _atom_site_hle17_ddec_spin_density
 _atom_site_hle17_ddec_sum_bond_order
 _atom_site_hle17_magmom
 _atom_site_hse06_10hf_bader_spin_density
 _atom_site_hse06_10hf_ddec_charge
 _atom_site_hse06_10hf_ddec_spin_density
 _atom_site_hse06_10hf_ddec_sum_bond_order
 _atom_site_hse06_10hf_magmom
 _atom_site_hse06_bader_spin_density
 _atom_site_hse06_ddec_charge
 _atom_site_hse06_ddec_spin_density
 _atom_site_hse06_ddec_sum_bond_order
 _atom_site_hse06_magmom
 _atom_site_pbe_bader_charge
 _atom_site_pbe_bader_spin_density
 _atom_site_pbe_cm5_charge
 _atom_site_pbe_ddec_charge
 _atom_site_pbe_ddec_spin_density
 _atom_site_pbe_ddec_sum_bond_order
 _atom_site_pbe_magmom
Zn  Zn0  1  0.74165778  0.25834499  0.74999995  1  0  0.782898  0  2.064241  0  0  0.599855  0  2.493586  0  0  0.643626  0  2.457426  0  1.141326  0  0.62787  0.569717  0  2.517994  0
Zn  Zn1  1  0.25834288  0.74165615  0.25000009  1  0  0.782954  0  2.064176  0  0  0.599915  0  2.493517  0  0  0.643686  0  2.457353  0  1.141296  0  0.62789  0.569777  0  2.517927  0
H  H2  1  0.70485504  0.01202152  0.54030820  1  0  0.289608  0  0.956261  0  0  0.253074  0  1.040991  0  0  0.265076  0  1.031986  0  0.545144  0  0.288068  0.244757  0  1.047197  0
H  H3  1  0.98799287  0.29515487  0.95969412  1  0  0.289652  0  0.956468  0  0  0.253131  0  1.041133  0  0  0.265135  0  1.032124  0  0.545024  0  0.288048  0.244807  0  1.047348  0
H  H4  1  0.29514484  0.98797730  0.45969195  1  0  0.289562  0  0.956258  0  0  0.253012  0  1.041013  0  0  0.265017  0  1.032007  0  0.545145  0  0.288042  0.244694  0  1.047221  0
H  H5  1  0.01200665  0.70484627  0.04030596  1  0  0.289574  0  0.956524  0  0  0.253043  0  1.041219  0  0  0.265048  0  1.032211  0  0.545027  0  0.288015  0.24472  0  1.047431  0
H  H6  1  0.95828141  0.37068956  0.48601300  1  0  0.28001  0  0.956659  0  0  0.255438  0  1.036811  0  0  0.265801  0  1.028235  0  0.500462  0  0.272053  0.248117  0  1.042929  0
H  H7  1  0.62930196  0.04170960  0.01398723  1  0  0.280009  0  0.956737  0  0  0.255377  0  1.036939  0  0  0.265743  0  1.028357  0  0.50031  0  0.271969  0.248056  0  1.043052  0
H  H8  1  0.04171829  0.62931042  0.51398712  1  0  0.279997  0  0.956642  0  0  0.255428  0  1.036793  0  0  0.26579  0  1.028217  0  0.500452  0  0.272047  0.248107  0  1.04291  0
H  H9  1  0.37069774  0.95829038  0.98601289  1  0  0.280004  0  0.956741  0  0  0.255375  0  1.036946  0  0  0.265741  0  1.028365  0  0.500445  0  0.271966  0.248054  0  1.04306  0
H  H10  1  0.08974109  0.20921800  0.70875372  1  0  0.072827  0  0.948579  0  0  0.080448  0  1.016465  0  0  0.082528  0  1.015055  0  0.094206  0  0.106708  0.078872  0  1.017606  0
H  H11  1  0.79071474  0.91028660  0.79125353  1  0  0.072996  0  0.948888  0  0  0.080593  0  1.016739  0  0  0.082672  0  1.01533  0  0.093932  0  0.106789  0.07902  0  1.017877  0
H  H12  1  0.91026090  0.79078198  0.29124528  1  0  0.072831  0  0.948562  0  0  0.08045  0  1.016449  0  0  0.08253  0  1.015039  0  0.094217  0  0.106713  0.07887  0  1.017595  0
H  H13  1  0.20928592  0.08971453  0.20874599  1  0  0.072988  0  0.94888  0  0  0.080582  0  1.01673  0  0  0.082661  0  1.015321  0  0.093908  0  0.106792  0.079009  0  1.017868  0
H  H14  1  0.31622183  0.99685753  0.70609945  1  0  0.102057  0  0.978319  0  0  0.110865  0  1.044587  0  0  0.11407  0  1.043081  0  0.090916  0  0.098271  0.108548  0  1.045829  0
H  H15  1  0.00309458  0.68382049  0.79389620  1  0  0.102109  0  0.977974  0  0  0.110856  0  1.044354  0  0  0.114059  0  1.04285  0  0.090383  0  0.098227  0.108537  0  1.045596  0
H  H16  1  0.68378033  0.00314129  0.29390062  1  0  0.102007  0  0.978392  0  0  0.110845  0  1.044627  0  0  0.114049  0  1.043122  0  0.090874  0  0.098253  0.108527  0  1.045869  0
H  H17  1  0.99690512  0.31617949  0.20610340  1  0  0.102106  0  0.978002  0  0  0.110851  0  1.044377  0  0  0.114054  0  1.042874  0  0.090378  0  0.098233  0.108532  0  1.04562  0
H  H18  1  0.48748190  0.83124434  0.76298912  1  0  0.111335  0  0.969141  0  0  0.119979  0  1.03457  0  0  0.123269  0  1.033252  0  0.091392  0  0.10131  0.117558  0  1.035753  0
H  H19  1  0.16870492  0.51257152  0.73700518  1  0  0.111238  0  0.969312  0  0  0.119926  0  1.034719  0  0  0.123217  0  1.033404  0  0.091286  0  0.101239  0.117501  0  1.035906  0
H  H20  1  0.51251762  0.16875680  0.23701096  1  0  0.111341  0  0.969131  0  0  0.119992  0  1.034557  0  0  0.123281  0  1.033238  0  0.0914  0  0.101311  0.11757  0  1.03574  0
H  H21  1  0.83129496  0.48742730  0.26299497  1  0  0.111267  0  0.969315  0  0  0.119953  0  1.034712  0  0  0.123243  0  1.033397  0  0.091329  0  0.101235  0.117527  0  1.035899  0
H  H22  1  0.70109676  0.60580871  0.75733506  1  0  0.076265  0  0.962084  0  0  0.082557  0  1.030435  0  0  0.085254  0  1.02816  0  0.11746  0  0.107232  0.080552  0  1.032115  0
H  H23  1  0.39415143  0.29896963  0.74266667  1  0  0.076307  0  0.96176  0  0  0.082574  0  1.030158  0  0  0.085264  0  1.027874  0  0.118136  0  0.107228  0.08057  0  1.031838  0
H  H24  1  0.29890294  0.39419127  0.24266506  1  0  0.076235  0  0.962111  0  0  0.082514  0  1.030478  0  0  0.08521  0  1.028201  0  0.117464  0  0.107221  0.080511  0  1.032156  0
H  H25  1  0.60584941  0.70103035  0.25733340  1  0  0.076302  0  0.961769  0  0  0.082575  0  1.03017  0  0  0.085266  0  1.027886  0  0.118141  0  0.107231  0.080571  0  1.03185  0
H  H26  1  0.83201930  0.75519847  0.92764089  1  0  0.064848  0  0.965499  0  0  0.068036  0  1.042206  0  0  0.070812  0  1.040004  0  0.075426  0  0.099744  0.066015  0  1.043797  0
H  H27  1  0.24480601  0.16800451  0.57237114  1  0  0.064825  0  0.965492  0  0  0.068009  0  1.042203  0  0  0.070775  0  1.040021  0  0.07582  0  0.09977  0.065992  0  1.043792  0
H  H28  1  0.16798004  0.24480383  0.07235916  1  0  0.064847  0  0.965515  0  0  0.068041  0  1.042218  0  0  0.070814  0  1.040016  0  0.075464  0  0.099745  0.06602  0  1.043809  0
H  H29  1  0.75519351  0.83199663  0.42762946  1  0  0.064856  0  0.965462  0  0  0.068023  0  1.042187  0  0  0.070786  0  1.040003  0  0.075831  0  0.099771  0.066005  0  1.043775  0
H  H30  1  0.58710999  0.66527529  0.90539445  1  0  0.095686  0  0.977129  0  0  0.105327  0  1.042592  0  0  0.108201  0  1.042091  0  0.092118  0  0.097931  0.103264  0  1.043117  0
H  H31  1  0.33471882  0.41288021  0.59460934  1  0  0.095712  0  0.977173  0  0  0.105335  0  1.042621  0  0  0.108205  0  1.042129  0  0.092033  0  0.097972  0.103272  0  1.043151  0
H  H32  1  0.41288971  0.33472469  0.09460567  1  0  0.095693  0  0.977125  0  0  0.105335  0  1.04259  0  0  0.10821  0  1.042088  0  0.09212  0  0.097929  0.103272  0  1.043115  0
H  H33  1  0.66528185  0.58712093  0.40539018  1  0  0.095713  0  0.977186  0  0  0.105336  0  1.042632  0  0  0.108206  0  1.04214  0  0.09203  0  0.09797  0.103273  0  1.043161  0
H  H34  1  0.60413409  0.41881040  0.10921331  1  0  0.093625  0  0.986774  0  0  0.103305  0  1.051715  0  0  0.105398  0  1.052798  0  0.08643  0  0.097963  0.101787  0  1.051143  0
H  H35  1  0.58119216  0.39587551  0.39078427  1  0  0.09367  0  0.986641  0  0  0.103308  0  1.051673  0  0  0.105393  0  1.052779  0  0.0863  0  0.097894  0.10179  0  1.051102  0
H  H36  1  0.39586561  0.58118957  0.89078680  1  0  0.093633  0  0.986771  0  0  0.103313  0  1.05171  0  0  0.105405  0  1.052794  0  0.086429  0  0.097969  0.101795  0  1.051138  0
H  H37  1  0.41880772  0.60412331  0.60921536  1  0  0.093681  0  0.986636  0  0  0.103321  0  1.051664  0  0  0.105409  0  1.052764  0  0.086316  0  0.097917  0.101804  0  1.051093  0
H  H38  1  0.84701541  0.52129179  0.12170284  1  0  0.055203  0  1.004034  0  0  0.059243  0  1.081994  0  0  0.061638  0  1.080115  0  0.095839  0  0.093629  0.057439  0  1.083475  0
H  H39  1  0.47872128  0.15302717  0.37829835  1  0  0.055141  0  1.004055  0  0  0.059128  0  1.08203  0  0  0.061511  0  1.080156  0  0.095771  0  0.093632  0.05734  0  1.083504  0
H  H40  1  0.15298278  0.47871051  0.87829777  1  0  0.05518  0  1.004047  0  0  0.059219  0  1.082014  0  0  0.061613  0  1.080135  0  0.09585  0  0.093611  0.057416  0  1.083496  0
H  H41  1  0.52127860  0.84697165  0.62170232  1  0  0.055127  0  1.004054  0  0  0.059119  0  1.082026  0  0  0.061502  0  1.080151  0  0.095759  0  0.093646  0.057332  0  1.083498  0
C  C42  1  0.72194875  0.16275473  0.61904250  1  0  0.475748  0  3.776579  0  0  0.434382  0  4.065116  0  0  0.463982  0  4.070707  0  0.879534  0  0.237187  0.414813  0  4.060408  0
C  C43  1  0.83723523  0.27803658  0.88095902  1  0  0.475621  0  3.776856  0  0  0.434286  0  4.065447  0  0  0.463839  0  4.071063  0  0.879346  0  0.237194  0.414719  0  4.06073  0
C  C44  1  0.27805095  0.83724525  0.38095761  1  0  0.4757  0  3.776673  0  0  0.434323  0  4.065221  0  0  0.463924  0  4.070812  0  0.879537  0  0.237182  0.414753  0  4.060513  0
C  C45  1  0.16276429  0.72196455  0.11904106  1  0  0.4756  0  3.776846  0  0  0.434271  0  4.065429  0  0  0.463824  0  4.071045  0  0.879348  0  0.237177  0.414697  0  4.060721  0
C  C46  1  0.87809341  0.35733502  0.59116365  1  0  0.474619  0  3.797034  0  0  0.43519  0  4.093314  0  0  0.464043  0  4.099208  0  0.768208  0  0.232817  0.416086  0  4.088423  0
C  C47  1  0.64264781  0.12190058  0.90883679  1  0  0.474118  0  3.797235  0  0  0.434776  0  4.093414  0  0  0.463595  0  4.099322  0  0.768733  0  0.232648  0.415672  0  4.088508  0
C  C48  1  0.12190629  0.64266496  0.40883595  1  0  0.474624  0  3.797026  0  0  0.435192  0  4.093311  0  0  0.464046  0  4.099205  0  0.768197  0  0.232838  0.416088  0  4.088419  0
C  C49  1  0.35735189  0.87809940  0.09116333  1  0  0.474155  0  3.797249  0  0  0.434812  0  4.09344  0  0  0.463631  0  4.099347  0  0.768711  0  0.232657  0.415708  0  4.088535  0
C  C50  1  0.84215746  0.18290188  0.50350097  1  0  0.45724  0  3.801673  0  0  0.413594  0  4.098039  0  0  0.442429  0  4.103987  0  0.719484  0  0.236973  0.394496  0  4.093196  0
C  C51  1  0.81710176  0.15785154  0.99649868  1  0  0.457275  0  3.801419  0  0  0.413637  0  4.097736  0  0  0.442475  0  4.103679  0  0.720273  0  0.237026  0.394533  0  4.092896  0
C  C52  1  0.15784224  0.81709810  0.49649915  1  0  0.457212  0  3.801747  0  0  0.413594  0  4.098073  0  0  0.442428  0  4.104022  0  0.719517  0  0.236975  0.394495  0  4.093231  0
C  C53  1  0.18290023  0.84214844  0.00350084  1  0  0.457298  0  3.801431  0  0  0.413664  0  4.097756  0  0  0.442502  0  4.103698  0  0.720152  0  0.237053  0.394559  0  4.092916  0
C  C54  1  0.07693579  0.09050971  0.72717515  1  0  0.136717  0  3.69602  0  0  0.105061  0  3.945106  0  0  0.11227  0  3.962807  0  0.506904  0  0.043004  0.100286  0  3.933204  0
C  C55  1  0.90944518  0.92307432  0.77282778  1  0  0.136132  0  3.696661  0  0  0.104573  0  3.945559  0  0  0.111778  0  3.963264  0  0.50685  0  0.042777  0.099794  0  3.933667  0
C  C56  1  0.92306620  0.90949027  0.27282384  1  0  0.136806  0  3.695954  0  0  0.105142  0  3.945067  0  0  0.11235  0  3.962768  0  0.506745  0  0.043037  0.100371  0  3.933169  0
C  C57  1  0.09055566  0.07692566  0.22717229  1  0  0.136174  0  3.69667  0  0  0.104629  0  3.945548  0  0  0.111835  0  3.963253  0  0.506899  0  0.042794  0.09985  0  3.933655  0
C  C58  1  0.20243388  0.97186863  0.72649974  1  0  -0.137545  0  3.684753  0  0  -0.153408  0  3.926494  0  0  -0.15946  0  3.944825  0  -0.023989  0  -0.080712  -0.149634  0  3.914398  0
C  C59  1  0.02809390  0.79758618  0.77349374  1  0  -0.137141  0  3.684612  0  0  -0.153011  0  3.926318  0  0  -0.15906  0  3.944651  0  -0.023309  0  -0.080546  -0.149238  0  3.914221  0
C  C60  1  0.79756811  0.02813135  0.27349977  1  0  -0.137552  0  3.684833  0  0  -0.153439  0  3.926581  0  0  -0.159491  0  3.944913  0  -0.023907  0  -0.080705  -0.149666  0  3.914485  0
C  C61  1  0.97190695  0.20241380  0.22650581  1  0  -0.137151  0  3.684573  0  0  -0.153024  0  3.926282  0  0  -0.159074  0  3.944616  0  -0.023323  0  -0.080557  -0.149252  0  3.914187  0
C  C62  1  0.17888012  0.82111339  0.74999614  1  0  0.098284  0  3.748065  0  0  0.112076  0  3.971492  0  0  0.115928  0  3.991281  0  -0.020841  0  0.012508  0.109639  0  3.958038  0
C  C63  1  0.82112072  0.17888659  0.25000341  1  0  0.098299  0  3.7481  0  0  0.11209  0  3.971536  0  0  0.115942  0  3.991325  0  -0.020882  0  0.012505  0.109654  0  3.958082  0
C  C64  1  0.30844312  0.69155780  0.74999587  1  0  0.106303  0  3.738641  0  0  0.116598  0  3.967619  0  0  0.121332  0  3.98766  0  0.074808  0  0.019201  0.113588  0  3.953917  0
C  C65  1  0.69155790  0.30844102  0.25000424  1  0  0.106314  0  3.738677  0  0  0.11662  0  3.967627  0  0  0.121354  0  3.987667  0  0.074809  0  0.019188  0.11361  0  3.953926  0
C  C66  1  0.46117772  0.71608536  0.75619730  1  0  -0.156689  0  3.688195  0  0  -0.172425  0  3.933212  0  0  -0.179475  0  3.952099  0  -0.028989  0  -0.078778  -0.167938  0  3.920659  0
C  C67  1  0.28389156  0.53885751  0.74379510  1  0  -0.156557  0  3.687737  0  0  -0.17236  0  3.932795  0  0  -0.179415  0  3.951677  0  -0.028759  0  -0.07866  -0.167872  0  3.920246  0
C  C68  1  0.53882312  0.28391462  0.24380277  1  0  -0.1567  0  3.688221  0  0  -0.172461  0  3.933268  0  0  -0.179511  0  3.952155  0  -0.029019  0  -0.078795  -0.167975  0  3.920716  0
C  C69  1  0.71610946  0.46114131  0.25620500  1  0  -0.156626  0  3.687775  0  0  -0.172401  0  3.932813  0  0  -0.179455  0  3.951695  0  -0.028809  0  -0.078615  -0.167913  0  3.920265  0
C  C70  1  0.58052764  0.59109101  0.75451853  1  0  0.135554  0  3.697962  0  0  0.103206  0  3.947702  0  0  0.110756  0  3.964434  0  0.445205  0  0.049323  0.098301  0  3.93639  0
C  C71  1  0.40889444  0.41951517  0.74547951  1  0  0.135445  0  3.697552  0  0  0.103091  0  3.947398  0  0  0.11066  0  3.964108  0  0.444484  0  0.049187  0.098188  0  3.936083  0
C  C72  1  0.41947321  0.40890897  0.24548154  1  0  0.135589  0  3.697992  0  0  0.103252  0  3.947743  0  0  0.110804  0  3.964471  0  0.445349  0  0.049331  0.098348  0  3.936431  0
C  C73  1  0.59110544  0.58048365  0.25452065  1  0  0.13549  0  3.697555  0  0  0.103106  0  3.947424  0  0  0.110673  0  3.964133  0  0.44451  0  0.04916  0.098204  0  3.936109  0
C  C74  1  0.77652569  0.67994198  0.96629958  1  0  0.126703  0  3.724379  0  0  0.095284  0  3.985574  0  0  0.101288  0  4.002916  0  0.501867  0  0.039618  0.091402  0  3.973871  0
C  C75  1  0.32006371  0.22348942  0.53370857  1  0  0.126714  0  3.724664  0  0  0.095293  0  3.985852  0  0  0.101296  0  4.003202  0  0.500826  0  0.03964  0.091416  0  3.974152  0
C  C76  1  0.22347401  0.32005800  0.03370053  1  0  0.126696  0  3.724339  0  0  0.095274  0  3.985547  0  0  0.101282  0  4.002885  0  0.501898  0  0.039625  0.09139  0  3.973843  0
C  C77  1  0.67993599  0.77651056  0.46629206  1  0  0.12664  0  3.724713  0  0  0.095247  0  3.985907  0  0  0.101253  0  4.003253  0  0.500842  0  0.039623  0.091376  0  3.974209  0
C  C78  1  0.63951774  0.62811882  0.95436804  1  0  -0.154818  0  3.707234  0  0  -0.17543  0  3.960558  0  0  -0.182663  0  3.982364  0  -0.005822  0  -0.089475  -0.170787  0  3.946018  0
C  C79  1  0.37187666  0.36048326  0.54563581  1  0  -0.154866  0  3.707438  0  0  -0.175421  0  3.960754  0  0  -0.182651  0  3.98256  0  -0.005505  0  -0.089534  -0.170784  0  3.94622  0
C  C80  1  0.36048081  0.37188116  0.04563211  1  0  -0.154778  0  3.70725  0  0  -0.1754  0  3.960582  0  0  -0.182632  0  3.982387  0  -0.005903  0  -0.089448  -0.170757  0  3.946043  0
C  C81  1  0.62812322  0.63951556  0.45436434  1  0  -0.154881  0  3.707415  0  0  -0.17543  0  3.960721  0  0  -0.18266  0  3.982525  0  -0.005485  0  -0.089541  -0.170792  0  3.946185  0
C  C82  1  0.57194306  0.53059395  0.00530665  1  0  0.095636  0  3.724924  0  0  0.106453  0  3.957063  0  0  0.109807  0  3.978521  0  -0.062835  0  0.004683  0.104305  0  3.942508  0
C  C83  1  0.46940298  0.42806620  0.49469478  1  0  0.095591  0  3.725016  0  0  0.106439  0  3.95713  0  0  0.109797  0  3.978581  0  -0.063225  0  0.004714  0.104294  0  3.942572  0
C  C84  1  0.42805681  0.46940487  0.99469298  1  0  0.095554  0  3.724915  0  0  0.10638  0  3.957049  0  0  0.109733  0  3.978509  0  -0.02098  0  0.004646  0.104233  0  3.942494  0
C  C85  1  0.53059672  0.57193378  0.50530585  1  0  0.095624  0  3.724921  0  0  0.106464  0  3.95704  0  0  0.109822  0  3.978492  0  -0.02148  0  0.004712  0.104318  0  3.942483  0
C  C86  1  0.64812395  0.49341661  0.06706231  1  0  -0.150214  0  3.708363  0  0  -0.168835  0  3.956355  0  0  -0.176031  0  3.978676  0  -0.061947  0  -0.088493  -0.164188  0  3.941397  0
C  C87  1  0.50658232  0.35189978  0.43293852  1  0  -0.15013  0  3.708098  0  0  -0.168777  0  3.956112  0  0  -0.175975  0  3.978423  0  -0.061647  0  -0.088418  -0.164133  0  3.941161  0
C  C88  1  0.35187574  0.50658337  0.93293729  1  0  -0.150217  0  3.708304  0  0  -0.168832  0  3.956294  0  0  -0.176028  0  3.978615  0  -0.061948  0  -0.088488  -0.164186  0  3.941337  0
C  C89  1  0.49341853  0.64810020  0.56706207  1  0  -0.150214  0  3.708166  0  0  -0.16886  0  3.956186  0  0  -0.176058  0  3.978498  0  -0.061723  0  -0.088473  -0.164215  0  3.941234  0
C  C90  1  0.78499765  0.54970481  0.07449514  1  0  0.127512  0  3.73456  0  0  0.096801  0  3.990566  0  0  0.103051  0  4.007578  0  0.514392  0  0.038836  0.092788  0  3.97902  0
C  C91  1  0.45030503  0.21503228  0.42550662  1  0  0.127308  0  3.734492  0  0  0.096682  0  3.990488  0  0  0.102948  0  4.00749  0  0.513723  0  0.038707  0.09266  0  3.978958  0
C  C92  1  0.21499940  0.45029749  0.92550550  1  0  0.127566  0  3.734545  0  0  0.096844  0  3.990567  0  0  0.103096  0  4.007578  0  0.51437  0  0.038855  0.09283  0  3.97902  0
C  C93  1  0.54969466  0.78496770  0.57449401  1  0  0.12743  0  3.734577  0  0  0.096817  0  3.990577  0  0  0.103082  0  4.007579  0  0.513823  0  0.038756  0.092799  0  3.979051  0
S  S94  1  0.60631250  0.08065812  0.68098315  1  0  -0.417752  0  1.997652  0  0  -0.397164  0  2.335054  0  0  -0.414666  0  2.326709  0  -0.212569  0  -0.155572  -0.384746  0  2.340315  0
S  S95  1  0.91936644  0.39364300  0.81901457  1  0  -0.417838  0  1.997727  0  0  -0.397222  0  2.335121  0  0  -0.41473  0  2.32681  0  -0.212781  0  -0.155606  -0.384802  0  2.340375  0
S  S96  1  0.39368720  0.91934186  0.31901696  1  0  -0.41774  0  1.997646  0  0  -0.397151  0  2.335057  0  0  -0.414652  0  2.326712  0  -0.212535  0  -0.155573  -0.384733  0  2.340318  0
S  S97  1  0.08063326  0.60635698  0.18098503  1  0  -0.417821  0  1.997662  0  0  -0.397211  0  2.335056  0  0  -0.414717  0  2.326742  0  -0.212785  0  -0.155601  -0.384789  0  2.340312  0
S  S98  1  0.95869359  0.50699950  0.61243455  1  0  -0.425425  0  1.845969  0  0  -0.419818  0  2.149177  0  0  -0.435814  0  2.145951  0  -0.135775  0  -0.184521  -0.408373  0  2.150954  0
S  S99  1  0.49297020  0.04129463  0.88756346  1  0  -0.425412  0  1.846094  0  0  -0.419766  0  2.149133  0  0  -0.435764  0  2.145922  0  -0.136231  0  -0.184584  -0.408357  0  2.150974  0
S  S100  1  0.04130593  0.49300164  0.38756553  1  0  -0.425449  0  1.84597  0  0  -0.419836  0  2.149172  0  0  -0.43583  0  2.145944  0  -0.135761  0  -0.184549  -0.408391  0  2.150947  0
S  S101  1  0.50702836  0.95870535  0.11243618  1  0  -0.425426  0  1.846131  0  0  -0.419788  0  2.149191  0  0  -0.435786  0  2.145981  0  -0.136213  0  -0.184592  -0.408378  0  2.15103  0
S  S102  1  0.88284240  0.12188435  0.42413299  1  0  -0.378977  0  1.847472  0  0  -0.376741  0  2.148308  0  0  -0.393131  0  2.149102  0  -0.00837  0  -0.183077  -0.365135  0  2.147428  0
S  S103  1  0.87812211  0.11718517  0.07587002  1  0  -0.378862  0  1.847265  0  0  -0.376667  0  2.148063  0  0  -0.393051  0  2.148847  0  -0.008484  0  -0.183089  -0.365061  0  2.147192  0
S  S104  1  0.11715729  0.87811563  0.57586713  1  0  -0.378979  0  1.847478  0  0  -0.376753  0  2.148305  0  0  -0.393145  0  2.149101  0  -0.008431  0  -0.183085  -0.365148  0  2.147426  0
S  S105  1  0.12187759  0.88281481  0.92413010  1  0  -0.378904  0  1.847267  0  0  -0.376708  0  2.148068  0  0  -0.393094  0  2.148851  0  -0.00835  0  -0.183119  -0.365103  0  2.147197  0
N  N106  1  0.79009132  0.27959680  0.63824933  1  0  -0.516179  0  3.19033  0  0  -0.440678  0  3.468953  0  0  -0.469127  0  3.477256  0  -1.206246  0  -0.354512  -0.421717  0  3.462834  0
N  N107  1  0.72037670  0.20990422  0.86175035  1  0  -0.515511  0  3.190108  0  0  -0.440233  0  3.468875  0  0  -0.468561  0  3.477081  0  -1.205973  0  -0.354371  -0.421266  0  3.462738  0
N  N108  1  0.20990838  0.72040318  0.36175027  1  0  -0.516204  0  3.190346  0  0  -0.440696  0  3.468965  0  0  -0.469146  0  3.477269  0  -1.206255  0  -0.354537  -0.421735  0  3.462845  0
N  N109  1  0.27962300  0.79009576  0.13824976  1  0  -0.515553  0  3.190124  0  0  -0.440273  0  3.468892  0  0  -0.468601  0  3.477097  0  -1.205984  0  -0.354383  -0.421304  0  3.462758  0
N  N110  1  0.74887337  0.11421543  0.55316818  1  0  -0.417548  0  3.350654  0  0  -0.343151  0  3.590858  0  0  -0.368041  0  3.596706  0  -1.266621  0  -0.360875  -0.326619  0  3.586546  0
N  N111  1  0.88577959  0.25112929  0.94683149  1  0  -0.417677  0  3.351049  0  0  -0.34319  0  3.591021  0  0  -0.368091  0  3.596901  0  -1.266862  0  -0.360813  -0.326647  0  3.586688  0
N  N112  1  0.25112633  0.88578455  0.44683194  1  0  -0.417444  0  3.350698  0  0  -0.343062  0  3.59093  0  0  -0.367954  0  3.596781  0  -1.266661  0  -0.360844  -0.326529  0  3.586616  0
N  N113  1  0.11421993  0.74887184  0.05316859  1  0  -0.417606  0  3.351104  0  0  -0.343101  0  3.591034  0  0  -0.368003  0  3.596917  0  -1.266843  0  -0.36078  -0.326557  0  3.586704  0
N  N114  1  0.89783780  0.30868908  0.52434418  1  0  -0.419632  0  3.365574  0  0  -0.347731  0  3.592884  0  0  -0.371694  0  3.598475  0  -1.259103  0  -0.373379  -0.331714  0  3.588759  0
N  N115  1  0.69130805  0.10215335  0.97565479  1  0  -0.4198  0  3.365993  0  0  -0.347791  0  3.593119  0  0  -0.371769  0  3.598737  0  -1.259421  0  -0.373327  -0.331764  0  3.588979  0
N  N116  1  0.10216172  0.69131206  0.47565590  1  0  -0.419587  0  3.365593  0  0  -0.347689  0  3.592883  0  0  -0.371653  0  3.598474  0  -1.259092  0  -0.373347  -0.331673  0  3.588758  0
N  N117  1  0.30869279  0.89784663  0.02434528  1  0  -0.419777  0  3.365992  0  0  -0.34779  0  3.593142  0  0  -0.371768  0  3.59876  0  -1.259544  0  -0.373313  -0.331762  0  3.589002  0
N  N118  1  0.93302269  0.06695815  0.75000179  1  0  -0.304359  0  3.324759  0  0  -0.221352  0  3.571817  0  0  -0.241034  0  3.594277  0  -1.250192  0  -0.320464  -0.208077  0  3.556494  0
N  N119  1  0.06697912  0.93304299  0.24999769  1  0  -0.304437  0  3.324845  0  0  -0.221434  0  3.571919  0  0  -0.241114  0  3.594373  0  -1.250059  0  -0.3205  -0.208159  0  3.556595  0
N  N120  1  0.55515868  0.44485529  0.75000058  1  0  -0.299343  0  3.307861  0  0  -0.215353  0  3.565534  0  0  -0.234143  0  3.583993  0  -1.228406  0  -0.321657  -0.202755  0  3.552893  0
N  N121  1  0.44484102  0.55514469  0.24999954  1  0  -0.299379  0  3.307915  0  0  -0.215375  0  3.565587  0  0  -0.234167  0  3.584054  0  -1.228542  0  -0.321653  -0.202778  0  3.552947  0
N  N122  1  0.84959733  0.64099926  0.02521036  1  0  -0.28812  0  3.169821  0  0  -0.228632  0  3.418294  0  0  -0.242291  0  3.434936  0  -1.231735  0  -0.30455  -0.219431  0  3.406962  0
N  N123  1  0.35900650  0.15043531  0.47479353  1  0  -0.288113  0  3.169814  0  0  -0.22858  0  3.418228  0  0  -0.242236  0  3.434864  0  -1.230487  0  -0.30456  -0.219398  0  3.406918  0
N  N124  1  0.15040087  0.35900303  0.97478973  1  0  -0.288166  0  3.169781  0  0  -0.228678  0  3.418258  0  0  -0.242336  0  3.434898  0  -1.231765  0  -0.304573  -0.219473  0  3.406924  0
N  N125  1  0.64099434  0.84956466  0.52520655  1  0  -0.288113  0  3.169921  0  0  -0.228621  0  3.418365  0  0  -0.242276  0  3.435  0  -1.230534  0  -0.30457  -0.219454  0  3.407066  0
