# generated using pymatgen
data_CdH44C52(N5O3)2
_symmetry_space_group_name_H-M   'P 1'
_cell_length_a   14.16843879
_cell_length_b   14.16776799
_cell_length_c   15.75347705
_cell_angle_alpha   100.17503788
_cell_angle_beta   112.11062271
_cell_angle_gamma   112.64292551
_symmetry_Int_Tables_number   1
_chemical_formula_structural   CdH44C52(N5O3)2
_chemical_formula_sum   'Cd2 H88 C104 N20 O12'
_cell_volume   2505.40585354
_cell_formula_units_Z   2
loop_
 _symmetry_equiv_pos_site_id
 _symmetry_equiv_pos_as_xyz
  1  'x, y, z'
loop_
 _atom_site_type_symbol
 _atom_site_label
 _atom_site_symmetry_multiplicity
 _atom_site_fract_x
 _atom_site_fract_y
 _atom_site_fract_z
 _atom_site_occupancy
 _atom_site_pbe_bader_charge
 _atom_site_pbe_bader_spin_density
 _atom_site_pbe_cm5_charge
 _atom_site_pbe_ddec_charge
 _atom_site_pbe_ddec_spin_density
 _atom_site_pbe_ddec_sum_bond_order
 _atom_site_pbe_magmom
Cd  Cd0  1  0.99999878  0.99999970  0.99999758  1  1.245637  0  0.777124  0.757957  0  2.226218  0
Cd  Cd1  1  0.50000078  0.00000011  0.50000017  1  1.248216  0  0.777295  0.759629  0  2.225508  0
H  H2  1  0.87883867  0.13072897  0.05703416  1  0.103188  0  0.115375  0.086029  0  1.021358  0
H  H3  1  0.57377127  0.82202024  0.44277900  1  0.103105  0  0.115432  0.086443  0  1.021314  0
H  H4  1  0.12116206  0.86927608  0.94296285  1  0.103194  0  0.115377  0.086047  0  1.021406  0
H  H5  1  0.42622858  0.17797861  0.55721882  1  0.103083  0  0.115425  0.086426  0  1.02127  0
H  H6  1  0.86212342  0.21942069  0.19782687  1  0.080357  0  0.111656  0.116356  0  1.0001  0
H  H7  1  0.52170014  0.66451452  0.30199622  1  0.078673  0  0.112089  0.116523  0  1.000211  0
H  H8  1  0.13787728  0.78058094  0.80217259  1  0.080397  0  0.111638  0.116307  0  1.000147  0
H  H9  1  0.47830287  0.33548556  0.69800226  1  0.078379  0  0.112084  0.116452  0  1.00031  0
H  H10  1  0.94762996  0.19118114  0.35859072  1  0.09677  0  0.110344  0.106343  0  1.009244  0
H  H11  1  0.33252135  0.58906345  0.14132574  1  0.108444  0  0.110232  0.106099  0  1.008942  0
H  H12  1  0.05237023  0.80881687  0.64140499  1  0.096745  0  0.110347  0.106342  0  1.009216  0
H  H13  1  0.66748150  0.41093877  0.85867258  1  0.108431  0  0.110249  0.106154  0  1.008904  0
H  H14  1  0.04285301  0.98368945  0.21553105  1  0.147916  0  0.113275  0.085479  0  1.048321  0
H  H15  1  0.26799832  0.82724635  0.28442027  1  0.126559  0  0.113034  0.08623  0  1.047942  0
H  H16  1  0.95714314  0.01630946  0.78446147  1  0.147987  0  0.113296  0.085503  0  1.048368  0
H  H17  1  0.73200415  0.17275358  0.71557850  1  0.126493  0  0.113025  0.086185  0  1.047952  0
H  H18  1  0.07988456  0.00288630  0.38100843  1  0.099076  0  0.108121  0.068071  0  1.037012  0
H  H19  1  0.12172636  0.69868984  0.11872617  1  0.099832  0  0.107799  0.068324  0  1.036648  0
H  H20  1  0.92011423  0.99711310  0.61899325  1  0.099026  0  0.108127  0.068052  0  1.037044  0
H  H21  1  0.87827653  0.30130746  0.88127304  1  0.099918  0  0.107804  0.068314  0  1.036677  0
H  H22  1  0.20052738  0.21444321  0.80052874  1  0.041136  0  0.095685  0.100434  0  1.018561  0
H  H23  1  0.91427058  0.40004632  0.69918334  1  0.037705  0  0.095341  0.100159  0  1.01896  0
H  H24  1  0.79947331  0.78556416  0.19947313  1  0.041196  0  0.095682  0.100412  0  1.018527  0
H  H25  1  0.08573543  0.59995598  0.30081647  1  0.037792  0  0.095346  0.10015  0  1.018985  0
H  H26  1  0.33421807  0.03746283  0.67477296  1  0.081819  0  0.091117  0.086075  0  1.068023  0
H  H27  1  0.86312671  0.65948390  0.82507033  1  0.031097  0  0.090725  0.085316  0  1.069338  0
H  H28  1  0.66577597  0.96253718  0.32522729  1  0.081657  0  0.0911  0.086066  0  1.068042  0
H  H29  1  0.13687822  0.34051781  0.17493415  1  0.030986  0  0.090708  0.085312  0  1.069316  0
H  H30  1  0.21906732  0.03463495  0.51176716  1  0.067346  0  0.097505  0.100786  0  1.055613  0
H  H31  1  0.02296881  0.70695573  0.98804935  1  0.079437  0  0.097404  0.100639  0  1.055064  0
H  H32  1  0.78092750  0.96536243  0.48823470  1  0.067212  0  0.097481  0.100772  0  1.055612  0
H  H33  1  0.97703616  0.29304251  0.01195109  1  0.079349  0  0.097466  0.10073  0  1.054956  0
H  H34  1  0.22614642  0.12141372  0.90090148  1  0.054515  0  0.090977  0.085489  0  1.064745  0
H  H35  1  0.72089728  0.32541091  0.59906714  1  0.050714  0  0.090544  0.084892  0  1.065084  0
H  H36  1  0.77385389  0.87859108  0.09910496  1  0.054064  0  0.090998  0.085501  0  1.064811  0
H  H37  1  0.27910935  0.67459090  0.40093411  1  0.051216  0  0.090555  0.084905  0  1.065053  0
H  H38  1  0.34956393  0.13444663  0.06670351  1  0.082446  0  0.099078  0.109297  0  1.030244  0
H  H39  1  0.56768343  0.28284245  0.43340416  1  0.089754  0  0.098854  0.108645  0  1.030489  0
H  H40  1  0.65043930  0.86555529  0.93330010  1  0.082511  0  0.099046  0.109264  0  1.030233  0
H  H41  1  0.43232057  0.71715713  0.56659696  1  0.08975  0  0.098884  0.10867  0  1.030567  0
H  H42  1  0.49450713  0.14638782  0.82476405  1  0.048381  0  0.09372  0.098898  0  1.035436  0
H  H43  1  0.82166786  0.66985925  0.67503354  1  0.075227  0  0.094064  0.100652  0  1.032984  0
H  H44  1  0.50548985  0.85361129  0.17523585  1  0.048675  0  0.093731  0.098926  0  1.035394  0
H  H45  1  0.17832984  0.33014016  0.32496461  1  0.07521  0  0.094051  0.100627  0  1.03297  0
H  H46  1  0.06312398  0.25563119  0.70345893  1  0.025939  0  0.086018  0.120875  0  1.032901  0
H  H47  1  0.05231037  0.35938082  0.79631797  1  0.011942  0  0.085652  0.120755  0  1.033313  0
H  H48  1  0.93687674  0.74437127  0.29654382  1  0.025669  0  0.086054  0.120919  0  1.032901  0
H  H49  1  0.94769330  0.64062074  0.20368444  1  0.011924  0  0.085648  0.120745  0  1.033326  0
H  H50  1  0.96860282  0.16348183  0.57769486  1  0.046363  0  0.089571  0.125046  0  1.029676  0
H  H51  1  0.08586893  0.39063433  0.92202610  1  0.043657  0  0.090535  0.126137  0  1.029586  0
H  H52  1  0.03139298  0.83651649  0.42230470  1  0.046407  0  0.089573  0.125053  0  1.029641  0
H  H53  1  0.91413295  0.60936809  0.07797370  1  0.043618  0  0.090547  0.126149  0  1.029562  0
H  H54  1  0.08712270  0.29193300  0.60734575  1  0.037861  0  0.092866  0.130482  0  0.996411  0
H  H55  1  0.18477302  0.47945562  0.89243547  1  0.039555  0  0.092705  0.13023  0  0.995938  0
H  H56  1  0.91287686  0.70807096  0.39265503  1  0.038123  0  0.092859  0.130461  0  0.996452  0
H  H57  1  0.81523286  0.52054390  0.10756505  1  0.039676  0  0.092712  0.130245  0  0.995884  0
H  H58  1  0.67329898  0.16665207  0.93913284  1  0.063571  0  0.084855  0.126847  0  1.039374  0
H  H59  1  0.72673704  0.73406519  0.56074413  1  0.070365  0  0.085376  0.127349  0  1.038778  0
H  H60  1  0.32670105  0.83334663  0.06086763  1  0.063569  0  0.084853  0.126862  0  1.039388  0
H  H61  1  0.27325913  0.26593313  0.43925661  1  0.070133  0  0.08537  0.127358  0  1.03876  0
H  H62  1  0.66144953  0.09870223  0.02248847  1  0.037677  0  0.08763  0.123468  0  1.020743  0
H  H63  1  0.57543836  0.63849440  0.47746457  1  0.033572  0  0.087861  0.124582  0  1.021247  0
H  H64  1  0.33855204  0.90129611  0.97751433  1  0.037733  0  0.08761  0.123454  0  1.020766  0
H  H65  1  0.42455855  0.36150505  0.52253771  1  0.033639  0  0.087872  0.124597  0  1.02125  0
H  H66  1  0.72159286  0.24337037  0.06398191  1  0.045259  0  0.08953  0.126666  0  1.008886  0
H  H67  1  0.67856855  0.65752972  0.43587088  1  0.042472  0  0.089086  0.126308  0  1.009208  0
H  H68  1  0.27840698  0.75662734  0.93601673  1  0.045195  0  0.08954  0.126686  0  1.008856  0
H  H69  1  0.32142946  0.34247231  0.56412920  1  0.042381  0  0.089088  0.126293  0  1.009155  0
H  H70  1  0.43662954  0.05034311  0.15296925  1  0.093533  0  0.111246  0.077296  0  1.024456  0
H  H71  1  0.39735003  0.28313703  0.34698584  1  0.105971  0  0.110813  0.075912  0  1.02351  0
H  H72  1  0.56337182  0.94965999  0.84703414  1  0.093657  0  0.111245  0.077282  0  1.024382  0
H  H73  1  0.60264672  0.71685222  0.65300816  1  0.10594  0  0.110839  0.07588  0  1.023519  0
H  H74  1  0.76668149  0.25914550  0.30536340  1  0.10903  0  0.115429  0.114566  0  0.987179  0
H  H75  1  0.45363668  0.46098187  0.19481599  1  0.090836  0  0.11513  0.113086  0  0.987827  0
H  H76  1  0.23332080  0.74085428  0.69463684  1  0.109  0  0.115439  0.114587  0  0.987255  0
H  H77  1  0.54636291  0.53901718  0.80518568  1  0.090787  0  0.115116  0.113106  0  0.987849  0
H  H78  1  0.88390367  0.28356139  0.48304509  1  0.079968  0  0.11285  0.117221  0  0.984908  0
H  H79  1  0.30064957  0.40067827  0.01710690  1  0.062506  0  0.112278  0.116751  0  0.983375  0
H  H80  1  0.11609814  0.71642987  0.51695228  1  0.079896  0  0.112858  0.117227  0  0.98492  0
H  H81  1  0.69935407  0.59932820  0.98289462  1  0.0628  0  0.112272  0.116789  0  0.9834  0
H  H82  1  0.77946212  0.16917227  0.55709265  1  0.122113  0  0.117793  0.092563  0  1.019677  0
H  H83  1  0.11206660  0.22223439  0.94291208  1  0.127589  0  0.117108  0.091781  0  1.021229  0
H  H84  1  0.22053858  0.83082246  0.44290522  1  0.122102  0  0.117783  0.092532  0  1.019724  0
H  H85  1  0.88793625  0.77777358  0.05708865  1  0.127919  0  0.117118  0.09174  0  1.021271  0
H  H86  1  0.46310724  0.01314162  0.29642514  1  0.116482  0  0.116669  0.094366  0  1.039817  0
H  H87  1  0.21613812  0.16661672  0.20367766  1  0.124606  0  0.117504  0.095605  0  1.038643  0
H  H88  1  0.53688966  0.98685813  0.70357303  1  0.116588  0  0.116667  0.094349  0  1.039842  0
H  H89  1  0.78386129  0.83338248  0.79632137  1  0.124631  0  0.117468  0.09553  0  1.038663  0
C  C90  1  0.91298635  0.11957537  0.12661702  1  0.437666  0  0.046769  0.097529  0  3.936624  0
C  C91  1  0.49298625  0.78654907  0.37323271  1  0.435445  0  0.046651  0.097317  0  3.93481  0
C  C92  1  0.08701094  0.88042780  0.87337989  1  0.437425  0  0.046779  0.097503  0  3.936722  0
C  C93  1  0.50701523  0.21345107  0.62676755  1  0.435494  0  0.04669  0.097406  0  3.934651  0
C  C94  1  0.90425940  0.16901313  0.20602012  1  -0.00868  0  -0.077387  -0.119998  0  3.97422  0
C  C95  1  0.46301913  0.69837619  0.29385502  1  0.051405  0  -0.078513  -0.120234  0  3.973942  0
C  C96  1  0.09574023  0.83098934  0.79397910  1  -0.008623  0  -0.077391  -0.119962  0  3.974317  0
C  C97  1  0.53698473  0.30162667  0.70614511  1  0.051512  0  -0.078524  -0.120178  0  3.973858  0
C  C98  1  0.95037018  0.15321064  0.29370308  1  0.022154  0  -0.05474  -0.053111  0  3.902539  0
C  C99  1  0.35949607  0.65674313  0.20620663  1  -0.097676  0  -0.054278  -0.052328  0  3.902446  0
C  C100  1  0.04962578  0.84678699  0.70629172  1  0.02213  0  -0.054761  -0.05312  0  3.902375  0
C  C101  1  0.64050578  0.34325700  0.79379481  1  -0.097414  0  -0.054275  -0.052406  0  3.902351  0
C  C102  1  0.00197684  0.08590950  0.29905579  1  0.013049  0  -0.001351  0.030428  0  3.998634  0
C  C103  1  0.28675482  0.70289844  0.20084021  1  0.022599  0  -0.0023  0.029288  0  4.001158  0
C  C104  1  0.99802106  0.91409089  0.70094419  1  0.012722  0  -0.001322  0.030419  0  3.998503  0
C  C105  1  0.71324529  0.29709991  0.79915788  1  0.022699  0  -0.002279  0.029295  0  4.001142  0
C  C106  1  0.00387031  0.03681344  0.21465597  1  0.444148  0  0.048806  0.047703  0  3.904835  0
C  C107  1  0.32203211  0.78920625  0.28524007  1  0.508595  0  0.049066  0.046883  0  3.904827  0
C  C108  1  0.99612760  0.96318809  0.78534319  1  0.443986  0  0.048832  0.047758  0  3.904648  0
C  C109  1  0.67796826  0.21079161  0.71475828  1  0.508594  0  0.04907  0.046973  0  3.904782  0
C  C110  1  0.05701581  0.06859625  0.38950654  1  0.651656  0  0.074895  0.083298  0  3.956778  0
C  C111  1  0.17896079  0.66729008  0.11031166  1  0.665056  0  0.075801  0.084016  0  3.957995  0
C  C112  1  0.94298529  0.93140850  0.61049576  1  0.651893  0  0.074884  0.083347  0  3.956637  0
C  C113  1  0.82104204  0.33270440  0.88968178  1  0.664595  0  0.07584  0.084148  0  3.957781  0
C  C114  1  0.14268496  0.12296037  0.56194264  1  0.405776  0  0.084515  0.146197  0  4.030713  0
C  C115  1  0.06113253  0.58043972  0.93787980  1  0.386861  0  0.08491  0.146758  0  4.029  0
C  C116  1  0.85731386  0.87704131  0.43805742  1  0.40595  0  0.084491  0.146146  0  4.030749  0
C  C117  1  0.93887119  0.41956066  0.06211694  1  0.386957  0  0.084894  0.146642  0  4.02918  0
C  C118  1  0.13738767  0.17325024  0.64498557  1  -0.003922  0  -0.005747  0.109879  0  3.944971  0
C  C119  1  0.02850451  0.49223362  0.85479474  1  -0.007881  0  -0.006018  0.10807  0  3.945836  0
C  C120  1  0.86261033  0.82675065  0.35501532  1  -0.004158  0  -0.005697  0.109949  0  3.944943  0
C  C121  1  0.97150248  0.50776848  0.14520358  1  -0.008081  0  -0.006002  0.108161  0  3.945813  0
C  C122  1  0.20397721  0.17381418  0.73689596  1  -0.064493  0  -0.097991  -0.200665  0  3.959163  0
C  C123  1  0.93731437  0.46712602  0.76285256  1  -0.055528  0  -0.097977  -0.200279  0  3.959006  0
C  C124  1  0.79601300  0.82618168  0.26310463  1  -0.064964  0  -0.098045  -0.200689  0  3.959245  0
C  C125  1  0.06269598  0.53287945  0.23714743  1  -0.055651  0  -0.098021  -0.200355  0  3.959146  0
C  C126  1  0.27753183  0.12711405  0.75089617  1  -0.017138  0  -0.011443  0.071658  0  4.016503  0
C  C127  1  0.87662109  0.52671405  0.74887487  1  0.034663  0  -0.010759  0.07213  0  4.015606  0
C  C128  1  0.72246683  0.87288977  0.24910372  1  -0.017227  0  -0.011487  0.071603  0  4.016609  0
C  C129  1  0.12338221  0.47328638  0.25112717  1  0.034776  0  -0.010708  0.072257  0  4.015682  0
C  C130  1  0.27982124  0.07602829  0.66714225  1  -0.047688  0  -0.100495  -0.13345  0  4.013317  0
C  C131  1  0.90925275  0.61264892  0.83267140  1  -0.015029  0  -0.100565  -0.132686  0  4.015884  0
C  C132  1  0.72017923  0.92397695  0.33285861  1  -0.047086  0  -0.100465  -0.133418  0  4.013143  0
C  C133  1  0.09075310  0.38735551  0.16732824  1  -0.015359  0  -0.100578  -0.132789  0  4.015895  0
C  C134  1  0.21393874  0.07380361  0.57480226  1  -0.055626  0  -0.096276  -0.161029  0  3.98562  0
C  C135  1  0.99922672  0.63892288  0.92499366  1  -0.087362  0  -0.095836  -0.159796  0  3.983927  0
C  C136  1  0.78605769  0.92619421  0.42519875  1  -0.055673  0  -0.096254  -0.161014  0  3.985544  0
C  C137  1  0.00077892  0.36107942  0.07500497  1  -0.086925  0  -0.095936  -0.159886  0  3.983974  0
C  C138  1  0.35038926  0.13257193  0.84962224  1  -0.057453  0  -0.015502  0.065867  0  4.016176  0
C  C139  1  0.78327563  0.50092380  0.65017179  1  -0.026068  0  -0.016087  0.063893  0  4.014563  0
C  C140  1  0.64960674  0.86742737  0.15037914  1  -0.057343  0  -0.015439  0.065971  0  4.016137  0
C  C141  1  0.21672734  0.49907975  0.34983073  1  -0.02601  0  -0.016083  0.063853  0  4.014613  0
C  C142  1  0.31221671  0.13041281  0.92007815  1  -0.084781  0  -0.104371  -0.138447  0  4.029015  0
C  C143  1  0.71057089  0.39223594  0.57983708  1  -0.016983  0  -0.103831  -0.136373  0  4.028312  0
C  C144  1  0.68778196  0.86959070  0.07992585  1  -0.08425  0  -0.104395  -0.138541  0  4.029148  0
C  C145  1  0.28943746  0.60776680  0.42016423  1  -0.01746  0  -0.103867  -0.136379  0  4.028279  0
C  C146  1  0.38141192  0.13707163  0.01349307  1  0.019926  0  -0.0988  -0.166146  0  3.993989  0
C  C147  1  0.62359310  0.36792409  0.48652454  1  -0.111403  0  -0.098288  -0.165423  0  3.992427  0
C  C148  1  0.61858798  0.86293004  0.98651052  1  0.019955  0  -0.098801  -0.166107  0  3.994051  0
C  C149  1  0.37640776  0.63207510  0.51347920  1  -0.111538  0  -0.09831  -0.16545  0  3.992595  0
C  C150  1  0.49336304  0.14912409  0.04077848  1  0.336549  0  0.085385  0.146285  0  4.040154  0
C  C151  1  0.60819264  0.45251609  0.45920881  1  0.381374  0  0.086439  0.147915  0  4.039  0
C  C152  1  0.50663638  0.85087481  0.95922466  1  0.336469  0  0.085372  0.146279  0  4.040154  0
C  C153  1  0.39180611  0.54748019  0.54079122  1  0.381492  0  0.08649  0.14799  0  4.038968  0
C  C154  1  0.53449895  0.15244452  0.97147725  1  0.000363  0  -0.005112  0.114614  0  3.933855  0
C  C155  1  0.68074635  0.56300262  0.52841084  1  -0.008169  0  -0.005052  0.114437  0  3.933607  0
C  C156  1  0.46550177  0.84755794  0.02852551  1  0.000475  0  -0.005143  0.114627  0  3.933879  0
C  C157  1  0.31924942  0.43699372  0.47158624  1  -0.008256  0  -0.005119  0.114385  0  3.933497  0
C  C158  1  0.46160884  0.14234508  0.87727739  1  -0.012501  0  -0.096643  -0.191221  0  3.94407  0
C  C159  1  0.76515877  0.58442837  0.62252530  1  -0.04524  0  -0.097458  -0.193998  0  3.942321  0
C  C160  1  0.53839070  0.85765660  0.12272503  1  -0.012998  0  -0.096664  -0.191294  0  3.944066  0
C  C161  1  0.23483947  0.41557118  0.37747257  1  -0.045297  0  -0.097408  -0.193918  0  3.942201  0
C  C162  1  0.06008907  0.22407581  0.63323347  1  -0.062295  0  -0.241218  -0.409484  0  3.985989  0
C  C163  1  0.09100593  0.42661043  0.86651737  1  -0.026203  0  -0.241248  -0.409327  0  3.987209  0
C  C164  1  0.93990813  0.77592543  0.36676744  1  -0.06227  0  -0.241253  -0.409523  0  3.986056  0
C  C165  1  0.90899909  0.57339207  0.13348392  1  -0.026179  0  -0.241241  -0.409323  0  3.987041  0
C  C166  1  0.65390213  0.16584929  0.00009830  1  -0.069295  0  -0.246314  -0.410541  0  3.973544  0
C  C167  1  0.66507275  0.65364979  0.49981491  1  -0.066409  0  -0.246713  -0.411784  0  3.973732  0
C  C168  1  0.34609363  0.83414591  0.99989960  1  -0.069301  0  -0.246291  -0.410569  0  3.973555  0
C  C169  1  0.33492242  0.34634788  0.50018402  1  -0.065995  0  -0.246724  -0.411814  0  3.973679  0
C  C170  1  0.52966242  0.11259296  0.18483620  1  0.657377  0  0.076671  0.079471  0  3.937983  0
C  C171  1  0.42757501  0.34442576  0.31519252  1  0.648996  0  0.07626  0.080832  0  3.937376  0
C  C172  1  0.47033646  0.88741268  0.81516881  1  0.657352  0  0.076638  0.079426  0  3.937924  0
C  C173  1  0.57242521  0.65557279  0.68481059  1  0.649257  0  0.076222  0.080904  0  3.937438  0
C  C174  1  0.60610614  0.13317941  0.28732431  1  -0.022408  0  -0.00203  0.028843  0  4.000063  0
C  C175  1  0.34558065  0.31850717  0.21277225  1  -0.016908  0  -0.003017  0.026489  0  4.004328  0
C  C176  1  0.39389339  0.86682113  0.71267892  1  -0.022474  0  -0.001992  0.028903  0  4.000003  0
C  C177  1  0.65441621  0.68148801  0.78722919  1  -0.016718  0  -0.002955  0.026594  0  4.004525  0
C  C178  1  0.72644731  0.21094186  0.34120182  1  -0.011583  0  -0.051994  -0.053506  0  3.89654  0
C  C179  1  0.36951794  0.38498131  0.15892236  1  -0.009198  0  -0.050092  -0.048859  0  3.897587  0
C  C180  1  0.27355301  0.78905748  0.65879810  1  -0.011562  0  -0.052029  -0.053549  0  3.896519  0
C  C181  1  0.63048270  0.61501460  0.84108119  1  -0.00934  0  -0.050181  -0.049048  0  3.897864  0
C  C182  1  0.79034888  0.22445921  0.43866693  1  -0.046618  0  -0.07773  -0.123557  0  3.986134  0
C  C183  1  0.28569814  0.35148158  0.06142209  1  -0.020299  0  -0.078483  -0.125047  0  3.984443  0
C  C184  1  0.20965039  0.77554326  0.56133111  1  -0.046885  0  -0.077747  -0.123627  0  3.986048  0
C  C185  1  0.71430578  0.64852523  0.93858299  1  -0.020555  0  -0.078456  -0.125082  0  3.984811  0
C  C186  1  0.73319078  0.16178353  0.48103476  1  0.492328  0  0.049531  0.087992  0  3.944247  0
C  C187  1  0.18059604  0.25201328  0.01901182  1  0.504699  0  0.051894  0.090721  0  3.941677  0
C  C188  1  0.26681098  0.83821725  0.51896495  1  0.492732  0  0.049594  0.088135  0  3.944391  0
C  C189  1  0.81940545  0.74799375  0.98099003  1  0.504324  0  0.051887  0.0908  0  3.941866  0
C  C190  1  0.55650636  0.07322939  0.33551616  1  0.506385  0  0.051529  0.049762  0  3.899625  0
C  C191  1  0.23730872  0.22086357  0.16458594  1  0.473434  0  0.050429  0.048595  0  3.899822  0
C  C192  1  0.44349660  0.92676612  0.66448560  1  0.506453  0  0.051506  0.049763  0  3.899434  0
C  C193  1  0.76268741  0.77913277  0.83541232  1  0.473242  0  0.050465  0.048605  0  3.899806  0
N  N194  1  0.96245472  0.05497553  0.13082773  1  -1.233782  0  -0.333328  -0.246583  0  3.513657  0
N  N195  1  0.42406862  0.83168769  0.36904470  1  -1.245574  0  -0.332479  -0.246513  0  3.511444  0
N  N196  1  0.03754265  0.94502586  0.86917172  1  -1.233474  0  -0.33335  -0.246602  0  3.513568  0
N  N197  1  0.57592988  0.16831137  0.63095343  1  -1.245619  0  -0.332511  -0.246614  0  3.511383  0
N  N198  1  0.08012003  0.13073957  0.47299679  1  -1.20747  0  -0.307379  -0.278076  0  3.370142  0
N  N199  1  0.15771297  0.60677802  0.02691550  1  -1.23271  0  -0.308054  -0.279146  0  3.370625  0
N  N200  1  0.91987461  0.86925910  0.52700161  1  -1.207327  0  -0.307363  -0.278082  0  3.369946  0
N  N201  1  0.84229401  0.39322408  0.97308282  1  -1.232475  0  -0.308098  -0.279202  0  3.370528  0
N  N202  1  0.56965318  0.16433592  0.13610261  1  -1.193564  0  -0.303458  -0.268867  0  3.355102  0
N  N203  1  0.52787072  0.43333495  0.36394021  1  -1.198647  0  -0.303222  -0.268927  0  3.356125  0
N  N204  1  0.43034903  0.83566421  0.86390001  1  -1.193627  0  -0.303391  -0.268771  0  3.355011  0
N  N205  1  0.47212914  0.56666360  0.63606172  1  -1.198733  0  -0.30321  -0.268975  0  3.356099  0
N  N206  1  0.61803132  0.08758313  0.43030232  1  -1.250894  0  -0.328831  -0.233397  0  3.493736  0
N  N207  1  0.15695032  0.18771173  0.06980276  1  -1.242364  0  -0.329335  -0.234168  0  3.492547  0
N  N208  1  0.38196867  0.91241819  0.56969889  1  -1.250951  0  -0.328876  -0.233484  0  3.493732  0
N  N209  1  0.84304867  0.81229010  0.93019583  1  -1.242343  0  -0.329293  -0.234047  0  3.492402  0
N  N210  1  0.17530001  0.92315498  0.13146108  1  0.835508  0  0.097442  0.718847  0  4.422783  0
N  N211  1  0.29125428  0.04342204  0.36840707  1  0.821919  0  0.09721  0.718095  0  4.420122  0
N  N212  1  0.82469472  0.07683759  0.86853254  1  0.835782  0  0.097345  0.718702  0  4.422735  0
N  N213  1  0.70874304  0.95657509  0.63159154  1  0.821715  0  0.097207  0.71808  0  4.420152  0
O  O214  1  0.17296371  0.99685842  0.09426114  1  -0.593874  0  -0.210669  -0.473985  0  2.127563  0
O  O215  1  0.40220821  0.07841294  0.40596188  1  -0.588441  0  -0.211703  -0.474837  0  2.126748  0
O  O216  1  0.82703514  0.00313949  0.90573899  1  -0.59392  0  -0.210645  -0.473902  0  2.127578  0
O  O217  1  0.59778986  0.92158646  0.59403745  1  -0.588306  0  -0.211679  -0.474788  0  2.126788  0
O  O218  1  0.26857735  0.91929823  0.16631671  1  -0.530998  0  -0.174094  -0.428935  0  2.003978  0
O  O219  1  0.25264220  0.10190443  0.33355078  1  -0.527913  0  -0.172651  -0.427239  0  2.004954  0
O  O220  1  0.73141220  0.08068524  0.83366692  1  -0.531342  0  -0.174119  -0.428928  0  2.003885  0
O  O221  1  0.74735586  0.89809383  0.66644937  1  -0.527951  0  -0.172616  -0.427211  0  2.004972  0
O  O222  1  0.08465675  0.85686870  0.13089335  1  -0.550375  0  -0.192676  -0.45992  0  1.979968  0
O  O223  1  0.22537755  0.95318760  0.36863895  1  -0.547737  0  -0.192732  -0.459784  0  1.978521  0
O  O224  1  0.91533965  0.14312713  0.86910517  1  -0.550305  0  -0.192615  -0.459895  0  1.980001  0
O  O225  1  0.77462167  0.04681030  0.63136236  1  -0.547643  0  -0.192773  -0.459844  0  1.97855  0
