# generated using pymatgen
data_CeH12C12(NO3)3
_symmetry_space_group_name_H-M   'P 1'
_cell_length_a   8.61866017
_cell_length_b   9.13312742
_cell_length_c   10.55546067
_cell_angle_alpha   98.72716166
_cell_angle_beta   97.63521515
_cell_angle_gamma   117.11647912
_symmetry_Int_Tables_number   1
_chemical_formula_structural   CeH12C12(NO3)3
_chemical_formula_sum   'Ce2 H24 C24 N6 O18'
_cell_volume   711.45197403
_cell_formula_units_Z   2
loop_
 _symmetry_equiv_pos_site_id
 _symmetry_equiv_pos_as_xyz
  1  'x, y, z'
loop_
 _atom_site_type_symbol
 _atom_site_label
 _atom_site_symmetry_multiplicity
 _atom_site_fract_x
 _atom_site_fract_y
 _atom_site_fract_z
 _atom_site_occupancy
 _atom_site_hse06_10hf_ddec_charge
 _atom_site_hse06_10hf_ddec_spin_density
 _atom_site_hse06_10hf_ddec_sum_bond_order
 _atom_site_hse06_10hf_magmom
 _atom_site_hse06_ddec_charge
 _atom_site_hse06_ddec_spin_density
 _atom_site_hse06_ddec_sum_bond_order
 _atom_site_hse06_magmom
 _atom_site_pbe_cm5_charge
 _atom_site_pbe_ddec_charge
 _atom_site_pbe_ddec_spin_density
 _atom_site_pbe_ddec_sum_bond_order
 _atom_site_pbe_magmom
Ce  Ce0  1  0.26596720  0.15745992  0.97001747  1  2.084665  1.018378  2.267004  0.974  2.195596  1.015621  2.153951  0.976  1.304401  2.003972  1.017484  2.349865  0.959
Ce  Ce1  1  0.73403506  0.84254171  0.02998157  1  2.084692  1.018379  2.267019  0.974  2.195619  1.015626  2.153971  0.976  1.30437  2.004001  1.017409  2.34989  0.959
H  H2  1  0.45153453  0.86065801  0.31130689  1  0.082324  -6e-06  1.023289  0.0  0.082989  -7e-06  1.023167  0.0  0.110086  0.081896  1.1e-05  1.023299  0.0
H  H3  1  0.54846537  0.13934362  0.68869567  1  0.082345  -6e-06  1.023269  0.0  0.08301  -7e-06  1.023146  0.0  0.110085  0.081913  1.1e-05  1.023281  0.0
H  H4  1  0.41538203  0.02052412  0.25630650  1  0.098956  -1e-06  1.038967  0.0  0.100395  -7e-06  1.038515  0.0  0.123833  0.097687  2e-05  1.039705  0.0
H  H5  1  0.58461059  0.97947246  0.74369175  1  0.09909  -1e-06  1.038964  0.0  0.100534  -8e-06  1.038514  0.0  0.123875  0.097817  2e-05  1.039701  0.0
H  H6  1  0.28022043  0.76343244  0.08414126  1  0.15268  -3.1e-05  0.972192  0.0  0.15516  -3.4e-05  0.971679  0.0  0.124197  0.151052  -2.5e-05  0.972512  0.0
H  H7  1  0.71976325  0.23656037  0.91585075  1  0.152646  -3.2e-05  0.972265  0.0  0.155123  -3.4e-05  0.971754  0.0  0.124185  0.151008  -2.5e-05  0.972583  0.0
H  H8  1  0.15550725  0.63753565  0.18460938  1  0.131597  -3.9e-05  0.982856  0.0  0.134504  -3.2e-05  0.981092  0.0  0.105838  0.129551  -4e-05  0.984261  0.0
H  H9  1  0.84447688  0.36246729  0.81540105  1  0.131566  -3.9e-05  0.982891  0.0  0.134477  -3.1e-05  0.981123  0.0  0.105801  0.129513  -4e-05  0.984297  0.0
H  H10  1  0.19012521  0.28610560  0.67206877  1  0.108221  -1.7e-05  1.018307  0.0  0.110063  -1.4e-05  1.017399  0.0  0.121719  0.106546  -1.7e-05  1.019428  0.0
H  H11  1  0.80987434  0.71389985  0.32793046  1  0.108135  -1.7e-05  1.018399  0.0  0.109978  -1.4e-05  1.017495  0.0  0.121705  0.106495  -1.7e-05  1.019474  0.0
H  H12  1  0.22204805  0.32496119  0.51369160  1  0.091152  -7e-06  1.005289  0.0  0.091586  -6e-06  1.005104  0.0  0.113898  0.091132  -3e-06  1.004857  0.0
H  H13  1  0.77795313  0.67503156  0.48630711  1  0.091098  -8e-06  1.005279  0.0  0.091533  -6e-06  1.005096  0.0  0.113883  0.091076  -3e-06  1.004854  0.0
H  H14  1  0.55770696  0.40404159  0.60503021  1  0.14199  -3e-06  0.999225  0.0  0.144613  -3e-06  0.997803  0.0  0.108604  0.14039  1.3e-05  0.999925  0.0
H  H15  1  0.44229234  0.59595879  0.39496360  1  0.14201  -3e-06  0.999218  0.0  0.144636  -4e-06  0.997787  0.0  0.108622  0.140409  1.3e-05  0.999914  0.0
H  H16  1  0.48573017  0.55174690  0.64410100  1  0.149758  -3e-05  1.024652  0.0  0.152394  -2.4e-05  1.023357  0.0  0.112518  0.14805  -9e-06  1.02549  0.0
H  H17  1  0.51426631  0.44825728  0.35590909  1  0.149773  -3e-05  1.024548  0.0  0.152406  -2.4e-05  1.023253  0.0  0.112552  0.148065  -8e-06  1.025384  0.0
H  H18  1  0.96821327  0.59298341  0.56719266  1  0.092555  -1.9e-05  1.033103  0.0  0.093918  -1.1e-05  1.031513  0.0  0.111536  0.091558  -2.9e-05  1.033872  0.0
H  H19  1  0.03178303  0.40701570  0.43280254  1  0.092538  -1.9e-05  1.033084  0.0  0.093901  -1.1e-05  1.031492  0.0  0.111506  0.091539  -2.9e-05  1.033858  0.0
H  H20  1  0.99763126  0.74689878  0.70679072  1  0.116618  -0.0  0.974845  0.0  0.118649  -4e-06  0.973197  0.0  0.130078  0.1147  -3e-06  0.976545  0.0
H  H21  1  0.00236888  0.25309650  0.29321009  1  0.116596  -0.0  0.974932  0.0  0.118626  -4e-06  0.973286  0.0  0.130067  0.114678  -3e-06  0.976631  0.0
H  H22  1  0.11891236  0.55173192  0.75965904  1  0.152649  1.5e-05  0.969625  0.0  0.155581  -1e-06  0.968142  0.0  0.114593  0.149612  0.000113  0.971748  0.0
H  H23  1  0.88108989  0.44826971  0.24034094  1  0.15261  1.5e-05  0.969641  0.0  0.155542  -1e-06  0.968157  0.0  0.114578  0.149568  0.000112  0.971761  0.0
H  H24  1  0.26781999  0.62356328  0.65673589  1  0.130028  1e-05  1.009373  0.0  0.132414  1e-06  1.008544  0.0  0.10567  0.128466  6.2e-05  1.009587  0.0
H  H25  1  0.73216663  0.37641936  0.34325608  1  0.13001  1e-05  1.009485  0.0  0.132396  1e-06  1.008653  0.0  0.105685  0.128446  6.2e-05  1.009692  0.0
C  C26  1  0.22048761  0.80680562  0.46853146  1  0.575366  3.1e-05  4.139896  0.0  0.610845  8e-06  4.135811  0.0  0.347061  0.551433  0.000377  4.142479  0.001
C  C27  1  0.77950968  0.19319094  0.53146920  1  0.575466  3.1e-05  4.139701  0.0  0.610947  8e-06  4.135615  0.0  0.347067  0.551536  0.000378  4.142281  0.001
C  C28  1  0.29974451  0.09102209  0.43818417  1  0.575569  -4e-06  4.154616  0.0  0.61091  -5e-06  4.149982  0.0  0.347498  0.551887  0.00012  4.157306  0.0
C  C29  1  0.70026018  0.90898206  0.56182304  1  0.575396  -4e-06  4.15495  0.0  0.610729  -5e-06  4.150323  0.0  0.347372  0.551717  0.00012  4.157636  0.0
C  C30  1  0.16283960  0.99751746  0.62067168  1  0.590035  0.000219  4.155931  0.001  0.62775  6.8e-05  4.150279  0.0  0.356117  0.563197  0.001644  4.16028  0.004
C  C31  1  0.83716842  0.00248162  0.37931914  1  0.589954  0.000219  4.15647  0.001  0.627652  7e-05  4.150836  0.0  0.356064  0.563116  0.001648  4.160819  0.004
C  C32  1  0.35118623  0.89870521  0.28222988  1  -0.013125  5e-06  3.867402  0.0  -0.006124  -0.0  3.875597  0.0  -0.054453  -0.0177  1e-05  3.86206  0.0
C  C33  1  0.64880938  0.10129263  0.71777076  1  -0.013364  5e-06  3.867659  0.0  -0.006367  -1e-06  3.875857  0.0  -0.054546  -0.017945  1e-05  3.862317  0.0
C  C34  1  0.20973213  0.76306964  0.16363553  1  -0.322918  -0.000131  3.860561  0.0  -0.329146  -9.8e-05  3.865188  0.0  -0.154509  -0.319006  -9e-05  3.857478  0.0
C  C35  1  0.79026101  0.23692567  0.83636261  1  -0.322812  -0.000131  3.860631  0.0  -0.329044  -9.9e-05  3.865276  0.0  -0.154445  -0.318875  -9.1e-05  3.857519  0.0
C  C36  1  0.05578560  0.79426078  0.11833268  1  0.701706  -9e-05  4.101207  0.0  0.736534  -0.000117  4.095728  0.0  0.223677  0.678322  -0.000136  4.102341  0.0
C  C37  1  0.94422685  0.20575605  0.88166947  1  0.70174  -9e-05  4.101309  0.0  0.736569  -0.000117  4.095829  0.0  0.223562  0.678351  -0.000137  4.102443  0.0
C  C38  1  0.27270742  0.29350044  0.60035118  1  -0.01788  -5.1e-05  3.869386  0.0  -0.010932  -3.8e-05  3.877542  0.0  -0.059027  -0.022309  -6.4e-05  3.863817  0.0
C  C39  1  0.72729716  0.70650118  0.39965001  1  -0.017635  -5e-05  3.869337  0.0  -0.010704  -3.7e-05  3.877506  0.0  -0.058963  -0.022087  -6.4e-05  3.863758  0.0
C  C40  1  0.46767511  0.42924875  0.65842733  1  -0.360707  -0.000332  3.873292  0.0  -0.367909  -0.00025  3.879012  0.0  -0.164768  -0.356144  -0.000422  3.869481  0.0
C  C41  1  0.53233208  0.57075794  0.34157576  1  -0.36091  -0.000332  3.873377  0.0  -0.368091  -0.00025  3.879061  0.0  -0.16492  -0.356363  -0.000422  3.869604  0.0
C  C42  1  0.53780452  0.45256946  0.80354192  1  0.755807  -0.000649  4.053219  0.0  0.79251  -0.000635  4.044767  0.0  0.254432  0.730656  -0.000221  4.057669  0.0
C  C43  1  0.46218410  0.54740809  0.19645814  1  0.755598  -0.000649  4.053411  0.0  0.792295  -0.000635  4.044971  0.0  0.254308  0.730447  -0.000222  4.057852  0.0
C  C44  1  0.06755486  0.70535781  0.64312895  1  -0.022746  -3e-05  3.882606  0.0  -0.015505  -2.5e-05  3.889503  0.0  -0.059511  -0.02757  -4e-05  3.878057  0.0
C  C45  1  0.93244217  0.29463368  0.35686818  1  -0.022704  -3e-05  3.882524  0.0  -0.015467  -2.4e-05  3.889427  0.0  -0.059458  -0.027541  -4e-05  3.877988  0.0
C  C46  1  0.19602900  0.66220850  0.72076560  1  -0.34321  -0.000462  3.886637  0.0  -0.350119  -0.000329  3.892273  0.0  -0.162002  -0.337961  -0.000746  3.883641  -0.001
C  C47  1  0.80396768  0.33778680  0.27922820  1  -0.343166  -0.000462  3.886482  0.0  -0.350068  -0.000329  3.892125  0.0  -0.162017  -0.337895  -0.000747  3.883464  -0.001
C  C48  1  0.33459106  0.80281841  0.83625661  1  0.739854  0.000406  4.084746  0.001  0.776602  5.7e-05  4.074593  0.0  0.242851  0.713189  0.001933  4.092065  0.005
C  C49  1  0.66540828  0.19718197  0.16373152  1  0.740005  0.000406  4.084773  0.001  0.776729  5.6e-05  4.07466  0.0  0.24292  0.713333  0.001934  4.092091  0.005
N  N50  1  0.28350606  0.93101127  0.39891163  1  -0.257079  -0.0  3.616878  0.0  -0.282362  -1.1e-05  3.631047  0.0  -0.24905  -0.240772  0.000174  3.607043  0.001
N  N51  1  0.71650099  0.06899288  0.60109300  1  -0.256936  -0.0  3.617046  0.0  -0.282217  -1.1e-05  3.631216  0.0  -0.248965  -0.240637  0.000174  3.607223  0.001
N  N52  1  0.24725433  0.12119814  0.55451545  1  -0.263928  4e-06  3.628572  0.0  -0.289491  -2.9e-05  3.642585  0.0  -0.249795  -0.247143  8.4e-05  3.619184  0.0
N  N53  1  0.75274891  0.87880094  0.44549094  1  -0.263791  5e-06  3.628221  0.0  -0.289343  -2.8e-05  3.642244  0.0  -0.24979  -0.247014  8.5e-05  3.618852  0.0
N  N54  1  0.15614730  0.84326919  0.57680444  1  -0.254952  -5e-05  3.608328  0.0  -0.280809  -6e-05  3.623169  0.0  -0.245321  -0.237763  -0.000103  3.59839  0.0
N  N55  1  0.84384946  0.15672864  0.42319822  1  -0.255002  -5e-05  3.608323  0.0  -0.280859  -5.9e-05  3.623172  0.0  -0.2453  -0.23781  -0.000103  3.59838  0.0
O  O56  1  0.21970598  0.67136848  0.43539897  1  -0.474267  1.5e-05  2.175662  0.0  -0.493871  1e-06  2.169055  0.0  -0.264446  -0.461486  0.000148  2.17969  0.0
O  O57  1  0.78028721  0.32863826  0.56459971  1  -0.47441  1.5e-05  2.175328  0.0  -0.494022  1e-06  2.16873  0.0  -0.264553  -0.461648  0.000148  2.179374  0.0
O  O58  1  0.35911770  0.19999645  0.37651930  1  -0.463019  2.8e-05  2.203022  0.0  -0.481479  1.8e-05  2.196132  0.0  -0.249532  -0.451103  5.7e-05  2.207696  0.0
O  O59  1  0.64089428  0.80001276  0.62348844  1  -0.463068  2.9e-05  2.203266  0.0  -0.481533  1.7e-05  2.196387  0.0  -0.249521  -0.45114  5.6e-05  2.207914  0.0
O  O60  1  0.09626542  0.02291700  0.71277602  1  -0.573552  -0.000426  2.323811  -0.001  -0.598385  -0.000292  2.315081  -0.001  -0.291536  -0.556859  -0.000408  2.329906  -0.001
O  O61  1  0.90373183  0.97709098  0.28723844  1  -0.573413  -0.000425  2.324681  -0.001  -0.598233  -0.000299  2.315974  -0.001  -0.291421  -0.556728  -0.00041  2.330782  -0.001
O  O62  1  0.08379796  0.92417746  0.06969972  1  -0.760989  -0.002477  2.27074  -0.003  -0.802524  -0.00215  2.261693  -0.003  -0.394856  -0.729581  -0.002868  2.27488  -0.004
O  O63  1  0.91621835  0.07583555  0.93030616  1  -0.761126  -0.002477  2.270682  -0.003  -0.802645  -0.00215  2.261592  -0.003  -0.39486  -0.729714  -0.002871  2.27481  -0.004
O  O64  1  0.90131965  0.69357280  0.12906752  1  -0.607305  -0.002277  2.170989  -0.002  -0.636739  -0.001826  2.16266  -0.002  -0.326253  -0.585014  -0.002934  2.175374  -0.003
O  O65  1  0.09867794  0.30644027  0.87093816  1  -0.607214  -0.002276  2.171206  -0.002  -0.636638  -0.001826  2.16286  -0.002  -0.326129  -0.584926  -0.002931  2.175603  -0.003
O  O66  1  0.66809430  0.59563625  0.86621231  1  -0.672726  -0.003326  2.210821  -0.003  -0.708181  -0.00269  2.198411  -0.003  -0.376255  -0.646665  -0.003993  2.21881  -0.004
O  O67  1  0.33189723  0.40435395  0.13380961  1  -0.672381  -0.003325  2.211332  -0.003  -0.707841  -0.002689  2.198936  -0.003  -0.376017  -0.646319  -0.003987  2.219313  -0.004
O  O68  1  0.46565934  0.32634512  0.85460042  1  -0.687736  -0.003588  2.26943  -0.003  -0.724828  -0.002964  2.258373  -0.003  -0.390399  -0.660324  -0.004154  2.276574  -0.004
O  O69  1  0.53433798  0.67362862  0.14537833  1  -0.687795  -0.00359  2.268979  -0.003  -0.724887  -0.002965  2.257927  -0.003  -0.390435  -0.660384  -0.004156  2.276131  -0.004
O  O70  1  0.31539415  0.93084276  0.87489369  1  -0.691417  -0.002849  2.304982  -0.003  -0.726383  -0.002291  2.293609  -0.002  -0.382046  -0.66647  -0.00342  2.31349  -0.004
O  O71  1  0.68463129  0.06917405  0.12508813  1  -0.691436  -0.002849  2.304882  -0.003  -0.726393  -0.002292  2.293518  -0.002  -0.382102  -0.666488  -0.003421  2.313394  -0.004
O  O72  1  0.46398402  0.78279738  0.88595582  1  -0.684014  -0.002218  2.28176  -0.002  -0.718279  -0.001821  2.267795  -0.002  -0.384808  -0.659447  -0.002488  2.291727  -0.003
O  O73  1  0.53601796  0.21719917  0.11404158  1  -0.684062  -0.002218  2.281982  -0.002  -0.718301  -0.001821  2.267989  -0.002  -0.384804  -0.659495  -0.002487  2.291951  -0.003
