# generated using pymatgen
data_CdH20C30S(N2O3)2
_symmetry_space_group_name_H-M   'P 1'
_cell_length_a   10.75803216
_cell_length_b   16.42721063
_cell_length_c   19.52831249
_cell_angle_alpha   90.00011076
_cell_angle_beta   90.00039686
_cell_angle_gamma   92.39605986
_symmetry_Int_Tables_number   1
_chemical_formula_structural   CdH20C30S(N2O3)2
_chemical_formula_sum   'Cd4 H80 C120 S4 N16 O24'
_cell_volume   3448.11318490
_cell_formula_units_Z   4
loop_
 _symmetry_equiv_pos_site_id
 _symmetry_equiv_pos_as_xyz
  1  'x, y, z'
loop_
 _atom_site_type_symbol
 _atom_site_label
 _atom_site_symmetry_multiplicity
 _atom_site_fract_x
 _atom_site_fract_y
 _atom_site_fract_z
 _atom_site_occupancy
 _atom_site_pbe_bader_charge
 _atom_site_pbe_bader_spin_density
 _atom_site_pbe_cm5_charge
 _atom_site_pbe_ddec_charge
 _atom_site_pbe_ddec_spin_density
 _atom_site_pbe_ddec_sum_bond_order
 _atom_site_pbe_magmom
Cd  Cd0  1  0.31174542  0.06777042  0.11702100  1  1.231623  0  0.769519  0.844352  0  2.210702  0
Cd  Cd1  1  0.18825518  0.43223167  0.61702074  1  1.231611  0  0.769521  0.844318  0  2.210666  0
Cd  Cd2  1  0.68824888  0.93222884  0.88298006  1  1.231623  0  0.769513  0.844346  0  2.210721  0
Cd  Cd3  1  0.81174665  0.56776948  0.38297929  1  1.231613  0  0.76952  0.844331  0  2.210709  0
H  H4  1  0.13528054  0.20682032  0.29116895  1  0.083241  0  0.099486  0.107329  0  1.015813  0
H  H5  1  0.36472520  0.29318530  0.79116761  1  0.083095  0  0.099482  0.107306  0  1.015813  0
H  H6  1  0.86472618  0.79318635  0.70883006  1  0.083116  0  0.099492  0.107331  0  1.015771  0
H  H7  1  0.63527208  0.70681825  0.20883089  1  0.083198  0  0.099488  0.107334  0  1.015875  0
H  H8  1  0.02922322  0.31228215  0.35974312  1  0.014645  0  0.094802  0.094735  0  1.027351  0
H  H9  1  0.47077308  0.18772173  0.85974457  1  0.014714  0  0.09481  0.094768  0  1.027321  0
H  H10  1  0.97077980  0.68772509  0.64025487  1  0.014716  0  0.094806  0.094833  0  1.027285  0
H  H11  1  0.52922131  0.81227936  0.14025598  1  0.014766  0  0.094801  0.094742  0  1.027315  0
H  H12  1  0.07745252  0.28508863  0.05650859  1  0.089689  0  0.098462  0.112816  0  1.040409  0
H  H13  1  0.42254634  0.21491268  0.55651195  1  0.089721  0  0.098444  0.112808  0  1.0404  0
H  H14  1  0.92254831  0.71491129  0.94348735  1  0.08975  0  0.09846  0.112846  0  1.040392  0
H  H15  1  0.57744804  0.78508841  0.44349014  1  0.089742  0  0.098452  0.112838  0  1.040361  0
H  H16  1  0.97590590  0.39915771  0.99915662  1  0.048877  0  0.094571  0.087751  0  1.013339  0
H  H17  1  0.52408650  0.10084325  0.49915532  1  0.048852  0  0.09453  0.087653  0  1.013297  0
H  H18  1  0.02408662  0.60084336  0.00084239  1  0.048932  0  0.09454  0.087656  0  1.013285  0
H  H19  1  0.47590331  0.89915963  0.50084215  1  0.048937  0  0.094548  0.087697  0  1.013307  0
H  H20  1  0.86624905  0.50197429  0.06816617  1  0.027428  0  0.094516  0.086772  0  1.017803  0
H  H21  1  0.63374903  0.99802447  0.56816479  1  0.027415  0  0.094558  0.086851  0  1.017785  0
H  H22  1  0.13375006  0.49802866  0.93183387  1  0.027419  0  0.094517  0.086803  0  1.017779  0
H  H23  1  0.36624163  0.00197659  0.43183064  1  0.027155  0  0.094583  0.086938  0  1.017621  0
H  H24  1  0.85938058  0.49024710  0.19457697  1  0.08277  0  0.102634  0.110852  0  1.018147  0
H  H25  1  0.64061331  0.00974822  0.69457533  1  0.082943  0  0.102664  0.110877  0  1.01819  0
H  H26  1  0.14062201  0.50975040  0.80542460  1  0.082709  0  0.102638  0.110848  0  1.018096  0
H  H27  1  0.35938164  0.99024495  0.30542010  1  0.082612  0  0.102669  0.110921  0  1.01824  0
H  H28  1  0.27161830  0.08623881  0.95006834  1  0.152806  0  0.139664  0.107293  0  0.994221  0
H  H29  1  0.22838446  0.41375926  0.45006834  1  0.152758  0  0.139683  0.107301  0  0.994244  0
H  H30  1  0.72838254  0.91376111  0.04993169  1  0.15279  0  0.139658  0.107295  0  0.994235  0
H  H31  1  0.77161537  0.58623882  0.54993016  1  0.152873  0  0.139623  0.107256  0  0.9942  0
H  H32  1  0.11683190  0.89365357  0.06930904  1  0.116841  0  0.12329  0.119922  0  0.986009  0
H  H33  1  0.38317184  0.60634788  0.56930797  1  0.116879  0  0.123248  0.119872  0  0.985961  0
H  H34  1  0.88317458  0.10634761  0.93069407  1  0.116929  0  0.123263  0.119893  0  0.985938  0
H  H35  1  0.61682506  0.39364714  0.43069360  1  0.116797  0  0.123273  0.119914  0  0.985892  0
H  H36  1  0.02727404  0.87694901  0.93562232  1  0.214813  0  0.124934  0.14291  0  1.042992  0
H  H37  1  0.47272575  0.62304785  0.43562174  1  0.215215  0  0.124909  0.14291  0  1.043066  0
H  H38  1  0.97272579  0.12304907  0.06437977  1  0.215197  0  0.124937  0.142899  0  1.043029  0
H  H39  1  0.52727482  0.37694598  0.56438085  1  0.215221  0  0.124927  0.142917  0  1.043026  0
H  H40  1  0.32244374  0.03661454  0.83303627  1  0.159149  0  0.104316  0.123566  0  1.060099  0
H  H41  1  0.17755958  0.46338751  0.33303512  1  0.159212  0  0.10433  0.123606  0  1.060105  0
H  H42  1  0.67755893  0.96338479  0.16696530  1  0.159208  0  0.104344  0.123646  0  1.060059  0
H  H43  1  0.82244028  0.53661119  0.66696542  1  0.15919  0  0.104322  0.123604  0  1.060111  0
H  H44  1  0.28264337  0.08279973  0.71314825  1  0.108916  0  0.107555  0.110309  0  1.038249  0
H  H45  1  0.21735645  0.41719955  0.21314616  1  0.108864  0  0.107533  0.110249  0  1.038248  0
H  H46  1  0.71736212  0.91720023  0.28685435  1  0.10893  0  0.107552  0.110275  0  1.038307  0
H  H47  1  0.78264800  0.58279796  0.78685439  1  0.108839  0  0.10753  0.110222  0  1.038248  0
H  H48  1  0.88981530  0.02296293  0.73882746  1  0.145367  0  0.114549  0.129191  0  1.004549  0
H  H49  1  0.61019061  0.47703931  0.23882864  1  0.14532  0  0.114561  0.129248  0  1.004566  0
H  H50  1  0.11019114  0.97703765  0.26117257  1  0.145306  0  0.114574  0.129268  0  1.004593  0
H  H51  1  0.38981581  0.52296066  0.76117139  1  0.145368  0  0.114531  0.129167  0  1.004576  0
H  H52  1  0.93051444  0.97644048  0.85732755  1  0.078753  0  0.105492  0.106185  0  1.056338  0
H  H53  1  0.56948916  0.52355845  0.35732937  1  0.078713  0  0.105478  0.106163  0  1.056364  0
H  H54  1  0.06949012  0.02355947  0.14267249  1  0.078706  0  0.105481  0.106199  0  1.056306  0
H  H55  1  0.43051444  0.47644088  0.64267169  1  0.078727  0  0.105492  0.106154  0  1.056403  0
H  H56  1  0.24297348  0.98593868  0.56833455  1  0.123021  0  0.113554  0.119667  0  0.991566  0
H  H57  1  0.25702183  0.51406148  0.06833707  1  0.123025  0  0.113523  0.119624  0  0.991509  0
H  H58  1  0.75702733  0.01406063  0.43166395  1  0.123048  0  0.113525  0.119618  0  0.991523  0
H  H59  1  0.74297625  0.48593903  0.93166296  1  0.123024  0  0.113533  0.11966  0  0.991563  0
H  H60  1  0.22551576  0.84825963  0.51334194  1  0.09436  0  0.113065  0.120844  0  1.002094  0
H  H61  1  0.27447977  0.65174039  0.01334066  1  0.094759  0  0.113072  0.120846  0  1.002221  0
H  H62  1  0.77448144  0.15174209  0.48665758  1  0.094973  0  0.113047  0.120809  0  1.002114  0
H  H63  1  0.72551920  0.34825951  0.98665886  1  0.094786  0  0.113049  0.120812  0  1.00214  0
H  H64  1  0.83260813  0.83382858  0.55806227  1  0.075956  0  0.116252  0.125016  0  0.977798  0
H  H65  1  0.66738419  0.66616888  0.05805496  1  0.075778  0  0.116255  0.125019  0  0.977818  0
H  H66  1  0.16738898  0.16617131  0.44193879  1  0.07598  0  0.116266  0.124996  0  0.97784  0
H  H67  1  0.33261203  0.33383161  0.94194507  1  0.07591  0  0.116249  0.125033  0  0.977767  0
H  H68  1  0.84894297  0.97410741  0.60809797  1  0.11103  0  0.114343  0.118465  0  1.00242  0
H  H69  1  0.65105853  0.52589391  0.10809447  1  0.11104  0  0.114418  0.118517  0  1.002516  0
H  H70  1  0.15105790  0.02589312  0.39190360  1  0.111026  0  0.114385  0.118504  0  1.002487  0
H  H71  1  0.34893870  0.47410842  0.89190659  1  0.111026  0  0.114364  0.118479  0  1.002496  0
H  H72  1  0.19793385  0.70585822  0.53204283  1  0.111468  0  0.12608  0.123036  0  1.014284  0
H  H73  1  0.30206651  0.79414067  0.03204188  1  0.111505  0  0.126081  0.123028  0  1.014324  0
H  H74  1  0.80206419  0.29414167  0.46795772  1  0.111461  0  0.126067  0.123019  0  1.014258  0
H  H75  1  0.69793433  0.20585925  0.96795969  1  0.111536  0  0.126065  0.123021  0  1.014301  0
H  H76  1  0.10042553  0.57194346  0.45962153  1  0.116181  0  0.118108  0.115602  0  1.027188  0
H  H77  1  0.39956559  0.92806070  0.95962463  1  0.116431  0  0.118137  0.115677  0  1.027142  0
H  H78  1  0.89957161  0.42805704  0.54037953  1  0.116154  0  0.118068  0.115501  0  1.027239  0
H  H79  1  0.60042797  0.07194281  0.04037797  1  0.116464  0  0.118094  0.11561  0  1.027208  0
H  H80  1  0.83808789  0.75512933  0.45700381  1  0.185844  0  0.138758  0.117321  0  1.026622  0
H  H81  1  0.66190960  0.74487102  0.95699803  1  0.185938  0  0.138738  0.117237  0  1.026584  0
H  H82  1  0.16191388  0.24487060  0.54299622  1  0.185851  0  0.138746  0.11734  0  1.026577  0
H  H83  1  0.33808768  0.25513253  0.04299996  1  0.185866  0  0.138753  0.11725  0  1.026632  0
C  C84  1  0.09010026  0.25742240  0.19446316  1  -0.087514  0  -0.013779  -0.074048  0  3.91032  0
C  C85  1  0.40990217  0.24257807  0.69446600  1  -0.087943  0  -0.013742  -0.073939  0  3.91023  0
C  C86  1  0.90990533  0.74258000  0.80553431  1  -0.087831  0  -0.013802  -0.074014  0  3.910323  0
C  C87  1  0.59009391  0.75741937  0.30553659  1  -0.087791  0  -0.013822  -0.074053  0  3.910392  0
C  C88  1  0.08712384  0.25523488  0.26552409  1  0.056359  0  -0.087639  -0.091325  0  4.003937  0
C  C89  1  0.41287195  0.24476328  0.76552540  1  0.056856  0  -0.087676  -0.091307  0  4.003863  0
C  C90  1  0.91287525  0.74476746  0.73447493  1  0.056543  0  -0.087578  -0.091257  0  4.003799  0
C  C91  1  0.58712131  0.75523354  0.23447822  1  0.056516  0  -0.087649  -0.091382  0  4.004072  0
C  C92  1  0.02725101  0.31421108  0.30392314  1  4.9e-05  0  -0.095442  -0.117935  0  4.028802  0
C  C93  1  0.47274518  0.18578535  0.80392408  1  -0.000194  0  -0.09541  -0.118005  0  4.028772  0
C  C94  1  0.97274701  0.68578821  0.69607434  1  -5.5e-05  0  -0.095433  -0.118049  0  4.028696  0
C  C95  1  0.52724806  0.81421085  0.19607750  1  6e-06  0  -0.095344  -0.117822  0  4.028666  0
C  C96  1  0.96682251  0.37629689  0.27172200  1  -0.032697  0  -0.004255  -0.045003  0  3.924734  0
C  C97  1  0.53317521  0.12369988  0.77172218  1  -0.03272  0  -0.004232  -0.045006  0  3.924835  0
C  C98  1  0.03317926  0.62370304  0.72827958  1  -0.032777  0  -0.004335  -0.045062  0  3.924945  0
C  C99  1  0.46681989  0.87629634  0.22827939  1  -0.032752  0  -0.004303  -0.045063  0  3.924836  0
C  C100  1  0.96507346  0.38086828  0.19861225  1  -0.030155  0  -0.000556  0.052242  0  3.932731  0
C  C101  1  0.53492516  0.11912770  0.69861397  1  -0.030285  0  -0.000582  0.052223  0  3.932763  0
C  C102  1  0.03492639  0.61913041  0.80138676  1  -0.030078  0  -0.000543  0.052253  0  3.932836  0
C  C103  1  0.46506909  0.88087034  0.30138863  1  -0.030222  0  -0.000615  0.052128  0  3.932951  0
C  C104  1  0.02824564  0.32089987  0.15898948  1  -0.022022  0  0.001836  0.064121  0  3.92013  0
C  C105  1  0.47176012  0.17910176  0.65899091  1  -0.021722  0  0.001867  0.064074  0  3.920078  0
C  C106  1  0.97175906  0.67910313  0.84100954  1  -0.021803  0  0.001788  0.064013  0  3.92023  0
C  C107  1  0.52823227  0.82089626  0.34100964  1  -0.021883  0  0.001895  0.064158  0  3.92004  0
C  C108  1  0.02964133  0.32991479  0.08645531  1  0.021533  0  -0.09613  -0.126394  0  3.974487  0
C  C109  1  0.47036062  0.17008480  0.58645622  1  0.021541  0  -0.096115  -0.126337  0  3.974481  0
C  C110  1  0.97035948  0.67008453  0.91354165  1  0.02268  0  -0.096115  -0.126382  0  3.974616  0
C  C111  1  0.52963464  0.82991508  0.41354382  1  0.021593  0  -0.096173  -0.126407  0  3.974526  0
C  C112  1  0.97254938  0.39350054  0.05485126  1  -0.128511  0  -0.102658  -0.097151  0  4.065193  0
C  C113  1  0.52745230  0.10650058  0.55485190  1  -0.128546  0  -0.102648  -0.097032  0  4.065132  0
C  C114  1  0.02745053  0.60649938  0.94514570  1  -0.129697  0  -0.102606  -0.097007  0  4.065039  0
C  C115  1  0.47254588  0.89350236  0.44514506  1  -0.128515  0  -0.102608  -0.097057  0  4.065252  0
C  C116  1  0.91087394  0.45191324  0.09387607  1  0.001687  0  -0.101681  -0.092621  0  4.067261  0
C  C117  1  0.58912420  0.04808065  0.59387173  1  0.001641  0  -0.101745  -0.092805  0  4.067165  0
C  C118  1  0.08912496  0.54808484  0.90612346  1  0.001656  0  -0.101716  -0.092732  0  4.067262  0
C  C119  1  0.41087207  0.95192106  0.40612472  1  0.001846  0  -0.101764  -0.092907  0  4.066994  0
C  C120  1  0.90730901  0.44565212  0.16417143  1  -0.047936  0  -0.091895  -0.125111  0  3.97239  0
C  C121  1  0.59269300  0.05434624  0.66417019  1  -0.047932  0  -0.091875  -0.125067  0  3.972313  0
C  C122  1  0.09269746  0.55434907  0.83582963  1  -0.04785  0  -0.091834  -0.125024  0  3.972386  0
C  C123  1  0.40730040  0.94565362  0.33582729  1  -0.047783  0  -0.091883  -0.125055  0  3.972329  0
C  C124  1  0.16195452  0.19241297  0.15980741  1  1.561129  0  0.192394  0.564828  0  4.206835  0
C  C125  1  0.33805045  0.30759169  0.65980957  1  1.561372  0  0.192438  0.564763  0  4.206935  0
C  C126  1  0.83805012  0.80758881  0.84019109  1  1.5611  0  0.19239  0.564737  0  4.206953  0
C  C127  1  0.66194768  0.69241003  0.34019046  1  1.561331  0  0.192469  0.564822  0  4.206809  0
C  C128  1  0.91056516  0.44072108  0.31486801  1  1.553906  0  0.192122  0.563938  0  4.229296  0
C  C129  1  0.58943322  0.05927824  0.81486779  1  1.553813  0  0.192188  0.564125  0  4.229137  0
C  C130  1  0.08943685  0.55928433  0.68512844  1  1.553876  0  0.192151  0.563902  0  4.229192  0
C  C131  1  0.41056289  0.94071982  0.18513224  1  1.553873  0  0.192236  0.564213  0  4.22893  0
C  C132  1  0.21998512  0.03115881  0.96538545  1  0.938358  0  0.146192  0.097645  0  3.92182  0
C  C133  1  0.28002051  0.46883690  0.46538470  1  0.938051  0  0.146122  0.097565  0  3.921848  0
C  C134  1  0.78001479  0.96884110  0.03461510  1  0.938361  0  0.146178  0.097593  0  3.92181  0
C  C135  1  0.71997450  0.53115750  0.53461380  1  0.938214  0  0.146315  0.097725  0  3.921865  0
C  C136  1  0.13626065  0.93099519  0.02446703  1  0.422311  0  -0.001279  -0.03564  0  4.011512  0
C  C137  1  0.36373784  0.56900550  0.52446532  1  0.422287  0  -0.00122  -0.03551  0  4.011381  0
C  C138  1  0.86373923  0.06900412  0.97553607  1  0.422334  0  -0.001233  -0.035528  0  4.01137  0
C  C139  1  0.63625730  0.43099194  0.47553523  1  0.422279  0  -0.001205  -0.035537  0  4.011112  0
C  C140  1  0.09243279  0.92142085  0.95872842  1  0.22937  0  0.008202  -0.087796  0  3.863354  0
C  C141  1  0.40756926  0.57857853  0.45872803  1  0.228963  0  0.008237  -0.087816  0  3.863353  0
C  C142  1  0.90756622  0.07857967  0.04127367  1  0.228381  0  0.008179  -0.08787  0  3.86336  0
C  C143  1  0.59242859  0.42141710  0.54127303  1  0.228777  0  0.008209  -0.087837  0  3.863158  0
C  C144  1  0.12728415  0.00553085  0.85168623  1  0.248139  0  0.101561  0.176261  0  3.995539  0
C  C145  1  0.37271736  0.49446697  0.35168639  1  0.248298  0  0.101514  0.176253  0  3.995619  0
C  C146  1  0.87271948  0.99446910  0.14831329  1  0.248346  0  0.10153  0.176262  0  3.995605  0
C  C147  1  0.62728146  0.50552928  0.64831467  1  0.248299  0  0.101562  0.176289  0  3.995552  0
C  C148  1  0.22798246  0.03483500  0.81224730  1  -0.005622  0  -0.087193  -0.161853  0  3.93596  0
C  C149  1  0.27201778  0.46516636  0.31224396  1  -0.005748  0  -0.087209  -0.162021  0  3.93617  0
C  C150  1  0.77202024  0.96516493  0.18775479  1  -0.005664  0  -0.08727  -0.162032  0  3.936126  0
C  C151  1  0.72798301  0.53483234  0.68775608  1  -0.005728  0  -0.087263  -0.162069  0  3.936088  0
C  C152  1  0.20634121  0.05950982  0.74520001  1  0.008628  0  -0.075526  -0.059345  0  3.960327  0
C  C153  1  0.29366091  0.44049017  0.24519876  1  0.008601  0  -0.075398  -0.059025  0  3.960434  0
C  C154  1  0.79366611  0.94048954  0.25480105  1  0.008525  0  -0.075453  -0.059211  0  3.960647  0
C  C155  1  0.70634171  0.55950794  0.75480179  1  0.008698  0  -0.07535  -0.058951  0  3.960229  0
C  C156  1  0.08528687  0.05460053  0.71930302  1  -0.195313  0  -0.022318  -0.088754  0  3.980232  0
C  C157  1  0.41471120  0.44539936  0.21930121  1  -0.194854  0  -0.022394  -0.088885  0  3.980514  0
C  C158  1  0.91471583  0.94539940  0.28069907  1  -0.194881  0  -0.022357  -0.088751  0  3.980482  0
C  C159  1  0.58528958  0.55459935  0.78069883  1  -0.195416  0  -0.022435  -0.088975  0  3.98046  0
C  C160  1  0.98462211  0.02454920  0.75847092  1  -0.078705  0  -0.071581  -0.059256  0  3.943737  0
C  C161  1  0.51537924  0.47544940  0.25846917  1  -0.079149  0  -0.071529  -0.059224  0  3.943543  0
C  C162  1  0.01538059  0.97545074  0.24153065  1  -0.079166  0  -0.071569  -0.059308  0  3.943739  0
C  C163  1  0.48462343  0.52454993  0.74153035  1  -0.078645  0  -0.071547  -0.059221  0  3.943713  0
C  C164  1  0.00659084  0.99938160  0.82514790  1  0.074417  0  -0.081743  -0.142951  0  3.9435  0
C  C165  1  0.49340852  0.50061620  0.32514875  1  0.074494  0  -0.081747  -0.142999  0  3.943376  0
C  C166  1  0.99341090  0.00061772  0.17485316  1  0.074414  0  -0.081732  -0.143026  0  3.943519  0
C  C167  1  0.50658939  0.49938065  0.67485334  1  0.074388  0  -0.081717  -0.14291  0  3.943487  0
C  C168  1  0.04698015  0.98635638  0.59176529  1  -0.180703  0  -0.022985  -0.09036  0  3.98813  0
C  C169  1  0.45301917  0.51364387  0.09176292  1  -0.18058  0  -0.022982  -0.090234  0  3.987861  0
C  C170  1  0.95302444  0.01364418  0.40823475  1  -0.180564  0  -0.022967  -0.090311  0  3.987945  0
C  C171  1  0.54698172  0.48635727  0.90823762  1  -0.180729  0  -0.023036  -0.090318  0  3.987937  0
C  C172  1  0.15397556  0.95176458  0.56614420  1  0.006288  0  -0.073919  -0.067737  0  3.975826  0
C  C173  1  0.34602532  0.54823623  0.06614353  1  0.006283  0  -0.073915  -0.067747  0  3.975907  0
C  C174  1  0.84602717  0.04823597  0.43385635  1  0.006375  0  -0.073931  -0.067719  0  3.975706  0
C  C175  1  0.65397557  0.45176491  0.93385599  1  0.006363  0  -0.073923  -0.067786  0  3.975938  0
C  C176  1  0.14459352  0.87467373  0.53671761  1  0.01232  0  -0.078947  -0.146445  0  3.942047  0
C  C177  1  0.35540411  0.62532515  0.03671404  1  0.011853  0  -0.078954  -0.146431  0  3.942302  0
C  C178  1  0.85540833  0.12532802  0.46328293  1  0.011692  0  -0.078883  -0.146336  0  3.941989  0
C  C179  1  0.64459393  0.37467475  0.96328600  1  0.011875  0  -0.078927  -0.146417  0  3.942137  0
C  C180  1  0.02895698  0.83242376  0.53460043  1  0.307637  0  0.108078  0.183436  0  3.999252  0
C  C181  1  0.47104619  0.66757455  0.03459685  1  0.307937  0  0.108007  0.183281  0  3.999357  0
C  C182  1  0.97104583  0.16757861  0.46539909  1  0.307675  0  0.1081  0.183337  0  3.999335  0
C  C183  1  0.52895372  0.33242536  0.96540267  1  0.307894  0  0.108039  0.183365  0  3.999427  0
C  C184  1  0.92199185  0.86744191  0.56020551  1  -0.013497  0  -0.080348  -0.154833  0  3.956288  0
C  C185  1  0.57800526  0.63255804  0.06020037  1  -0.013684  0  -0.080282  -0.154616  0  3.956232  0
C  C186  1  0.07800904  0.13255923  0.43979504  1  -0.013648  0  -0.080371  -0.154753  0  3.956479  0
C  C187  1  0.42199383  0.36744430  0.93980172  1  -0.01377  0  -0.080272  -0.154641  0  3.956184  0
C  C188  1  0.93093071  0.94518259  0.58840720  1  -0.022455  0  -0.073813  -0.068397  0  3.982212  0
C  C189  1  0.56907236  0.55481809  0.08840395  1  -0.022434  0  -0.073936  -0.068656  0  3.98218  0
C  C190  1  0.06907303  0.05481979  0.41159437  1  -0.022496  0  -0.07389  -0.068537  0  3.98232  0
C  C191  1  0.43092672  0.44518425  0.91159762  1  -0.02243  0  -0.07383  -0.068562  0  3.982075  0
C  C192  1  0.11024499  0.69585598  0.50562255  1  0.29589  0  0.003499  -0.102608  0  3.912113  0
C  C193  1  0.38975422  0.80414527  0.00562093  1  0.29587  0  0.003547  -0.102538  0  3.912119  0
C  C194  1  0.88975880  0.30414762  0.49437288  1  0.295581  0  0.003548  -0.102662  0  3.912021  0
C  C195  1  0.61024203  0.19585583  0.99437757  1  0.295787  0  0.003532  -0.102542  0  3.912149  0
C  C196  1  0.06108303  0.63017265  0.47016568  1  0.443482  0  0.004446  -0.009217  0  3.980102  0
C  C197  1  0.43891369  0.86982915  0.97016372  1  0.443217  0  0.004449  -0.009211  0  3.980328  0
C  C198  1  0.93891884  0.36982972  0.52983333  1  0.44356  0  0.004502  -0.00898  0  3.980124  0
C  C199  1  0.56107979  0.13017254  0.02983530  1  0.44334  0  0.004447  -0.009313  0  3.98033  0
C  C200  1  0.91985796  0.72170890  0.46935575  1  0.972736  0  0.146994  0.101084  0  3.888531  0
C  C201  1  0.58013500  0.77829084  0.96935124  1  0.972751  0  0.147063  0.101203  0  3.888488  0
C  C202  1  0.08014115  0.27829406  0.53064582  1  0.972308  0  0.147058  0.101025  0  3.888632  0
C  C203  1  0.41985936  0.22170964  0.03064726  1  0.972744  0  0.147111  0.101255  0  3.888616  0
S  S204  1  0.05920440  0.08307017  0.63292123  1  2.502414  0  0.470213  0.959882  0  5.769384  0
S  S205  1  0.44081004  0.41692537  0.13292204  1  2.501685  0  0.470315  0.95988  0  5.769591  0
S  S206  1  0.94079818  0.91692732  0.36707932  1  2.501919  0  0.470215  0.959934  0  5.769583  0
S  S207  1  0.55920187  0.58307282  0.86707851  1  2.502163  0  0.470286  0.959958  0  5.769134  0
N  N208  1  0.21491019  0.99962003  0.02785668  1  -1.20019  0  -0.358449  -0.303387  0  3.571426  0
N  N209  1  0.28509384  0.50037888  0.52785609  1  -1.200087  0  -0.358382  -0.30333  0  3.571339  0
N  N210  1  0.78509163  0.00038112  0.97214387  1  -1.200134  0  -0.358401  -0.303345  0  3.571325  0
N  N211  1  0.71490221  0.49961795  0.47214293  1  -1.200065  0  -0.358514  -0.30347  0  3.571315  0
N  N212  1  0.14733714  0.98531075  0.92158763  1  -1.244744  0  -0.22186  0.00907  0  3.800438  0
N  N213  1  0.35266526  0.51468610  0.42158693  1  -1.24449  0  -0.221937  0.009037  0  3.800475  0
N  N214  1  0.85266275  0.01468855  0.07841343  1  -1.244297  0  -0.221866  0.009145  0  3.800337  0
N  N215  1  0.64733448  0.48531016  0.57841362  1  -1.244484  0  -0.22197  0.009027  0  3.800464  0
N  N216  1  0.01951243  0.75366555  0.50515285  1  -1.260021  0  -0.222455  0.00869  0  3.799947  0
N  N217  1  0.48048576  0.74633387  0.00515046  1  -1.260019  0  -0.22243  0.00871  0  3.799798  0
N  N218  1  0.98049128  0.24633623  0.49484514  1  -1.259305  0  -0.222507  0.008755  0  3.799863  0
N  N219  1  0.51951237  0.25366786  0.99484906  1  -1.26005  0  -0.222461  0.008658  0  3.799956  0
N  N220  1  0.94324661  0.64736059  0.44778295  1  -1.215765  0  -0.354849  -0.282223  0  3.534373  0
N  N221  1  0.55674509  0.85263786  0.94778104  1  -1.215893  0  -0.354944  -0.282361  0  3.534896  0
N  N222  1  0.05675143  0.35263931  0.55221811  1  -1.215827  0  -0.354923  -0.282296  0  3.534608  0
N  N223  1  0.44324845  0.14736504  0.05221746  1  -1.215838  0  -0.354941  -0.282254  0  3.534645  0
O  O224  1  0.14574128  0.17534465  0.09670565  1  -1.193291  0  -0.334424  -0.577624  0  2.193913  0
O  O225  1  0.35426458  0.32465621  0.59670944  1  -1.19319  0  -0.334438  -0.577599  0  2.193935  0
O  O226  1  0.85426246  0.82465773  0.90329285  1  -1.193232  0  -0.334423  -0.577601  0  2.19392  0
O  O227  1  0.64573729  0.67534616  0.40329469  1  -1.193265  0  -0.334449  -0.577654  0  2.193794  0
O  O228  1  0.23849637  0.15404170  0.19726084  1  -1.150709  0  -0.345826  -0.55282  0  2.171963  0
O  O229  1  0.26151282  0.34596370  0.69726482  1  -1.150995  0  -0.345869  -0.552817  0  2.172087  0
O  O230  1  0.76150734  0.84596007  0.80273817  1  -1.150726  0  -0.34583  -0.552782  0  2.172071  0
O  O231  1  0.73848515  0.65403437  0.30273829  1  -1.150897  0  -0.345868  -0.552793  0  2.172049  0
O  O232  1  0.98140706  0.47880051  0.35763685  1  -1.164659  0  -0.333371  -0.559555  0  2.153832  0
O  O233  1  0.51859366  0.02119772  0.85763630  1  -1.164696  0  -0.333448  -0.559691  0  2.15391  0
O  O234  1  0.01858644  0.52120179  0.64236626  1  -1.164552  0  -0.333314  -0.559441  0  2.153767  0
O  O235  1  0.48140611  0.97879915  0.14236476  1  -1.164571  0  -0.333421  -0.559681  0  2.153742  0
O  O236  1  0.79618827  0.45594434  0.30686251  1  -1.156516  0  -0.32923  -0.546666  0  2.181964  0
O  O237  1  0.70380782  0.04404764  0.80686219  1  -1.156451  0  -0.329269  -0.546747  0  2.181901  0
O  O238  1  0.20381842  0.54406172  0.69313138  1  -1.156574  0  -0.329306  -0.546722  0  2.181826  0
O  O239  1  0.29618161  0.95594671  0.19313273  1  -1.156605  0  -0.329295  -0.546818  0  2.181779  0
O  O240  1  0.17123648  0.12544037  0.60755984  1  -1.309157  0  -0.310461  -0.527897  0  2.214464  0
O  O241  1  0.32877097  0.37455140  0.10755657  1  -1.308966  0  -0.310576  -0.527994  0  2.214316  0
O  O242  1  0.82877084  0.87455900  0.39244225  1  -1.309109  0  -0.310427  -0.527888  0  2.214698  0
O  O243  1  0.67123799  0.62544311  0.89244449  1  -1.309194  0  -0.310489  -0.527868  0  2.21415  0
O  O244  1  0.93942944  0.11990466  0.62815499  1  -1.289238  0  -0.314872  -0.510134  0  2.139722  0
O  O245  1  0.56057769  0.38009365  0.12815787  1  -1.288739  0  -0.314816  -0.510046  0  2.140177  0
O  O246  1  0.06057495  0.88009164  0.37184402  1  -1.28887  0  -0.3149  -0.510204  0  2.139653  0
O  O247  1  0.43942780  0.61990631  0.87184268  1  -1.28902  0  -0.314917  -0.510218  0  2.139788  0
