# generated using pymatgen
data_AgH10C9N3O2
_symmetry_space_group_name_H-M   'P 1'
_cell_length_a   11.46590342
_cell_length_b   11.46593238
_cell_length_c   11.46594899
_cell_angle_alpha   96.22355668
_cell_angle_beta   96.22344241
_cell_angle_gamma   96.22352052
_symmetry_Int_Tables_number   1
_chemical_formula_structural   AgH10C9N3O2
_chemical_formula_sum   'Ag6 H60 C54 N18 O12'
_cell_volume   1478.62942194
_cell_formula_units_Z   6
loop_
 _symmetry_equiv_pos_site_id
 _symmetry_equiv_pos_as_xyz
  1  'x, y, z'
loop_
 _atom_site_type_symbol
 _atom_site_label
 _atom_site_symmetry_multiplicity
 _atom_site_fract_x
 _atom_site_fract_y
 _atom_site_fract_z
 _atom_site_occupancy
 _atom_site_hle17_bader_spin_density
 _atom_site_hle17_ddec_charge
 _atom_site_hle17_ddec_spin_density
 _atom_site_hle17_ddec_sum_bond_order
 _atom_site_hle17_magmom
 _atom_site_hse06_10hf_bader_spin_density
 _atom_site_hse06_10hf_ddec_charge
 _atom_site_hse06_10hf_ddec_spin_density
 _atom_site_hse06_10hf_ddec_sum_bond_order
 _atom_site_hse06_10hf_magmom
 _atom_site_hse06_bader_spin_density
 _atom_site_hse06_ddec_charge
 _atom_site_hse06_ddec_spin_density
 _atom_site_hse06_ddec_sum_bond_order
 _atom_site_hse06_magmom
 _atom_site_pbe_bader_spin_density
 _atom_site_pbe_cm5_charge
 _atom_site_pbe_ddec_charge
 _atom_site_pbe_ddec_spin_density
 _atom_site_pbe_ddec_sum_bond_order
 _atom_site_pbe_magmom
Ag  Ag0  1  0.67563435  0.46862537  0.00226694  1  0  0.556211  0  1.416992  0  0  0.426047  0  1.842578  0  0  0.45663  0  1.796711  0  0  0.477248  0.405022  0  1.874234  0
Ag  Ag1  1  0.00226650  0.67563395  0.46862417  1  0  0.556196  0  1.416993  0  0  0.426041  0  1.842578  0  0  0.456623  0  1.796712  0  0  0.477233  0.40501  0  1.87423  0
Ag  Ag2  1  0.46862580  0.00226770  0.67563255  1  0  0.556238  0  1.416989  0  0  0.426064  0  1.842579  0  0  0.456649  0  1.796713  0  0  0.477247  0.40504  0  1.874236  0
Ag  Ag3  1  0.32436567  0.53137516  0.99773283  1  0  0.556206  0  1.416985  0  0  0.426047  0  1.842566  0  0  0.456627  0  1.7967  0  0  0.477236  0.405018  0  1.874221  0
Ag  Ag4  1  0.99773342  0.32436570  0.53137463  1  0  0.556203  0  1.416992  0  0  0.426045  0  1.842572  0  0  0.456623  0  1.796707  0  0  0.477242  0.405022  0  1.874227  0
Ag  Ag5  1  0.53137324  0.99773195  0.32436877  1  0  0.556252  0  1.417002  0  0  0.426079  0  1.8426  0  0  0.456661  0  1.796735  0  0  0.477258  0.405054  0  1.874257  0
H  H6  1  0.35166383  0.53949143  0.25336782  1  0  0.093865  0  0.994244  0  0  0.094566  0  1.076233  0  0  0.099336  0  1.071191  0  0  0.096994  0.091089  0  1.079914  0
H  H7  1  0.25336908  0.35166446  0.53949053  1  0  0.093838  0  0.994244  0  0  0.094537  0  1.076239  0  0  0.099309  0  1.071196  0  0  0.09699  0.091062  0  1.079919  0
H  H8  1  0.53949076  0.25336840  0.35166193  1  0  0.093882  0  0.994224  0  0  0.094586  0  1.076208  0  0  0.099356  0  1.071166  0  0  0.096994  0.091111  0  1.07989  0
H  H9  1  0.64833894  0.46050998  0.74663148  1  0  0.093839  0  0.994254  0  0  0.094545  0  1.076232  0  0  0.099316  0  1.07119  0  0  0.096976  0.09107  0  1.079913  0
H  H10  1  0.74663281  0.64833695  0.46050867  1  0  0.093867  0  0.994245  0  0  0.094565  0  1.076232  0  0  0.099337  0  1.071187  0  0  0.096985  0.091088  0  1.079913  0
H  H11  1  0.46051091  0.74663125  0.64833706  1  0  0.093796  0  0.994265  0  0  0.0945  0  1.076256  0  0  0.099271  0  1.071213  0  0  0.096963  0.091025  0  1.079935  0
H  H12  1  0.92260794  0.14250902  0.83053485  1  0  0.113359  0  0.98582  0  0  0.125574  0  1.046144  0  0  0.128105  0  1.047824  0  0  0.098356  0.123783  0  1.045201  0
H  H13  1  0.83053602  0.92260566  0.14250787  1  0  0.113379  0  0.985805  0  0  0.125591  0  1.046137  0  0  0.128116  0  1.047826  0  0  0.098359  0.1238  0  1.045196  0
H  H14  1  0.14250994  0.83053543  0.92260733  1  0  0.113369  0  0.985815  0  0  0.125586  0  1.046143  0  0  0.128113  0  1.047828  0  0  0.098339  0.123795  0  1.045201  0
H  H15  1  0.07739285  0.85749063  0.16946578  1  0  0.113372  0  0.985789  0  0  0.12558  0  1.04613  0  0  0.128112  0  1.04781  0  0  0.09834  0.123789  0  1.045188  0
H  H16  1  0.16946292  0.07739310  0.85749072  1  0  0.113363  0  0.985824  0  0  0.125596  0  1.046127  0  0  0.128122  0  1.047815  0  0  0.098359  0.123805  0  1.045186  0
H  H17  1  0.85749008  0.16946510  0.07739418  1  0  0.113391  0  0.985785  0  0  0.125624  0  1.046091  0  0  0.128151  0  1.047777  0  0  0.098359  0.123833  0  1.045149  0
H  H18  1  0.99475810  0.32690181  0.96437350  1  0  0.116604  0  0.953354  0  0  0.13746  0  1.012125  0  0  0.138733  0  1.013051  0  0  0.091919  0.136534  0  1.011512  0
H  H19  1  0.96437515  0.99475777  0.32690062  1  0  0.116628  0  0.953319  0  0  0.137486  0  1.012092  0  0  0.138759  0  1.01302  0  0  0.091938  0.136559  0  1.011482  0
H  H20  1  0.32690460  0.96437609  0.99475593  1  0  0.116648  0  0.953338  0  0  0.137513  0  1.012076  0  0  0.138787  0  1.013004  0  0  0.091955  0.136588  0  1.011466  0
H  H21  1  0.00524182  0.67309784  0.03562617  1  0  0.116587  0  0.953375  0  0  0.137446  0  1.012134  0  0  0.138718  0  1.013061  0  0  0.091922  0.136521  0  1.011522  0
H  H22  1  0.03562400  0.00524276  0.67309644  1  0  0.116677  0  0.953304  0  0  0.137512  0  1.012082  0  0  0.138785  0  1.013011  0  0  0.091944  0.136586  0  1.011471  0
H  H23  1  0.67309532  0.03562356  0.00524461  1  0  0.116651  0  0.953348  0  0  0.137519  0  1.012075  0  0  0.138792  0  1.013003  0  0  0.091951  0.136594  0  1.011463  0
H  H24  1  0.89260913  0.42679760  0.00803536  1  0  0.110989  0  0.979486  0  0  0.125735  0  1.056294  0  0  0.128736  0  1.053518  0  0  0.087646  0.123499  0  1.058296  0
H  H25  1  0.00803852  0.89260779  0.42679469  1  0  0.111002  0  0.979496  0  0  0.125766  0  1.05626  0  0  0.128769  0  1.053483  0  0  0.087678  0.123532  0  1.058263  0
H  H26  1  0.42680054  0.00803615  0.89260438  1  0  0.110985  0  0.979492  0  0  0.125731  0  1.056291  0  0  0.128736  0  1.053512  0  0  0.087643  0.123497  0  1.058293  0
H  H27  1  0.10739166  0.57320205  0.99196266  1  0  0.111003  0  0.979494  0  0  0.125757  0  1.056279  0  0  0.128759  0  1.053502  0  0  0.087668  0.123522  0  1.058282  0
H  H28  1  0.99196084  0.10739451  0.57320259  1  0  0.111003  0  0.979477  0  0  0.125757  0  1.056258  0  0  0.128763  0  1.053479  0  0  0.087671  0.123521  0  1.058263  0
H  H29  1  0.57319927  0.99196261  0.10739605  1  0  0.111002  0  0.979472  0  0  0.125744  0  1.056279  0  0  0.128747  0  1.053502  0  0  0.08765  0.12351  0  1.058281  0
H  H30  1  0.93855997  0.42121601  0.86428884  1  0  0.145465  0  0.921947  0  0  0.168369  0  0.976541  0  0  0.170655  0  0.976023  0  0  0.10565  0.166687  0  0.976976  0
H  H31  1  0.86429064  0.93855567  0.42121498  1  0  0.145531  0  0.921933  0  0  0.16842  0  0.976537  0  0  0.170707  0  0.976021  0  0  0.105677  0.166742  0  0.976967  0
H  H32  1  0.42121705  0.86428902  0.93855645  1  0  0.145495  0  0.921963  0  0  0.168398  0  0.97655  0  0  0.170684  0  0.976034  0  0  0.105675  0.16672  0  0.976978  0
H  H33  1  0.06144181  0.57878452  0.13571112  1  0  0.145499  0  0.921946  0  0  0.168387  0  0.976553  0  0  0.170673  0  0.976036  0  0  0.105662  0.166707  0  0.976985  0
H  H34  1  0.13570840  0.06144398  0.57878284  1  0  0.145546  0  0.921917  0  0  0.168432  0  0.976513  0  0  0.170719  0  0.975999  0  0  0.105673  0.166754  0  0.976943  0
H  H35  1  0.57878286  0.13571063  0.06144496  1  0  0.145526  0  0.921939  0  0  0.168425  0  0.976528  0  0  0.170712  0  0.976013  0  0  0.105683  0.166748  0  0.976956  0
H  H36  1  0.67641131  0.90322093  0.73722663  1  0  0.11781  0  0.962009  0  0  0.134356  0  1.033367  0  0  0.136665  0  1.031715  0  0  0.093611  0.132564  0  1.034689  0
H  H37  1  0.73722520  0.67640987  0.90322154  1  0  0.117766  0  0.962078  0  0  0.134314  0  1.03343  0  0  0.136621  0  1.031782  0  0  0.093601  0.132524  0  1.03475  0
H  H38  1  0.90322101  0.73722632  0.67641163  1  0  0.117802  0  0.962036  0  0  0.134349  0  1.033389  0  0  0.136659  0  1.031737  0  0  0.093605  0.132559  0  1.034708  0
H  H39  1  0.32358861  0.09677871  0.26277391  1  0  0.117805  0  0.962022  0  0  0.134349  0  1.033375  0  0  0.136658  0  1.031724  0  0  0.093606  0.132558  0  1.034696  0
H  H40  1  0.26277296  0.32358978  0.09677794  1  0  0.117802  0  0.962009  0  0  0.134351  0  1.03336  0  0  0.13666  0  1.03171  0  0  0.093618  0.132559  0  1.034681  0
H  H41  1  0.09677825  0.26277509  0.32358990  1  0  0.117789  0  0.962053  0  0  0.134337  0  1.033402  0  0  0.136643  0  1.031755  0  0  0.093613  0.132547  0  1.034722  0
H  H42  1  0.83352285  0.94071903  0.74793819  1  0  0.114083  0  0.948858  0  0  0.139538  0  1.001775  0  0  0.140873  0  1.001884  0  0  0.093249  0.138551  0  1.001718  0
H  H43  1  0.74793627  0.83352074  0.94071852  1  0  0.114044  0  0.948839  0  0  0.13952  0  1.001723  0  0  0.140857  0  1.00183  0  0  0.093243  0.138534  0  1.001667  0
H  H44  1  0.94071767  0.74793635  0.83352214  1  0  0.114062  0  0.948841  0  0  0.139523  0  1.001758  0  0  0.14086  0  1.001864  0  0  0.09324  0.138537  0  1.001702  0
H  H45  1  0.16647717  0.05928150  0.25206333  1  0  0.114092  0  0.948851  0  0  0.139544  0  1.00177  0  0  0.14088  0  1.001878  0  0  0.093257  0.138558  0  1.001713  0
H  H46  1  0.25206267  0.16647802  0.05928094  1  0  0.114056  0  0.948841  0  0  0.139534  0  1.001729  0  0  0.14087  0  1.001838  0  0  0.093251  0.138549  0  1.001672  0
H  H47  1  0.05928049  0.25206330  0.16647908  1  0  0.114058  0  0.948822  0  0  0.139536  0  1.001704  0  0  0.140872  0  1.001812  0  0  0.093251  0.13855  0  1.001648  0
H  H48  1  0.73951330  0.96994866  0.62306756  1  0  0.141053  0  0.931081  0  0  0.162259  0  0.989949  0  0  0.164566  0  0.98927  0  0  0.104914  0.160547  0  0.990487  0
H  H49  1  0.62306580  0.73950949  0.96994944  1  0  0.141092  0  0.930953  0  0  0.162255  0  0.989879  0  0  0.16457  0  0.989192  0  0  0.104913  0.160545  0  0.990417  0
H  H50  1  0.96994854  0.62306667  0.73951109  1  0  0.141058  0  0.931037  0  0  0.162255  0  0.989923  0  0  0.164565  0  0.989242  0  0  0.104916  0.160545  0  0.990461  0
H  H51  1  0.26048761  0.03005187  0.37693318  1  0  0.141029  0  0.931083  0  0  0.162218  0  0.989963  0  0  0.164538  0  0.98927  0  0  0.104901  0.160509  0  0.990499  0
H  H52  1  0.37693313  0.26048927  0.03005002  1  0  0.141099  0  0.930972  0  0  0.16225  0  0.989906  0  0  0.164575  0  0.989209  0  0  0.104909  0.160542  0  0.990442  0
H  H53  1  0.03004973  0.37693386  0.26048937  1  0  0.141104  0  0.930944  0  0  0.162269  0  0.989867  0  0  0.164597  0  0.989165  0  0  0.104914  0.160557  0  0.990404  0
H  H54  1  0.49809206  0.35368034  0.84283358  1  0  0.345993  0  0.924208  0  0  0.324675  0  0.992542  0  0  0.333518  0  0.984911  0  0  0.293139  0.318385  0  0.997968  0
H  H55  1  0.84283368  0.49809288  0.35368115  1  0  0.346017  0  0.924181  0  0  0.324701  0  0.992511  0  0  0.333545  0  0.98488  0  0  0.293141  0.31841  0  0.99794  0
H  H56  1  0.35368221  0.84283534  0.49809282  1  0  0.346028  0  0.924142  0  0  0.324705  0  0.992486  0  0  0.333548  0  0.984855  0  0  0.293135  0.318414  0  0.997915  0
H  H57  1  0.50190884  0.64632019  0.15716716  1  0  0.346022  0  0.924169  0  0  0.324705  0  0.992498  0  0  0.333549  0  0.984867  0  0  0.293147  0.318414  0  0.997926  0
H  H58  1  0.15716546  0.50190765  0.64631853  1  0  0.346028  0  0.924159  0  0  0.324708  0  0.992495  0  0  0.333552  0  0.984864  0  0  0.293134  0.318417  0  0.997924  0
H  H59  1  0.64631782  0.15716519  0.50190957  1  0  0.346002  0  0.924167  0  0  0.324676  0  0.992511  0  0  0.333519  0  0.98488  0  0  0.293127  0.318385  0  0.997939  0
H  H60  1  0.44062908  0.21993442  0.75746042  1  0  0.332719  0  0.930752  0  0  0.313191  0  0.999695  0  0  0.321728  0  0.992301  0  0  0.290064  0.307145  0  1.004894  0
H  H61  1  0.75746015  0.44062846  0.21993400  1  0  0.332721  0  0.930729  0  0  0.313195  0  0.999665  0  0  0.32173  0  0.992273  0  0  0.290068  0.307149  0  1.004865  0
H  H62  1  0.21993492  0.75746044  0.44062875  1  0  0.33273  0  0.930761  0  0  0.313203  0  0.999705  0  0  0.321739  0  0.992312  0  0  0.290057  0.307156  0  1.004904  0
H  H63  1  0.55937172  0.78006522  0.24254021  1  0  0.33272  0  0.93073  0  0  0.313189  0  0.999674  0  0  0.321725  0  0.992281  0  0  0.290063  0.307143  0  1.004872  0
H  H64  1  0.24253977  0.55937119  0.78006566  1  0  0.332725  0  0.930762  0  0  0.313193  0  0.999712  0  0  0.32173  0  0.992318  0  0  0.290049  0.307147  0  1.004911  0
H  H65  1  0.78006500  0.24253921  0.55937179  1  0  0.332723  0  0.930756  0  0  0.313191  0  0.999698  0  0  0.321727  0  0.992305  0  0  0.290062  0.307146  0  1.004897  0
C  C66  1  0.36614922  0.47065082  0.30972190  1  0  -0.059577  0  3.692846  0  0  -0.093705  0  3.937351  0  0  -0.089676  0  3.954704  0  0  -0.077985  -0.095882  0  3.925472  0
C  C67  1  0.30972286  0.36614930  0.47064964  1  0  -0.059546  0  3.692906  0  0  -0.093683  0  3.937405  0  0  -0.089655  0  3.95476  0  0  -0.077993  -0.095861  0  3.925527  0
C  C68  1  0.47065052  0.30972248  0.36614771  1  0  -0.05957  0  3.692855  0  0  -0.093706  0  3.937362  0  0  -0.089677  0  3.954715  0  0  -0.077975  -0.095883  0  3.925485  0
C  C69  1  0.63385431  0.52934971  0.69027825  1  0  -0.059631  0  3.692853  0  0  -0.093756  0  3.937362  0  0  -0.08973  0  3.954717  0  0  -0.077993  -0.095934  0  3.925486  0
C  C70  1  0.69027903  0.63385212  0.52934956  1  0  -0.05969  0  3.692814  0  0  -0.093806  0  3.93732  0  0  -0.08978  0  3.954674  0  0  -0.07801  -0.095982  0  3.925441  0
C  C71  1  0.52935214  0.69027805  0.63385322  1  0  -0.059558  0  3.692889  0  0  -0.093687  0  3.937398  0  0  -0.08966  0  3.954754  0  0  -0.077982  -0.095863  0  3.925518  0
C  C72  1  0.83350809  0.16662289  0.83120577  1  0  -0.340922  0  3.686192  0  0  -0.361526  0  3.929343  0  0  -0.378481  0  3.949323  0  0  -0.118266  -0.350657  0  3.916205  0
C  C73  1  0.83120544  0.83350592  0.16662309  1  0  -0.340869  0  3.686137  0  0  -0.361464  0  3.929268  0  0  -0.378425  0  3.949248  0  0  -0.118245  -0.350598  0  3.916133  0
C  C74  1  0.16662443  0.83120719  0.83350721  1  0  -0.340988  0  3.6862  0  0  -0.361583  0  3.929333  0  0  -0.378543  0  3.949308  0  0  -0.118293  -0.350715  0  3.916198  0
C  C75  1  0.16649260  0.83337588  0.16879562  1  0  -0.341011  0  3.686107  0  0  -0.361598  0  3.929273  0  0  -0.378561  0  3.949246  0  0  -0.118294  -0.350729  0  3.916137  0
C  C76  1  0.16879185  0.16649372  0.83337542  1  0  -0.340966  0  3.686204  0  0  -0.361572  0  3.929323  0  0  -0.378532  0  3.949299  0  0  -0.118298  -0.350704  0  3.916189  0
C  C77  1  0.83337471  0.16879334  0.16649508  1  0  -0.340985  0  3.686126  0  0  -0.361589  0  3.929247  0  0  -0.37855  0  3.949219  0  0  -0.118283  -0.35072  0  3.91611  0
C  C78  1  0.91632110  0.36760829  0.93476393  1  0  -0.381469  0  3.679754  0  0  -0.461966  0  3.91572  0  0  -0.466819  0  3.920339  0  0  -0.238951  -0.45827  0  3.912422  0
C  C79  1  0.93476609  0.91631936  0.36760935  1  0  -0.381568  0  3.679809  0  0  -0.462062  0  3.915794  0  0  -0.466924  0  3.920395  0  0  -0.23903  -0.458369  0  3.912492  0
C  C80  1  0.36760946  0.93476685  0.91632029  1  0  -0.38154  0  3.679774  0  0  -0.462024  0  3.915773  0  0  -0.466886  0  3.920375  0  0  -0.239001  -0.458335  0  3.912481  0
C  C81  1  0.08367794  0.63239136  0.06523477  1  0  -0.381507  0  3.67981  0  0  -0.461978  0  3.915767  0  0  -0.466838  0  3.920384  0  0  -0.238992  -0.458286  0  3.91247  0
C  C82  1  0.06523197  0.08367940  0.63239089  1  0  -0.381638  0  3.679748  0  0  -0.462094  0  3.915716  0  0  -0.466958  0  3.92031  0  0  -0.239018  -0.4584  0  3.912415  0
C  C83  1  0.63239034  0.06523191  0.08368101  1  0  -0.381592  0  3.679771  0  0  -0.462069  0  3.91576  0  0  -0.466932  0  3.920363  0  0  -0.238995  -0.45838  0  3.91247  0
C  C84  1  0.74760848  0.96877983  0.71953817  1  0  -0.38522  0  3.697202  0  0  -0.466401  0  3.931268  0  0  -0.470655  0  3.936342  0  0  -0.238483  -0.463135  0  3.927691  0
C  C85  1  0.71953647  0.74760641  0.96877996  1  0  -0.385142  0  3.697103  0  0  -0.466305  0  3.931158  0  0  -0.470563  0  3.936229  0  0  -0.238445  -0.463042  0  3.927581  0
C  C86  1  0.96877834  0.71953585  0.74760733  1  0  -0.385169  0  3.697098  0  0  -0.466357  0  3.931161  0  0  -0.470612  0  3.936232  0  0  -0.238447  -0.463095  0  3.927584  0
C  C87  1  0.25239144  0.03121981  0.28046324  1  0  -0.38518  0  3.697218  0  0  -0.466326  0  3.931286  0  0  -0.470592  0  3.936351  0  0  -0.238447  -0.463064  0  3.927708  0
C  C88  1  0.28046169  0.25239324  0.03121865  1  0  -0.385206  0  3.697145  0  0  -0.466372  0  3.931218  0  0  -0.470641  0  3.936281  0  0  -0.238467  -0.463108  0  3.927641  0
C  C89  1  0.03121807  0.28046380  0.25239370  1  0  -0.385212  0  3.697169  0  0  -0.466376  0  3.931217  0  0  -0.470646  0  3.936277  0  0  -0.238469  -0.46311  0  3.92764  0
C  C90  1  0.53279367  0.41297802  0.19706289  1  0  0.633949  0  3.934826  0  0  0.585559  0  4.218264  0  0  0.618618  0  4.213918  0  0  0.193447  0.563181  0  4.220331  0
C  C91  1  0.19706305  0.53279422  0.41298029  1  0  0.634036  0  3.934761  0  0  0.585624  0  4.218223  0  0  0.618681  0  4.213878  0  0  0.193504  0.563245  0  4.220288  0
C  C92  1  0.41298093  0.19706103  0.53279247  1  0  0.634099  0  3.934852  0  0  0.585677  0  4.218323  0  0  0.618734  0  4.213976  0  0  0.193513  0.5633  0  4.220389  0
C  C93  1  0.46720680  0.58701898  0.80293655  1  0  0.633959  0  3.93485  0  0  0.585559  0  4.218303  0  0  0.618617  0  4.213959  0  0  0.193463  0.563181  0  4.22037  0
C  C94  1  0.80293697  0.46720631  0.58701949  1  0  0.633957  0  3.934741  0  0  0.585567  0  4.218192  0  0  0.618624  0  4.213846  0  0  0.193483  0.563189  0  4.220259  0
C  C95  1  0.58701910  0.80293950  0.46720730  1  0  0.634031  0  3.934866  0  0  0.585606  0  4.218346  0  0  0.618663  0  4.214  0  0  0.193485  0.563228  0  4.220412  0
C  C96  1  0.61289499  0.23075999  0.82749728  1  0  0.647197  0  3.789598  0  0  0.598546  0  4.060944  0  0  0.62678  0  4.068395  0  0  0.345999  0.579622  0  4.055469  0
C  C97  1  0.82749879  0.61289447  0.23075925  1  0  0.647213  0  3.789591  0  0  0.59852  0  4.060989  0  0  0.626751  0  4.068444  0  0  0.345994  0.579588  0  4.055513  0
C  C98  1  0.23075939  0.82749891  0.61289443  1  0  0.647211  0  3.789641  0  0  0.598541  0  4.061015  0  0  0.626779  0  4.06847  0  0  0.34599  0.57961  0  4.055539  0
C  C99  1  0.38710493  0.76923966  0.17250239  1  0  0.647172  0  3.789669  0  0  0.598539  0  4.06099  0  0  0.62677  0  4.068443  0  0  0.346007  0.579611  0  4.055514  0
C  C100  1  0.17250124  0.38710606  0.76924052  1  0  0.647226  0  3.789571  0  0  0.598555  0  4.060948  0  0  0.62678  0  4.068403  0  0  0.345979  0.579625  0  4.055472  0
C  C101  1  0.76923888  0.17250162  0.38710690  1  0  0.647217  0  3.789616  0  0  0.598591  0  4.060912  0  0  0.626826  0  4.068369  0  0  0.345978  0.579664  0  4.055437  0
C  C102  1  0.45501623  0.39821781  0.29304077  1  0  -0.076297  0  3.771562  0  0  -0.047062  0  3.999385  0  0  -0.057745  0  4.024331  0  0  -0.023807  -0.040306  0  3.982495  0
C  C103  1  0.29304320  0.45501699  0.39821772  1  0  -0.076293  0  3.771521  0  0  -0.047036  0  3.999324  0  0  -0.057721  0  4.024273  0  0  -0.023783  -0.04028  0  3.982433  0
C  C104  1  0.39821843  0.29304320  0.45501648  1  0  -0.076274  0  3.771493  0  0  -0.047013  0  3.999296  0  0  -0.057697  0  4.024244  0  0  -0.023761  -0.040258  0  3.982406  0
C  C105  1  0.54498467  0.60178272  0.70695910  1  0  -0.076197  0  3.771472  0  0  -0.046959  0  3.999292  0  0  -0.057641  0  4.024241  0  0  -0.023767  -0.040206  0  3.982404  0
C  C106  1  0.70695957  0.54498443  0.60178244  1  0  -0.076121  0  3.771436  0  0  -0.04689  0  3.999256  0  0  -0.057572  0  4.024206  0  0  -0.02375  -0.040135  0  3.982365  0
C  C107  1  0.60178433  0.70695821  0.54498456  1  0  -0.076207  0  3.771367  0  0  -0.046963  0  3.999191  0  0  -0.057644  0  4.024137  0  0  -0.023765  -0.04021  0  3.982301  0
C  C108  1  0.81483607  0.27755544  0.88385281  1  0  0.401846  0  3.742503  0  0  0.398503  0  3.990906  0  0  0.417543  0  4.003804  0  0  0.1378  0.38579  0  3.981994  0
C  C109  1  0.88385647  0.81483468  0.27755677  1  0  0.401818  0  3.742502  0  0  0.398446  0  3.990948  0  0  0.417512  0  4.003798  0  0  0.137796  0.385728  0  3.982038  0
C  C110  1  0.27755800  0.88385376  0.81483380  1  0  0.401916  0  3.742479  0  0  0.398538  0  3.990915  0  0  0.417606  0  4.003773  0  0  0.137836  0.385821  0  3.982007  0
C  C111  1  0.18516473  0.72244421  0.11614608  1  0  0.401909  0  3.742471  0  0  0.398548  0  3.990901  0  0  0.417603  0  4.00377  0  0  0.137834  0.385832  0  3.981989  0
C  C112  1  0.11614541  0.18516674  0.72244330  1  0  0.401882  0  3.742491  0  0  0.39851  0  3.99093  0  0  0.41757  0  4.003771  0  0  0.137813  0.385794  0  3.982022  0
C  C113  1  0.72244093  0.11614500  0.18516741  1  0  0.401958  0  3.74247  0  0  0.398576  0  3.99092  0  0  0.417646  0  4.003766  0  0  0.137839  0.385857  0  3.982011  0
C  C114  1  0.73559570  0.08886462  0.77835574  1  0  0.384595  0  3.762493  0  0  0.383048  0  4.011275  0  0  0.400459  0  4.026647  0  0  0.12984  0.371487  0  4.0006  0
C  C115  1  0.77835693  0.73559403  0.08886428  1  0  0.384483  0  3.762542  0  0  0.382957  0  4.011295  0  0  0.400365  0  4.026674  0  0  0.12979  0.371392  0  4.000619  0
C  C116  1  0.08886509  0.77835749  0.73559544  1  0  0.384603  0  3.762499  0  0  0.383093  0  4.011251  0  0  0.400503  0  4.026626  0  0  0.129859  0.371528  0  4.000575  0
C  C117  1  0.26440521  0.91113591  0.22164587  1  0  0.384586  0  3.762497  0  0  0.383026  0  4.011293  0  0  0.400437  0  4.026669  0  0  0.129827  0.371464  0  4.000619  0
C  C118  1  0.22164288  0.26440474  0.91113440  1  0  0.384589  0  3.762551  0  0  0.383071  0  4.011287  0  0  0.400479  0  4.026667  0  0  0.129848  0.371505  0  4.000613  0
C  C119  1  0.91113406  0.22164304  0.26440685  1  0  0.384575  0  3.762558  0  0  0.383046  0  4.011312  0  0  0.400454  0  4.026694  0  0  0.129829  0.371487  0  4.000636  0
N  N120  1  0.70490465  0.30770397  0.88647367  1  0  -0.500686  0  3.150849  0  0  -0.422343  0  3.426561  0  0  -0.449472  0  3.434378  0  0  -0.347221  -0.404366  0  3.421193  0
N  N121  1  0.88647487  0.70490371  0.30770266  1  0  -0.500705  0  3.150844  0  0  -0.422339  0  3.426588  0  0  -0.449471  0  3.43439  0  0  -0.347243  -0.404348  0  3.421204  0
N  N122  1  0.30770442  0.88647568  0.70490371  1  0  -0.500777  0  3.150819  0  0  -0.422414  0  3.426575  0  0  -0.449563  0  3.434386  0  0  -0.347278  -0.404429  0  3.421202  0
N  N123  1  0.29509626  0.69229656  0.11352533  1  0  -0.500701  0  3.150875  0  0  -0.422372  0  3.426615  0  0  -0.4495  0  3.43442  0  0  -0.347242  -0.404385  0  3.421236  0
N  N124  1  0.11352515  0.29509683  0.69229624  1  0  -0.500702  0  3.150794  0  0  -0.422369  0  3.426565  0  0  -0.449484  0  3.43435  0  0  -0.347247  -0.404387  0  3.421192  0
N  N125  1  0.69229462  0.11352396  0.29509848  1  0  -0.500828  0  3.150883  0  0  -0.422499  0  3.426658  0  0  -0.449646  0  3.434465  0  0  -0.34729  -0.404509  0  3.421279  0
N  N126  1  0.50428601  0.26458332  0.82222420  1  0  -0.69833  0  3.057404  0  0  -0.660378  0  3.293823  0  0  -0.684134  0  3.288766  0  0  -0.574032  -0.643898  0  3.297007  0
N  N127  1  0.82222369  0.50428559  0.26458268  1  0  -0.698379  0  3.057366  0  0  -0.660413  0  3.293799  0  0  -0.684169  0  3.288744  0  0  -0.574039  -0.643935  0  3.296987  0
N  N128  1  0.26458214  0.82222494  0.50428584  1  0  -0.69838  0  3.057395  0  0  -0.660419  0  3.293829  0  0  -0.684176  0  3.288771  0  0  -0.573993  -0.64394  0  3.297017  0
N  N129  1  0.49571313  0.73541721  0.17777635  1  0  -0.698387  0  3.057452  0  0  -0.660431  0  3.293853  0  0  -0.684189  0  3.288799  0  0  -0.574048  -0.643952  0  3.297037  0
N  N130  1  0.17777546  0.49571494  0.73541700  1  0  -0.698398  0  3.057363  0  0  -0.660435  0  3.293794  0  0  -0.684194  0  3.288739  0  0  -0.574  -0.643956  0  3.296981  0
N  N131  1  0.73541690  0.17777471  0.49571635  1  0  -0.698372  0  3.057399  0  0  -0.660418  0  3.29381  0  0  -0.684174  0  3.288752  0  0  -0.574008  -0.643938  0  3.296995  0
N  N132  1  0.62586661  0.12079180  0.77580852  1  0  -0.509194  0  3.145349  0  0  -0.433178  0  3.418375  0  0  -0.459984  0  3.42761  0  0  -0.351214  -0.415392  0  3.411952  0
N  N133  1  0.77580884  0.62586645  0.12079233  1  0  -0.509134  0  3.145333  0  0  -0.433109  0  3.41836  0  0  -0.459914  0  3.427598  0  0  -0.351177  -0.415314  0  3.411926  0
N  N134  1  0.12079222  0.77580962  0.62586761  1  0  -0.509153  0  3.145382  0  0  -0.433178  0  3.418445  0  0  -0.459984  0  3.427679  0  0  -0.351207  -0.41538  0  3.412009  0
N  N135  1  0.37413330  0.87920785  0.22419202  1  0  -0.509147  0  3.145348  0  0  -0.433133  0  3.418374  0  0  -0.459939  0  3.427609  0  0  -0.351203  -0.415347  0  3.411951  0
N  N136  1  0.22419020  0.37413320  0.87920724  1  0  -0.509184  0  3.14539  0  0  -0.433165  0  3.418412  0  0  -0.45997  0  3.427649  0  0  -0.351189  -0.415366  0  3.411976  0
N  N137  1  0.87920594  0.22419003  0.37413361  1  0  -0.509149  0  3.145344  0  0  -0.433138  0  3.418332  0  0  -0.459942  0  3.427568  0  0  -0.35118  -0.415356  0  3.411912  0
O  O138  1  0.51432502  0.49315872  0.12963901  1  0  -0.666018  0  2.107161  0  0  -0.58904  0  2.363206  0  0  -0.617993  0  2.351972  0  0  -0.337665  -0.568637  0  2.370249  0
O  O139  1  0.12963929  0.51432508  0.49315704  1  0  -0.666088  0  2.107332  0  0  -0.589091  0  2.363375  0  0  -0.618045  0  2.352143  0  0  -0.337712  -0.568691  0  2.370418  0
O  O140  1  0.49315519  0.12963977  0.51432472  1  0  -0.666075  0  2.107562  0  0  -0.589049  0  2.363586  0  0  -0.618003  0  2.352358  0  0  -0.337677  -0.568648  0  2.370629  0
O  O141  1  0.48567490  0.50684093  0.87035804  1  0  -0.66602  0  2.10737  0  0  -0.589043  0  2.363423  0  0  -0.617993  0  2.352186  0  0  -0.337675  -0.568642  0  2.370468  0
O  O142  1  0.87036161  0.48567545  0.50684108  1  0  -0.666028  0  2.10728  0  0  -0.589055  0  2.363341  0  0  -0.618008  0  2.352105  0  0  -0.337681  -0.568653  0  2.370384  0
O  O143  1  0.50684473  0.87035988  0.48567669  1  0  -0.666071  0  2.107541  0  0  -0.589052  0  2.36358  0  0  -0.618001  0  2.352343  0  0  -0.337683  -0.568652  0  2.370624  0
O  O144  1  0.61295191  0.34593629  0.18621019  1  0  -0.638049  0  1.959575  0  0  -0.581869  0  2.19129  0  0  -0.60803  0  2.184559  0  0  -0.332273  -0.563387  0  2.195206  0
O  O145  1  0.18621606  0.61295467  0.34593924  1  0  -0.638055  0  1.959477  0  0  -0.581875  0  2.191211  0  0  -0.608034  0  2.184474  0  0  -0.332288  -0.563393  0  2.195124  0
O  O146  1  0.34593751  0.18621791  0.61295397  1  0  -0.638147  0  1.959387  0  0  -0.581964  0  2.191123  0  0  -0.608124  0  2.184386  0  0  -0.332323  -0.563481  0  2.195038  0
O  O147  1  0.38704780  0.65406160  0.81378490  1  0  -0.638072  0  1.959457  0  0  -0.581885  0  2.191178  0  0  -0.608042  0  2.184438  0  0  -0.332276  -0.563401  0  2.195091  0
O  O148  1  0.81378572  0.38704586  0.65405986  1  0  -0.63807  0  1.959467  0  0  -0.581887  0  2.191186  0  0  -0.608048  0  2.184455  0  0  -0.332293  -0.563405  0  2.195101  0
O  O149  1  0.65406252  0.81378262  0.38704580  1  0  -0.63808  0  1.959411  0  0  -0.581895  0  2.191144  0  0  -0.608054  0  2.184407  0  0  -0.332287  -0.563412  0  2.195058  0
