# generated using pymatgen
data_CoH8C12(NO2)2
_symmetry_space_group_name_H-M   'P 1'
_cell_length_a   9.80667033
_cell_length_b   9.86434423
_cell_length_c   13.24608540
_cell_angle_alpha   90.00043546
_cell_angle_beta   89.99901452
_cell_angle_gamma   103.52234312
_symmetry_Int_Tables_number   1
_chemical_formula_structural   CoH8C12(NO2)2
_chemical_formula_sum   'Co4 H32 C48 N8 O16'
_cell_volume   1245.85691578
_cell_formula_units_Z   4
loop_
 _symmetry_equiv_pos_site_id
 _symmetry_equiv_pos_as_xyz
  1  'x, y, z'
loop_
 _atom_site_type_symbol
 _atom_site_label
 _atom_site_symmetry_multiplicity
 _atom_site_fract_x
 _atom_site_fract_y
 _atom_site_fract_z
 _atom_site_occupancy
 _atom_site_pbe_bader_charge
 _atom_site_pbe_bader_spin_density
 _atom_site_pbe_cm5_charge
 _atom_site_pbe_ddec_charge
 _atom_site_pbe_ddec_spin_density
 _atom_site_pbe_ddec_sum_bond_order
 _atom_site_pbe_magmom
Co  Co0  1  0.00000338  0.00000006  0.50000131  1  1.345964  2.617609  0.694798  0.959418  2.836486  2.514006  2.603
Co  Co1  1  0.49999833  0.50000163  0.99999977  1  1.345919  2.61762  0.694802  0.959437  2.836503  2.514016  2.603
Co  Co2  1  0.00000163  0.50000105  0.99999802  1  1.341384  2.597381  0.685623  0.943747  2.816295  2.529061  2.586
Co  Co3  1  0.49999758  0.99999424  0.49999649  1  1.341365  2.597379  0.685648  0.94375  2.816298  2.529099  2.586
H  H4  1  0.14435224  0.80006532  0.05688009  1  0.105787  0.001588  0.120028  0.093929  0.000363  0.981563  0.001
H  H5  1  0.35564915  0.69994255  0.55687447  1  0.105768  0.001589  0.120053  0.093995  0.000363  0.981497  0.001
H  H6  1  0.85564409  0.19994649  0.94311904  1  0.105703  0.001589  0.120053  0.093945  0.000363  0.981538  0.001
H  H7  1  0.64433977  0.30005157  0.44312013  1  0.105776  0.001589  0.120057  0.09396  0.000363  0.981561  0.001
H  H8  1  0.22987739  0.94111374  0.21069747  1  0.095928  0.000749  0.106058  0.113501  0.000255  1.02009  0.0
H  H9  1  0.27012009  0.55889698  0.71069138  1  0.096071  0.000749  0.106037  0.113476  0.000255  1.02016  0.0
H  H10  1  0.77011841  0.05889181  0.78930317  1  0.096017  0.000749  0.106102  0.113544  0.000255  1.020089  0.0
H  H11  1  0.72987088  0.44110549  0.28930549  1  0.095799  0.000749  0.106053  0.113505  0.000255  1.02007  0.0
H  H12  1  0.05861928  0.57344501  0.38847229  1  0.102477  0.001244  0.112766  0.124452  0.000555  0.975617  0.0
H  H13  1  0.44139209  0.92656845  0.88846765  1  0.102057  0.001244  0.112744  0.124482  0.000555  0.975571  0.0
H  H14  1  0.94137424  0.42655952  0.61152232  1  0.102511  0.001244  0.112773  0.124455  0.000555  0.975535  0.0
H  H15  1  0.55861667  0.07343173  0.11152545  1  0.102108  0.001244  0.112749  0.124475  0.000555  0.975483  0.0
H  H16  1  0.98808116  0.44644221  0.22652682  1  0.118348  0.001318  0.113956  0.08382  0.000277  1.046429  0.001
H  H17  1  0.51191944  0.05356200  0.72652021  1  0.118327  0.001317  0.113978  0.083849  0.000277  1.046572  0.001
H  H18  1  0.01191820  0.55356121  0.77346551  1  0.118292  0.001317  0.113984  0.083844  0.000277  1.04658  0.001
H  H19  1  0.48808270  0.94643198  0.27347061  1  0.118201  0.001317  0.113953  0.083811  0.000277  1.046553  0.001
H  H20  1  0.27568266  0.14149103  0.40690377  1  0.160786  0.001405  0.116273  0.092496  0.000151  1.079187  0.001
H  H21  1  0.22432253  0.35850934  0.90690604  1  0.160967  0.001405  0.116254  0.092495  0.000152  1.079186  0.001
H  H22  1  0.72432866  0.85851539  0.59309989  1  0.16102  0.001406  0.116237  0.092391  0.000152  1.079214  0.001
H  H23  1  0.77567072  0.64148996  0.09309687  1  0.161254  0.001405  0.116248  0.092513  0.000151  1.079161  0.001
H  H24  1  0.36609021  0.27462151  0.25026183  1  0.113169  0.000891  0.104207  0.112522  0.00036  1.036914  0.0
H  H25  1  0.13391413  0.22538129  0.75026372  1  0.113251  0.000891  0.10421  0.112485  0.00036  1.036938  0.0
H  H26  1  0.63391858  0.72538702  0.74974183  1  0.113288  0.000891  0.104215  0.112507  0.00036  1.036968  0.0
H  H27  1  0.86608214  0.77460126  0.24974447  1  0.113218  0.000891  0.104214  0.112497  0.00036  1.036906  0.0
H  H28  1  0.93928355  0.20594314  0.14726226  1  0.129506  0.000898  0.106205  0.12014  0.000361  1.042458  0.001
H  H29  1  0.56071803  0.29405337  0.64725718  1  0.12945  0.000898  0.106168  0.120089  0.000361  1.042504  0.001
H  H30  1  0.06072298  0.79408111  0.85274593  1  0.129112  0.000898  0.106169  0.120057  0.000361  1.04242  0.001
H  H31  1  0.43928102  0.70591973  0.35275856  1  0.128982  0.000898  0.10621  0.120155  0.000361  1.042268  0.001
H  H32  1  0.86435739  0.07654900  0.30896826  1  0.09914  0.00165  0.114697  0.087436  0.000344  1.013067  0.001
H  H33  1  0.63565055  0.42345132  0.80896221  1  0.099079  0.00165  0.114695  0.087364  0.000344  1.013107  0.001
H  H34  1  0.13565496  0.92346159  0.69103767  1  0.099033  0.00165  0.114703  0.087363  0.000344  1.013115  0.001
H  H35  1  0.36434399  0.57655320  0.19104296  1  0.099069  0.00165  0.11465  0.087295  0.000344  1.013156  0.001
C  C36  1  0.12933932  0.75356547  0.13194298  1  0.445873  -0.006491  0.050298  0.103495  -0.00768  3.939327  -0.005
C  C37  1  0.37066346  0.74644273  0.63194046  1  0.445825  -0.006492  0.05022  0.103395  -0.007681  3.939478  -0.005
C  C38  1  0.87066031  0.24644317  0.86805313  1  0.445884  -0.006491  0.050318  0.103575  -0.00768  3.939403  -0.005
C  C39  1  0.62932724  0.25355451  0.36805263  1  0.446084  -0.006491  0.050269  0.103536  -0.007682  3.939388  -0.005
C  C40  1  0.17596137  0.83166929  0.21805213  1  0.016808  0.007024  -0.082988  -0.157609  0.003472  3.939208  0.005
C  C41  1  0.32404130  0.66834244  0.71804673  1  0.016635  0.007024  -0.0829  -0.157589  0.003472  3.939392  0.005
C  C42  1  0.82403725  0.16833936  0.78194701  1  0.016776  0.007024  -0.08306  -0.157768  0.003472  3.939512  0.005
C  C43  1  0.67594687  0.33165692  0.28194787  1  0.016503  0.007024  -0.082941  -0.157685  0.003472  3.939465  0.005
C  C44  1  0.15233082  0.76807898  0.31317001  1  -0.044912  -0.002469  0.009894  0.030266  -0.005285  3.927976  -0.001
C  C45  1  0.34767151  0.73192797  0.81316770  1  -0.044782  -0.002473  0.009979  0.030322  -0.00529  3.928051  -0.001
C  C46  1  0.84766523  0.23192343  0.68682686  1  -0.044879  -0.002469  0.009966  0.030344  -0.005285  3.927999  -0.001
C  C47  1  0.65232149  0.26807448  0.18682691  1  -0.04464  -0.002474  0.009935  0.030311  -0.00529  3.928121  -0.001
C  C48  1  0.08148428  0.62753949  0.31646612  1  -0.096553  0.008016  -0.081119  -0.153461  0.003881  3.946599  0.006
C  C49  1  0.41852307  0.87246742  0.81646372  1  -0.095929  0.008015  -0.081123  -0.153454  0.003881  3.946571  0.006
C  C50  1  0.91851253  0.37246187  0.68352924  1  -0.096712  0.008014  -0.081183  -0.153419  0.003881  3.946521  0.006
C  C51  1  0.58147654  0.12753286  0.18353013  1  -0.096093  0.008015  -0.081137  -0.153463  0.003881  3.946495  0.006
C  C52  1  0.04178039  0.55623057  0.22660641  1  0.517028  -0.007624  0.041276  0.08507  -0.008526  3.956274  -0.005
C  C53  1  0.45822564  0.94377908  0.72660316  1  0.516881  -0.007627  0.041214  0.084883  -0.008529  3.956348  -0.005
C  C54  1  0.95822279  0.44377594  0.77338593  1  0.517506  -0.007625  0.041191  0.084862  -0.008526  3.956415  -0.005
C  C55  1  0.54177473  0.05622015  0.27338918  1  0.517975  -0.007628  0.041246  0.084956  -0.008528  3.956381  -0.005
C  C56  1  0.20841776  0.84342352  0.40919220  1  1.580697  0.006907  0.224213  0.588205  0.004458  4.190064  0.007
C  C57  1  0.29158118  0.65657868  0.90918715  1  1.580518  0.006906  0.224202  0.58835  0.004457  4.189766  0.007
C  C58  1  0.79157702  0.15657368  0.59080543  1  1.580557  0.006903  0.224298  0.588437  0.004455  4.189797  0.007
C  C59  1  0.70841538  0.34342164  0.09080670  1  1.580547  0.006908  0.224194  0.588387  0.004459  4.189972  0.007
C  C60  1  0.20422835  0.15770841  0.34763092  1  0.417776  -0.007029  0.035916  0.078531  -0.008047  3.930845  -0.004
C  C61  1  0.29577841  0.34229272  0.84763217  1  0.417565  -0.007027  0.035988  0.07867  -0.008045  3.930676  -0.004
C  C62  1  0.79578577  0.84230112  0.65237350  1  0.417542  -0.007028  0.03607  0.078897  -0.008046  3.930648  -0.004
C  C63  1  0.70421635  0.65770029  0.15237224  1  0.417245  -0.00703  0.036013  0.078649  -0.008048  3.930687  -0.004
C  C64  1  0.25429466  0.23095532  0.26052885  1  -0.044355  0.003269  -0.085879  -0.145013  0.001227  3.957363  0.003
C  C65  1  0.24570893  0.26904545  0.76053032  1  -0.044671  0.00327  -0.085845  -0.144959  0.001228  3.957211  0.003
C  C66  1  0.74571362  0.76905532  0.73947406  1  -0.044888  0.00327  -0.085879  -0.144947  0.001228  3.957319  0.003
C  C67  1  0.75428708  0.73093605  0.23947863  1  -0.044466  0.003271  -0.085944  -0.14493  0.001229  3.957256  0.003
C  C68  1  0.15908350  0.24935212  0.18629626  1  0.010779  -0.003059  -0.004614  -0.000897  -0.005686  3.968231  0.0
C  C69  1  0.34092301  0.25064932  0.68629867  1  0.01156  -0.003055  -0.004624  -0.000901  -0.005681  3.968284  0.0
C  C70  1  0.84092605  0.75065955  0.81370590  1  0.011514  -0.003056  -0.004601  -0.001108  -0.005683  3.968399  0.0
C  C71  1  0.65907706  0.74932796  0.31371405  1  0.010705  -0.003056  -0.004542  -0.00108  -0.005684  3.968426  0.0
C  C72  1  0.01633634  0.19107456  0.20273884  1  -0.048101  0.004035  -0.085978  -0.152722  0.001804  3.957545  0.004
C  C73  1  0.48366624  0.30892491  0.70273675  1  -0.048215  0.004036  -0.085967  -0.152728  0.001805  3.957715  0.004
C  C74  1  0.98367118  0.80894131  0.79726784  1  -0.032531  0.004035  -0.085919  -0.152511  0.001804  3.957466  0.004
C  C75  1  0.51633104  0.69105344  0.29727673  1  -0.032462  0.004037  -0.085969  -0.152659  0.001806  3.957428  0.004
C  C76  1  0.97460421  0.12048568  0.29239750  1  0.440367  -0.006752  0.042164  0.095554  -0.007579  3.939301  -0.004
C  C77  1  0.52540307  0.37951457  0.79239487  1  0.440632  -0.006752  0.042239  0.09575  -0.00758  3.939332  -0.004
C  C78  1  0.02540864  0.87952700  0.70760616  1  0.424896  -0.006752  0.042279  0.095762  -0.00758  3.939203  -0.004
C  C79  1  0.47459323  0.62048052  0.20761332  1  0.425167  -0.006752  0.04235  0.095868  -0.007579  3.939206  -0.004
C  C80  1  0.20911719  0.33358539  0.09345441  1  1.580827  0.000182  0.219535  0.586806  -0.001546  4.159775  0.005
C  C81  1  0.29088628  0.16641566  0.59345698  1  1.580423  0.000186  0.219474  0.586758  -0.001543  4.15971  0.005
C  C82  1  0.79089031  0.66641794  0.90654472  1  1.580547  0.000184  0.219546  0.586896  -0.001544  4.159884  0.005
C  C83  1  0.70911635  0.83356785  0.40655197  1  1.581047  0.000188  0.219491  0.586959  -0.001539  4.159652  0.005
N  N84  1  0.06484248  0.61709126  0.13501862  1  -1.207421  0.051705  -0.320891  -0.253567  0.027026  3.55483  0.049
N  N85  1  0.43515819  0.88291280  0.63501381  1  -1.207582  0.051706  -0.320925  -0.253487  0.027027  3.554868  0.049
N  N86  1  0.93516019  0.38291316  0.86497673  1  -1.207686  0.051705  -0.320895  -0.253549  0.027027  3.554627  0.049
N  N87  1  0.56483607  0.11708232  0.36497853  1  -1.208405  0.051702  -0.3209  -0.253552  0.027025  3.554612  0.049
N  N88  1  0.06648262  0.10361172  0.36435809  1  -1.20915  0.047258  -0.325471  -0.249582  0.024726  3.574427  0.044
N  N89  1  0.43352351  0.39638844  0.86435715  1  -1.209344  0.047266  -0.325622  -0.249836  0.024731  3.57467  0.044
N  N90  1  0.93352743  0.89639366  0.63564482  1  -1.208743  0.047261  -0.325765  -0.250031  0.024729  3.57464  0.044
N  N91  1  0.56647000  0.60361191  0.13564652  1  -1.208873  0.04726  -0.325732  -0.249969  0.024728  3.574647  0.044
O  O92  1  0.34149879  0.87860672  0.41311487  1  -1.138102  0.074759  -0.295876  -0.557342  0.039458  2.439605  0.065
O  O93  1  0.15850538  0.62138812  0.91311358  1  -1.138078  0.074749  -0.295842  -0.557366  0.039453  2.439542  0.065
O  O94  1  0.65849726  0.12139569  0.58687822  1  -1.138089  0.074742  -0.295825  -0.557395  0.03945  2.439505  0.064
O  O95  1  0.84149321  0.37861217  0.08688480  1  -1.137985  0.074743  -0.295832  -0.557415  0.039451  2.439619  0.064
O  O96  1  0.12414321  0.85983094  0.47779192  1  -1.161615  0.064339  -0.310066  -0.558862  0.032287  2.370698  0.051
O  O97  1  0.37586286  0.64017359  0.97778872  1  -1.161336  0.064349  -0.310122  -0.559005  0.032292  2.37043  0.051
O  O98  1  0.87585460  0.14015786  0.52221099  1  -1.161554  0.064341  -0.310126  -0.559001  0.032289  2.370669  0.051
O  O99  1  0.62413980  0.35982666  0.02220362  1  -1.161508  0.064332  -0.310115  -0.558976  0.032282  2.370437  0.051
O  O100  1  0.34058228  0.36748830  0.07942538  1  -1.153192  0.075349  -0.300632  -0.552869  0.03947  2.394559  0.065
O  O101  1  0.15941973  0.13252211  0.57942942  1  -1.153149  0.075349  -0.300589  -0.552858  0.03947  2.394418  0.065
O  O102  1  0.65942266  0.63250879  0.92056847  1  -1.153106  0.075349  -0.300648  -0.552901  0.03947  2.394622  0.065
O  O103  1  0.84058190  0.86747396  0.42057198  1  -1.153214  0.075338  -0.300525  -0.552902  0.039465  2.39455  0.065
O  O104  1  0.11553839  0.36209353  0.03561461  1  -1.175542  0.073353  -0.314173  -0.565813  0.03748  2.453984  0.06
O  O105  1  0.38446049  0.13789998  0.53561732  1  -1.175565  0.073353  -0.31417  -0.565805  0.037481  2.454089  0.06
O  O106  1  0.88446403  0.63790985  0.96438452  1  -1.175618  0.073341  -0.31418  -0.565848  0.037476  2.454099  0.06
O  O107  1  0.61553984  0.86208251  0.46439162  1  -1.175765  0.073348  -0.314215  -0.565862  0.037479  2.454001  0.06
