# generated using pymatgen
data_Zn8H57C82N9O44
_symmetry_space_group_name_H-M   'P 1'
_cell_length_a   18.27791580
_cell_length_b   18.32097505
_cell_length_c   18.49558869
_cell_angle_alpha   119.87064449
_cell_angle_beta   90.12377383
_cell_angle_gamma   119.70911416
_symmetry_Int_Tables_number   1
_chemical_formula_structural   Zn8H57C82N9O44
_chemical_formula_sum   'Zn8 H57 C82 N9 O44'
_cell_volume   4402.53852569
_cell_formula_units_Z   1
loop_
 _symmetry_equiv_pos_site_id
 _symmetry_equiv_pos_as_xyz
  1  'x, y, z'
loop_
 _atom_site_type_symbol
 _atom_site_label
 _atom_site_symmetry_multiplicity
 _atom_site_fract_x
 _atom_site_fract_y
 _atom_site_fract_z
 _atom_site_occupancy
 _atom_site_pbe_bader_charge
 _atom_site_pbe_bader_spin_density
 _atom_site_pbe_cm5_charge
 _atom_site_pbe_ddec_charge
 _atom_site_pbe_ddec_spin_density
 _atom_site_pbe_ddec_sum_bond_order
 _atom_site_pbe_magmom
Zn  Zn0  1  0.46167153  0.59959217  0.54610564  1  1.319011  0  0.682053  0.976108  0  2.34254  0
Zn  Zn1  1  0.45778445  0.42200693  0.54444955  1  1.311784  0  0.675327  0.955076  0  2.403374  0
Zn  Zn2  1  0.63196695  0.58940593  0.54249022  1  1.314933  0  0.679358  0.95539  0  2.407978  0
Zn  Zn3  1  0.45844072  0.42003807  0.37039429  1  1.299041  0  0.67242  0.958589  0  2.374918  0
Zn  Zn4  1  0.05433886  0.42666004  0.96177483  1  1.308184  0  0.677423  0.962158  0  2.373694  0
Zn  Zn5  1  0.87469339  0.41778028  0.95366338  1  1.316016  0  0.67777  0.95696  0  2.37951  0
Zn  Zn6  1  0.05001614  0.59802258  0.96068706  1  1.314807  0  0.680581  0.971822  0  2.36824  0
Zn  Zn7  1  0.04630236  0.59245459  0.13186504  1  1.318535  0  0.680181  0.972443  0  2.367206  0
H  H8  1  0.15069134  0.53204000  0.61479889  1  0.06648  0  0.100199  0.10041  0  1.025044  0
H  H9  1  0.15772257  0.38841990  0.50386740  1  0.05074  0  0.096927  0.092989  0  0.996723  0
H  H10  1  0.19476626  0.37770121  0.37107092  1  0.064846  0  0.095485  0.095978  0  1.006364  0
H  H11  1  0.21626776  0.65647503  0.46067751  1  0.073742  0  0.100887  0.104392  0  1.000299  0
H  H12  1  0.12969147  0.52505970  0.29014243  1  0.128429  0  0.113062  0.123459  0  0.998748  0
H  H13  1  0.37473621  0.48798442  0.21512654  1  0.097278  0  0.107826  0.114775  0  1.00184  0
H  H14  1  0.33496920  0.36891223  0.91230458  1  0.133789  0  0.11529  0.119699  0  1.033423  0
H  H15  1  0.40548795  0.67655912  0.04617144  1  0.175784  0  0.131172  0.155109  0  0.972147  0
H  H16  1  0.70259910  0.10923088  0.67943443  1  0.110411  0  0.131934  0.11326  0  0.942319  0
H  H17  1  0.54884241  0.92121742  0.66864731  1  0.122151  0  0.116785  0.142099  0  0.956197  0
H  H18  1  0.59882989  0.91583154  0.58436695  1  0.08329  0  0.111864  0.132684  0  0.958811  0
H  H19  1  0.67131379  0.49112511  0.07365971  1  0.071802  0  0.107729  0.123323  0  1.013836  0
H  H20  1  0.61291856  0.35779692  0.03059562  1  0.12408  0  0.122035  0.150349  0  0.945767  0
H  H21  1  0.59027099  0.51493600  0.18353144  1  0.127862  0  0.133129  0.114508  0  0.942129  0
H  H22  1  0.29979369  0.10759886  0.41637114  1  0.096194  0  0.111844  0.117933  0  0.988267  0
H  H23  1  0.19941554  0.91666821  0.32531499  1  0.107446  0  0.113866  0.121301  0  0.982104  0
H  H24  1  0.18413724  0.90904622  0.03178565  1  0.126486  0  0.130323  0.110893  0  0.948778  0
H  H25  1  0.38312696  0.08723234  0.13282568  1  0.103005  0  0.113388  0.139034  0  0.962607  0
H  H26  1  0.29508599  0.10230521  0.12194629  1  0.067351  0  0.10798  0.12945  0  0.970845  0
H  H27  1  0.80539141  0.54481486  0.63689156  1  0.157728  0  0.122093  0.138566  0  0.991086  0
H  H28  1  0.63509508  0.35937182  0.82735974  1  0.066457  0  0.102709  0.091169  0  0.970903  0
H  H29  1  0.53296633  0.34907729  0.72890703  1  0.089037  0  0.106162  0.12596  0  0.964771  0
H  H30  1  0.57181654  0.47869743  0.80897796  1  0.096018  0  0.099073  0.1185  0  1.005039  0
H  H31  1  0.34036273  0.66253608  0.74601990  1  0.0819  0  0.10972  0.114146  0  0.99291  0
H  H32  1  0.24644980  0.66077152  0.84281935  1  0.156457  0  0.106279  0.114345  0  1.026721  0
H  H33  1  0.20357178  0.32416455  0.79070871  1  0.029434  0  0.091466  0.102059  0  1.007371  0
H  H34  1  0.11124964  0.26587516  0.70118520  1  0.039823  0  0.097802  0.109177  0  0.978792  0
H  H35  1  0.30104626  0.32901304  0.69477455  1  0.068308  0  0.095684  0.112598  0  0.995487  0
H  H36  1  0.20813399  0.26846857  0.60418701  1  0.051621  0  0.095503  0.10593  0  0.983427  0
H  H37  1  0.77802872  0.72459113  0.78816188  1  0.04499  0  0.082173  0.11388  0  1.025508  0
H  H38  1  0.84853548  0.83565166  0.89673250  1  0.017428  0  0.087126  0.114217  0  0.996431  0
H  H39  1  0.73488971  0.74698439  0.87739297  1  0.025596  0  0.086809  0.11321  0  1.010399  0
H  H40  1  0.75759375  0.90337655  0.89531208  1  0.035378  0  0.091371  0.082782  0  0.970306  0
H  H41  1  0.68488303  0.79146279  0.78921844  1  0.032601  0  0.086366  0.073723  0  0.988788  0
H  H42  1  0.81294809  0.83451371  0.72960419  1  0.094061  0  0.103395  0.123063  0  0.982567  0
H  H43  1  0.88529287  0.94575905  0.83592844  1  0.048601  0  0.099404  0.100225  0  0.999023  0
H  H44  1  0.71317446  0.68358609  0.09469094  1  0.007803  0  0.08034  0.101714  0  1.011252  0
H  H45  1  0.81886294  0.70279233  0.09852973  1  0.013057  0  0.08139  0.104443  0  1.008201  0
H  H46  1  0.79731915  0.78087780  0.08584051  1  0.028508  0  0.089874  0.118297  0  0.997293  0
H  H47  1  0.78921885  0.64726506  0.94080507  1  0.004282  0  0.08659  0.076383  0  0.985425  0
H  H48  1  0.68519623  0.63000847  0.93618121  1  0.018744  0  0.088487  0.076291  0  0.990322  0
H  H49  1  0.63173311  0.49251842  0.96121062  1  -0.007617  0  0.088556  0.081277  0  0.986518  0
H  H50  1  0.73763174  0.51293744  0.97257385  1  0.018488  0  0.086093  0.080249  0  1.004809  0
H  H51  1  0.23895036  0.87857474  0.77415282  1  -0.002903  0  0.076181  0.096902  0  1.015182  0
H  H52  1  0.12023860  0.79991313  0.73376116  1  0.02947  0  0.080868  0.108008  0  1.010074  0
H  H53  1  0.17817694  0.82165066  0.82721090  1  0.049897  0  0.077873  0.108488  0  1.040162  0
H  H54  1  0.12092607  0.64762821  0.69551656  1  0.041918  0  0.084777  0.075226  0  1.00984  0
H  H55  1  0.23880481  0.72473311  0.73218425  1  -0.007579  0  0.083822  0.07319  0  0.985449  0
H  H56  1  0.23355631  0.76335500  0.61866999  1  0.029389  0  0.090193  0.084738  0  0.98015  0
H  H57  1  0.11676494  0.68064354  0.58057031  1  0.054776  0  0.097225  0.101418  0  0.963389  0
H  H58  1  0.22278165  0.13889489  0.98424203  1  0.003027  0  0.082029  0.107005  0  1.01076  0
H  H59  1  0.12080842  0.10689786  0.92897531  1  0.003366  0  0.081849  0.111578  0  1.021584  0
H  H60  1  0.18334546  0.06661371  0.86716424  1  0.01603  0  0.087758  0.116604  0  0.998048  0
H  H61  1  0.20606729  0.21741513  0.87570222  1  0.001625  0  0.088521  0.077481  0  0.973639  0
H  H62  1  0.30713814  0.24927743  0.93131018  1  -0.007968  0  0.085109  0.072067  0  0.984757  0
H  H63  1  0.27995108  0.32722405  0.07549155  1  0.056108  0  0.097737  0.105788  0  0.99596  0
H  H64  1  0.18066289  0.29750789  0.02095376  1  0.051397  0  0.101395  0.112058  0  0.966925  0
C  C65  1  0.37733608  0.23225243  0.36269413  1  1.530876  0  0.228731  0.608231  0  4.180054  0
C  C66  1  0.64902718  0.78423207  0.64209729  1  1.539019  0  0.233995  0.614141  0  4.174066  0
C  C67  1  0.36688310  0.51428007  0.64049292  1  1.53786  0  0.230338  0.610857  0  4.169557  0
C  C68  1  0.63891773  0.50102260  0.36149470  1  1.617319  0  0.231607  0.610937  0  4.183618  0
C  C69  1  0.63874428  0.50057452  0.63459529  1  1.56487  0  0.232504  0.609589  0  4.17729  0
C  C70  1  0.36106851  0.50395319  0.36291860  1  1.55714  0  0.233263  0.616965  0  4.167935  0
C  C71  1  0.17102383  0.44749919  0.49431297  1  -0.128782  0  -0.098438  -0.076932  0  4.063311  0
C  C72  1  0.19225705  0.44163940  0.42018051  1  -0.050317  0  -0.10457  -0.152904  0  4.015012  0
C  C73  1  0.20884596  0.51743080  0.40766893  1  -0.018577  0  -0.015512  0.066835  0  4.037096  0
C  C74  1  0.20270219  0.59708978  0.47002969  1  -0.069273  0  -0.090659  -0.187107  0  3.932324  0
C  C75  1  0.18233057  0.60459765  0.54554545  1  0.002853  0  -0.0044  0.131762  0  3.954878  0
C  C76  1  0.16655472  0.52847455  0.55683362  1  0.014357  0  -0.092702  -0.138729  0  3.962635  0
C  C77  1  0.18488840  0.51886300  0.27539613  1  -0.003156  0  -0.068501  -0.117109  0  3.897462  0
C  C78  1  0.20389497  0.51261119  0.20006492  1  -0.042107  0  -0.011341  -0.069495  0  3.942384  0
C  C79  1  0.27323598  0.50196000  0.17695224  1  0.021441  0  -0.000497  0.056443  0  3.981677  0
C  C80  1  0.32011489  0.49525135  0.23042984  1  0.017999  0  -0.075667  -0.132591  0  3.937942  0
C  C81  1  0.30139061  0.50240239  0.30607883  1  -0.026506  0  -0.004617  -0.056772  0  3.919906  0
C  C82  1  0.23264513  0.51388032  0.32999341  1  -0.001003  0  0.013205  0.07375  0  3.944837  0
C  C83  1  0.29768011  0.42017618  0.03006765  1  0.041135  0  0.013902  0.118901  0  3.87126  0
C  C84  1  0.33591588  0.43166562  0.96786144  1  -0.046774  0  -0.075231  -0.175929  0  3.939623  0
C  C85  1  0.37582344  0.52368258  0.97527312  1  0.219381  0  0.074467  0.076511  0  3.973481  0
C  C86  1  0.37705527  0.60627384  0.04256283  1  0.031418  0  -0.071823  -0.173992  0  3.957904  0
C  C87  1  0.34262070  0.59548900  0.10614129  1  0.199572  0  0.081562  0.042399  0  3.921909  0
C  C88  1  0.30396758  0.50567922  0.10356313  1  0.053946  0  0.020207  0.005551  0  3.894292  0
C  C89  1  0.68353092  0.95721088  0.70422780  1  0.11624  0  0.004932  0.078556  0  3.909345  0
C  C90  1  0.70844323  0.89823489  0.70776322  1  0.03348  0  0.001438  -0.103909  0  3.885759  0
C  C91  1  0.78979918  0.95121967  0.77399137  1  -0.002164  0  0.023152  0.086801  0  3.864788  0
C  C92  1  0.84158023  0.05937930  0.82764868  1  0.226156  0  0.089751  0.003793  0  3.859721  0
C  C93  1  0.81858170  0.11984137  0.82229975  1  0.072575  0  0.001039  -0.090526  0  3.95463  0
C  C94  1  0.73689325  0.06363882  0.75901749  1  -0.052077  0  -0.004485  0.01439  0  3.936722  0
C  C95  1  0.67624801  0.07357245  0.71467261  1  0.239657  0  0.02147  -0.02477  0  3.727106  0
C  C96  1  0.61213177  0.95196383  0.65562503  1  -0.065496  0  -0.133212  -0.230413  0  3.806015  0
C  C97  1  0.66589787  0.46598777  0.21880046  1  0.007529  0  0.004431  0.027218  0  3.910711  0
C  C98  1  0.69456121  0.49242439  0.30297545  1  0.052723  0  0.008206  -0.080602  0  3.91843  0
C  C99  1  0.77826783  0.51027157  0.32630762  1  0.255002  0  0.101397  0.026655  0  3.855118  0
C  C100  1  0.82724646  0.50179468  0.26816219  1  0.242301  0  0.100484  0.021784  0  3.860042  0
C  C101  1  0.79875669  0.48009196  0.18467400  1  0.120664  0  0.011543  -0.081637  0  3.90863  0
C  C102  1  0.71533738  0.45994144  0.16161278  1  -0.010907  0  0.013065  0.092185  0  3.880531  0
C  C103  1  0.64817296  0.43607839  0.09102517  1  -0.022709  0  -0.13152  -0.232435  0  3.798924  0
C  C104  1  0.59516090  0.44996584  0.15889355  1  0.212061  0  0.022896  -0.02983  0  3.740011  0
C  C105  1  0.30008693  0.05928445  0.21518836  1  -0.034292  0  0.007404  0.08514  0  3.87588  0
C  C106  1  0.32107031  0.11824667  0.30677634  1  0.044267  0  -0.00864  -0.07537  0  3.958486  0
C  C107  1  0.28362014  0.06359226  0.34483996  1  -0.015615  0  -0.071561  -0.081333  0  3.948674  0
C  C108  1  0.22702609  0.95660047  0.29387752  1  -0.029153  0  -0.072982  -0.089525  0  3.946898  0
C  C109  1  0.20372301  0.89786036  0.20125867  1  -0.019282  0  -0.002731  -0.047541  0  3.957329  0
C  C110  1  0.24230161  0.95278294  0.16483206  1  0.019317  0  -0.003644  0.009009  0  3.908865  0
C  C111  1  0.24595458  0.94127023  0.07840051  1  0.218302  0  0.019594  -0.02907  0  3.736571  0
C  C112  1  0.31545868  0.06208683  0.13568908  1  -0.017149  0  -0.135888  -0.234381  0  3.816928  0
C  C113  1  0.66694890  0.46028436  0.73917848  1  0.017897  0  0.010152  0.083013  0  3.880943  0
C  C114  1  0.69457096  0.49225683  0.68427925  1  0.008204  0  -0.005769  -0.06366  0  3.976979  0
C  C115  1  0.78079009  0.52085729  0.68007085  1  0.00798  0  -0.065172  -0.136721  0  3.924598  0
C  C116  1  0.83461161  0.51699710  0.72939969  1  0.20911  0  0.085464  0.053624  0  3.919039  0
C  C117  1  0.80941127  0.49029553  0.78937655  1  -0.030563  0  0.001219  -0.104738  0  3.937801  0
C  C118  1  0.72381008  0.46179096  0.79133766  1  0.007451  0  0.004889  0.037373  0  3.855426  0
C  C119  1  0.65887902  0.43390120  0.83949939  1  0.032028  0  -0.073152  -0.008144  0  3.803557  0
C  C120  1  0.59292870  0.42692932  0.77652017  1  -0.072154  0  -0.147803  -0.241837  0  3.836277  0
C  C121  1  0.26524236  0.43249668  0.70685568  1  -0.031383  0  -0.004153  0.064819  0  3.88334  0
C  C122  1  0.31213363  0.51453992  0.69933154  1  0.052532  0  -0.012191  -0.081512  0  3.980913  0
C  C123  1  0.30426718  0.59708506  0.75014740  1  0.003843  0  -0.074238  -0.08477  0  3.958348  0
C  C124  1  0.25141975  0.59601577  0.80429794  1  -0.107757  0  -0.075396  -0.08609  0  3.937313  0
C  C125  1  0.20337957  0.51194331  0.81060638  1  0.053168  0  -0.013571  -0.079169  0  3.976776  0
C  C126  1  0.21234580  0.43124316  0.76108790  1  -0.075033  0  -0.007508  0.055037  0  3.890195  0
C  C127  1  0.18299452  0.32614316  0.73621132  1  0.000811  0  -0.154116  -0.199721  0  3.883874  0
C  C128  1  0.24360335  0.32803755  0.67532119  1  -0.012514  0  -0.154631  -0.203968  0  3.883843  0
C  C129  1  0.85740612  0.48919183  0.12896424  1  1.61786  0  0.232367  0.612185  0  4.194809  0
C  C130  1  0.14532751  0.50996225  0.86629494  1  1.54665  0  0.231075  0.613326  0  4.16605  0
C  C131  1  0.87459569  0.23402133  0.87592670  1  1.556611  0  0.232357  0.61532  0  4.176148  0
C  C132  1  0.14161673  0.78418714  0.14513442  1  1.559305  0  0.233134  0.613407  0  4.167218  0
C  C133  1  0.86896663  0.49986112  0.85351910  1  1.602158  0  0.232594  0.61995  0  4.176186  0
C  C134  1  0.14658815  0.51330381  0.14341710  1  1.574011  0  0.227774  0.606389  0  4.165889  0
C  C135  1  0.81604810  0.89398551  0.79174789  1  -0.025984  0  -0.164251  -0.217675  0  3.947616  0
C  C136  1  0.75467028  0.84357419  0.83311516  1  -0.017644  0  -0.161351  -0.080431  0  3.946258  0
C  C137  1  0.78042516  0.78435670  0.84977049  1  -0.077707  0  -0.244725  -0.353717  0  3.961718  0
C  C138  1  0.69000258  0.51530561  0.93864405  1  -0.001999  0  -0.162417  -0.172939  0  3.945305  0
C  C139  1  0.73336820  0.62545335  0.96648229  1  0.019205  0  -0.168403  -0.09609  0  3.971028  0
C  C140  1  0.76751054  0.70237117  0.06676862  1  -0.057354  0  -0.24457  -0.352297  0  3.991013  0
C  C141  1  0.17785547  0.69346058  0.61075518  1  -0.037052  0  -0.157349  -0.194456  0  3.962451  0
C  C142  1  0.17938929  0.71430227  0.70188746  1  0.013979  0  -0.168848  -0.088888  0  3.963086  0
C  C143  1  0.17925691  0.80899183  0.76275705  1  -0.084364  0  -0.250831  -0.355895  0  3.991734  0
C  C144  1  0.24799606  0.31801234  0.01825709  1  -0.01253  0  -0.157703  -0.206098  0  3.937256  0
C  C145  1  0.23998180  0.22937691  0.93384025  1  0.041339  0  -0.163649  -0.081272  0  3.964332  0
C  C146  1  0.18874760  0.12974292  0.92819229  1  -0.009947  0  -0.244491  -0.352725  0  3.964987  0
N  N147  1  0.41936224  0.53472143  0.91100424  1  0.369244  0  0.058451  0.515921  0  4.197321  0
N  N148  1  0.34898451  0.68631482  0.18000693  1  0.401053  0  0.059093  0.517642  0  4.21085  0
N  N149  1  0.92546396  0.11311661  0.89724862  1  0.429064  0  0.05879  0.522251  0  4.245965  0
N  N150  1  0.63560335  0.12578134  0.77244182  1  0.455794  0  0.054925  0.534439  0  4.184314  0
N  N151  1  0.81505879  0.53565175  0.41383404  1  0.465643  0  0.060419  0.512419  0  4.263066  0
N  N152  1  0.90971099  0.50982705  0.29278824  1  0.421414  0  0.062193  0.514189  0  4.240357  0
N  N153  1  0.50092727  0.35678999  0.12443221  1  0.45892  0  0.057843  0.531166  0  4.193  0
N  N154  1  0.28320896  0.88130359  0.02562294  1  0.450574  0  0.057192  0.531695  0  4.172499  0
N  N155  1  0.91898683  0.53630703  0.71207508  1  0.40419  0  0.060908  0.51932  0  4.21349  0
O  O156  1  0.50235298  0.50822969  0.49969404  1  -1.214749  0  -0.574619  -1.033542  0  2.55068  0
O  O157  1  0.40352940  0.27550232  0.32207134  1  -1.163763  0  -0.310093  -0.533967  0  2.312286  0
O  O158  1  0.56603189  0.74541362  0.61786668  1  -1.149934  0  -0.301449  -0.528721  0  2.314408  0
O  O159  1  0.37438205  0.43893170  0.60373324  1  -1.176222  0  -0.312942  -0.541977  0  2.347949  0
O  O160  1  0.67649601  0.54647064  0.44268654  1  -1.151864  0  -0.299372  -0.519653  0  2.381358  0
O  O161  1  0.55522793  0.44949808  0.62203737  1  -1.15108  0  -0.306281  -0.53098  0  2.319788  0
O  O162  1  0.37514077  0.43420784  0.32245572  1  -1.163203  0  -0.316547  -0.546254  0  2.334341  0
O  O163  1  0.68012913  0.55986123  0.61031620  1  -1.160467  0  -0.309038  -0.53303  0  2.352747  0
O  O164  1  0.39475566  0.57575988  0.44506086  1  -1.173103  0  -0.307821  -0.54187  0  2.354325  0
O  O165  1  0.40158510  0.58734331  0.63046323  1  -1.175238  0  -0.311578  -0.544877  0  2.33946  0
O  O166  1  0.55856173  0.46243369  0.32337012  1  -1.161327  0  -0.304714  -0.531779  0  2.31641  0
O  O167  1  0.39347346  0.27685690  0.44572147  1  -1.168485  0  -0.310952  -0.540916  0  2.352867  0
O  O168  1  0.68617790  0.73667168  0.61368828  1  -1.159158  0  -0.305861  -0.535323  0  2.36047  0
O  O169  1  0.00452495  0.50855986  0.00255883  1  -1.218117  0  -0.573093  -1.033404  0  2.539773  0
O  O170  1  0.94022889  0.55592477  0.17090584  1  -1.158419  0  -0.301819  -0.530165  0  2.35767  0
O  O171  1  0.11301868  0.43684514  0.87655010  1  -1.166762  0  -0.31454  -0.542917  0  2.322911  0
O  O172  1  0.83192437  0.27288440  0.87907266  1  -1.157932  0  -0.305169  -0.529225  0  2.343085  0
O  O173  1  0.11995345  0.74216110  0.06203353  1  -1.150825  0  -0.308232  -0.540719  0  2.347976  0
O  O174  1  0.82837635  0.43655760  0.87406291  1  -1.157189  0  -0.304921  -0.531909  0  2.356543  0
O  O175  1  0.11058762  0.56018481  0.18140330  1  -1.16045  0  -0.307444  -0.530457  0  2.337897  0
O  O176  1  0.95167992  0.57171306  0.88518384  1  -1.168689  0  -0.307734  -0.536047  0  2.341156  0
O  O177  1  0.13792276  0.46613162  0.06143437  1  -1.170127  0  -0.30639  -0.540916  0  2.37954  0
O  O178  1  0.95779859  0.28144845  0.91069766  1  -1.17136  0  -0.302577  -0.526867  0  2.35147  0
O  O179  1  0.11510175  0.73923904  0.18405573  1  -1.153697  0  -0.309445  -0.538251  0  2.330343  0
O  O180  1  0.81745969  0.43302558  0.04609916  1  -1.164917  0  -0.298969  -0.51696  0  2.300183  0
O  O181  1  0.13192600  0.58027931  0.89904929  1  -1.162615  0  -0.307721  -0.534952  0  2.365941  0
O  O182  1  0.45155594  0.61600863  0.91727858  1  -0.444797  0  -0.132998  -0.333178  0  1.878239  0
O  O183  1  0.42248824  0.46210020  0.85488761  1  -0.471742  0  -0.135061  -0.346814  0  1.91482  0
O  O184  1  0.38798200  0.72161655  0.25590690  1  -0.434313  0  -0.129459  -0.325022  0  1.871389  0
O  O185  1  0.31557222  0.72109707  0.15993393  1  -0.444754  0  -0.129761  -0.322254  0  1.863488  0
O  O186  1  0.99077596  0.12097181  0.87382462  1  -0.441145  0  -0.11477  -0.312985  0  1.90141  0
O  O187  1  0.92249137  0.14323379  0.97290547  1  -0.425743  0  -0.124216  -0.314161  0  1.850548  0
O  O188  1  0.61335146  0.10876472  0.82822764  1  -0.45373  0  -0.13687  -0.335221  0  1.86981  0
O  O189  1  0.62609604  0.18032455  0.75818065  1  -0.457932  0  -0.141251  -0.348758  0  1.883335  0
O  O190  1  0.86130555  0.62683766  0.47573153  1  -0.402186  0  -0.100367  -0.278472  0  1.893182  0
O  O191  1  0.79590905  0.46171211  0.41538621  1  -0.423693  0  -0.117707  -0.300078  0  1.843705  0
O  O192  1  0.91001196  0.43407267  0.24121295  1  -0.427368  0  -0.111205  -0.296066  0  1.863779  0
O  O193  1  0.96960801  0.58946875  0.36224437  1  -0.391166  0  -0.10945  -0.29273  0  1.880561  0
O  O194  1  0.49115080  0.27988880  0.11327388  1  -0.438066  0  -0.12157  -0.319738  0  1.883138  0
O  O195  1  0.44024149  0.36400951  0.10726301  1  -0.466487  0  -0.126798  -0.33577  0  1.913933  0
O  O196  1  0.35003218  0.89928195  0.06671681  1  -0.450389  0  -0.136368  -0.335616  0  1.866567  0
O  O197  1  0.24437839  0.81907177  0.94486713  1  -0.452074  0  -0.116897  -0.323049  0  1.931244  0
O  O198  1  0.93825006  0.47702979  0.70351131  1  -0.451986  0  -0.137549  -0.332689  0  1.872079  0
O  O199  1  0.96283505  0.60796523  0.70425398  1  -0.443637  0  -0.115524  -0.310841  0  1.895602  0
