# generated using pymatgen
data_CuH10C8N2ClO
_symmetry_space_group_name_H-M   'P 1'
_cell_length_a   4.78015601
_cell_length_b   13.72561060
_cell_length_c   13.94342845
_cell_angle_alpha   90.00001972
_cell_angle_beta   89.99999048
_cell_angle_gamma   89.99994572
_symmetry_Int_Tables_number   1
_chemical_formula_structural   CuH10C8N2ClO
_chemical_formula_sum   'Cu4 H40 C32 N8 Cl4 O4'
_cell_volume   914.83614834
_cell_formula_units_Z   4
loop_
 _symmetry_equiv_pos_site_id
 _symmetry_equiv_pos_as_xyz
  1  'x, y, z'
loop_
 _atom_site_type_symbol
 _atom_site_label
 _atom_site_symmetry_multiplicity
 _atom_site_fract_x
 _atom_site_fract_y
 _atom_site_fract_z
 _atom_site_occupancy
 _atom_site_hle17_bader_spin_density
 _atom_site_hle17_ddec_charge
 _atom_site_hle17_ddec_spin_density
 _atom_site_hle17_ddec_sum_bond_order
 _atom_site_hle17_magmom
 _atom_site_hse06_10hf_bader_spin_density
 _atom_site_hse06_10hf_ddec_charge
 _atom_site_hse06_10hf_ddec_spin_density
 _atom_site_hse06_10hf_ddec_sum_bond_order
 _atom_site_hse06_10hf_magmom
 _atom_site_hse06_bader_spin_density
 _atom_site_hse06_ddec_charge
 _atom_site_hse06_ddec_spin_density
 _atom_site_hse06_ddec_sum_bond_order
 _atom_site_hse06_magmom
 _atom_site_pbe_bader_spin_density
 _atom_site_pbe_cm5_charge
 _atom_site_pbe_ddec_charge
 _atom_site_pbe_ddec_spin_density
 _atom_site_pbe_ddec_sum_bond_order
 _atom_site_pbe_magmom
Cu  Cu0  1  0.11333819  0.78712135  0.57114876  1  0  0.421625  0  1.830889  0  0  0.318989  0  2.300386  0  0  0.332163  0  2.245352  0  0  0.35777  0.312321  0  2.336828  0
Cu  Cu1  1  0.38666908  0.21287791  0.07114824  1  0  0.421654  0  1.830902  0  0  0.319017  0  2.300399  0  0  0.3322  0  2.245382  0  0  0.35778  0.312362  0  2.336853  0
Cu  Cu2  1  0.88666710  0.28712021  0.92885121  1  0  0.421666  0  1.830876  0  0  0.319029  0  2.300346  0  0  0.332194  0  2.245307  0  0  0.357789  0.312363  0  2.336801  0
Cu  Cu3  1  0.61333037  0.71287682  0.42885159  1  0  0.421646  0  1.830913  0  0  0.31901  0  2.300403  0  0  0.332191  0  2.245378  0  0  0.357783  0.312345  0  2.336853  0
H  H4  1  0.85332035  0.70786870  0.83534271  1  0  0.308225  0  0.940311  0  0  0.286956  0  1.008953  0  0  0.295231  0  1.002316  0  0  0.305127  0.281078  0  1.013744  0
H  H5  1  0.64668134  0.29213195  0.33534223  1  0  0.308166  0  0.94022  0  0  0.286906  0  1.008862  0  0  0.29518  0  1.002226  0  0  0.305095  0.281032  0  1.013654  0
H  H6  1  0.14668514  0.20786844  0.66465651  1  0  0.308128  0  0.940276  0  0  0.286869  0  1.008922  0  0  0.295143  0  1.002288  0  0  0.305091  0.28099  0  1.013717  0
H  H7  1  0.35331580  0.79213158  0.16465690  1  0  0.308173  0  0.940256  0  0  0.286912  0  1.008898  0  0  0.295187  0  1.002259  0  0  0.305106  0.281038  0  1.013685  0
H  H8  1  0.88913059  0.97127989  0.63412538  1  0  0.081273  0  0.955651  0  0  0.08996  0  1.019156  0  0  0.091979  0  1.018105  0  0  0.106747  0.088352  0  1.020121  0
H  H9  1  0.61086911  0.02871923  0.13412625  1  0  0.081234  0  0.955667  0  0  0.089928  0  1.019157  0  0  0.091943  0  1.018112  0  0  0.106753  0.088325  0  1.020124  0
H  H10  1  0.11086791  0.47128117  0.86587536  1  0  0.081265  0  0.955612  0  0  0.089964  0  1.019105  0  0  0.091979  0  1.01806  0  0  0.106778  0.088361  0  1.020066  0
H  H11  1  0.38912875  0.52871892  0.36587351  1  0  0.081305  0  0.955586  0  0  0.090005  0  1.019072  0  0  0.09202  0  1.018027  0  0  0.106775  0.088394  0  1.020043  0
H  H12  1  0.95840984  0.08661907  0.76947932  1  0  0.105101  0  0.969157  0  0  0.113005  0  1.035183  0  0  0.116585  0  1.033353  0  0  0.10284  0.110293  0  1.036823  0
H  H13  1  0.54158980  0.91338082  0.26947977  1  0  0.10512  0  0.969205  0  0  0.113037  0  1.035217  0  0  0.116615  0  1.03339  0  0  0.102842  0.110324  0  1.03685  0
H  H14  1  0.04158972  0.58661883  0.73052057  1  0  0.105113  0  0.969131  0  0  0.11302  0  1.035163  0  0  0.1166  0  1.033332  0  0  0.102829  0.110312  0  1.036797  0
H  H15  1  0.45840701  0.41338048  0.23051940  1  0  0.105089  0  0.969204  0  0  0.113013  0  1.035213  0  0  0.116588  0  1.033385  0  0  0.102827  0.110298  0  1.036855  0
H  H16  1  0.33441139  0.05028493  0.89179717  1  0  0.09623  0  0.956782  0  0  0.104706  0  1.021384  0  0  0.107724  0  1.018751  0  0  0.096675  0.102239  0  1.023648  0
H  H17  1  0.16558944  0.94971590  0.39179763  1  0  0.09622  0  0.956728  0  0  0.104691  0  1.021341  0  0  0.10771  0  1.018707  0  0  0.09667  0.102226  0  1.023598  0
H  H18  1  0.66558826  0.55028371  0.60820343  1  0  0.09621  0  0.956769  0  0  0.104688  0  1.021363  0  0  0.107708  0  1.018728  0  0  0.096667  0.102223  0  1.023624  0
H  H19  1  0.83440937  0.44971539  0.10820228  1  0  0.09624  0  0.956748  0  0  0.104714  0  1.021357  0  0  0.107732  0  1.018724  0  0  0.096677  0.102247  0  1.023613  0
H  H20  1  0.60804358  0.89584144  0.87384117  1  0  0.107775  0  0.952749  0  0  0.119905  0  1.010191  0  0  0.122645  0  1.01045  0  0  0.108162  0.117894  0  1.010237  0
H  H21  1  0.89196019  0.10415995  0.37383990  1  0  0.107809  0  0.952774  0  0  0.119879  0  1.010272  0  0  0.122618  0  1.010533  0  0  0.108159  0.11787  0  1.010316  0
H  H22  1  0.39195513  0.39584109  0.62615954  1  0  0.107824  0  0.952743  0  0  0.119911  0  1.010229  0  0  0.122651  0  1.010489  0  0  0.108155  0.117903  0  1.010277  0
H  H23  1  0.10803955  0.60415819  0.12615917  1  0  0.107842  0  0.952773  0  0  0.119918  0  1.010259  0  0  0.122658  0  1.010519  0  0  0.108159  0.117907  0  1.010305  0
H  H24  1  0.40643749  0.70584698  0.69613736  1  0  0.066997  0  0.968622  0  0  0.075326  0  1.050007  0  0  0.078016  0  1.045724  0  0  0.096556  0.073154  0  1.053221  0
H  H25  1  0.09356554  0.29415305  0.19613689  1  0  0.067024  0  0.96856  0  0  0.075309  0  1.050012  0  0  0.077997  0  1.045734  0  0  0.096557  0.073141  0  1.053222  0
H  H26  1  0.59356383  0.20584735  0.80386329  1  0  0.067021  0  0.968606  0  0  0.075313  0  1.050042  0  0  0.078004  0  1.045759  0  0  0.096564  0.073146  0  1.053249  0
H  H27  1  0.90643579  0.79415182  0.30386368  1  0  0.067042  0  0.968567  0  0  0.075333  0  1.050003  0  0  0.078019  0  1.045726  0  0  0.096579  0.073161  0  1.053212  0
H  H28  1  0.72733279  0.76874467  0.68712595  1  0  0.069973  0  0.965244  0  0  0.0791  0  1.048255  0  0  0.083316  0  1.041474  0  0  0.09685  0.075694  0  1.053394  0
H  H29  1  0.77266898  0.23125519  0.18712616  1  0  0.069916  0  0.965332  0  0  0.079088  0  1.048309  0  0  0.083307  0  1.041529  0  0  0.096836  0.075671  0  1.053471  0
H  H30  1  0.27266627  0.26874443  0.81287472  1  0  0.069973  0  0.965241  0  0  0.07911  0  1.048252  0  0  0.08333  0  1.041468  0  0  0.096862  0.075696  0  1.053406  0
H  H31  1  0.22733251  0.73125419  0.31287439  1  0  0.069975  0  0.965236  0  0  0.079103  0  1.048248  0  0  0.083318  0  1.041468  0  0  0.096855  0.075695  0  1.053395  0
H  H32  1  0.48529697  0.55522421  0.98315570  1  0  0.140167  0  0.950657  0  0  0.156264  0  1.015687  0  0  0.158808  0  1.014999  0  0  0.091833  0.154416  0  1.016203  0
H  H33  1  0.01470173  0.44477665  0.48315456  1  0  0.140173  0  0.950668  0  0  0.156263  0  1.015712  0  0  0.158806  0  1.015023  0  0  0.091837  0.154417  0  1.016221  0
H  H34  1  0.51470476  0.05522524  0.51684419  1  0  0.14021  0  0.95069  0  0  0.156316  0  1.015702  0  0  0.158859  0  1.015012  0  0  0.091857  0.15447  0  1.01621  0
H  H35  1  0.98529291  0.94477457  0.01684463  1  0  0.140199  0  0.950701  0  0  0.156295  0  1.015722  0  0  0.158839  0  1.015033  0  0  0.091851  0.154448  0  1.016231  0
H  H36  1  0.53372224  0.67205891  0.03574740  1  0  0.140791  0  0.951532  0  0  0.156564  0  1.016944  0  0  0.159396  0  1.016233  0  0  0.097459  0.154575  0  1.01746  0
H  H37  1  0.96627960  0.32794236  0.53574703  1  0  0.140734  0  0.951572  0  0  0.156519  0  1.016966  0  0  0.159351  0  1.016257  0  0  0.097435  0.154532  0  1.017486  0
H  H38  1  0.46628150  0.17206011  0.46425169  1  0  0.140833  0  0.951419  0  0  0.156603  0  1.016841  0  0  0.159434  0  1.016131  0  0  0.097486  0.154614  0  1.017366  0
H  H39  1  0.03371720  0.82794074  0.96425294  1  0  0.140829  0  0.951461  0  0  0.15661  0  1.016864  0  0  0.159443  0  1.016152  0  0  0.097479  0.154622  0  1.01738  0
H  H40  1  0.81035532  0.61911421  0.96795284  1  0  0.136941  0  0.962794  0  0  0.1523  0  1.02704  0  0  0.155806  0  1.024822  0  0  0.095615  0.149733  0  1.028719  0
H  H41  1  0.68964422  0.38088576  0.46795024  1  0  0.136954  0  0.962779  0  0  0.15231  0  1.027032  0  0  0.155818  0  1.024815  0  0  0.095631  0.149747  0  1.02871  0
H  H42  1  0.18964833  0.11911535  0.53204850  1  0  0.136903  0  0.962785  0  0  0.152238  0  1.027071  0  0  0.155744  0  1.024854  0  0  0.095615  0.149675  0  1.028751  0
H  H43  1  0.31035059  0.88088536  0.03204749  1  0  0.136903  0  0.962808  0  0  0.152239  0  1.02709  0  0  0.155746  0  1.024872  0  0  0.095612  0.149676  0  1.028766  0
C  C44  1  0.04539663  0.95710653  0.68927683  1  0  0.126509  0  3.685033  0  0  0.098296  0  3.930881  0  0  0.105171  0  3.949558  0  0  0.03636  0.093727  0  3.918569  0
C  C45  1  0.45460640  0.04289277  0.18927554  1  0  0.12668  0  3.685032  0  0  0.098467  0  3.930884  0  0  0.105343  0  3.949562  0  0  0.036397  0.093898  0  3.918587  0
C  C46  1  0.95460191  0.45710606  0.81072462  1  0  0.126679  0  3.684919  0  0  0.098454  0  3.930774  0  0  0.10533  0  3.949449  0  0  0.036364  0.093885  0  3.918479  0
C  C47  1  0.54539352  0.54289239  0.31072351  1  0  0.126579  0  3.684957  0  0  0.09836  0  3.930824  0  0  0.105236  0  3.949501  0  0  0.036354  0.093793  0  3.918521  0
C  C48  1  0.08696556  0.02150955  0.76470648  1  0  -0.118411  0  3.745015  0  0  -0.133668  0  3.996125  0  0  -0.14129  0  4.01839  0  0  -0.089886  -0.128976  0  3.981705  0
C  C49  1  0.41303743  0.97849124  0.26470693  1  0  -0.118513  0  3.745137  0  0  -0.1338  0  3.99628  0  0  -0.14142  0  4.018541  0  0  -0.089882  -0.129093  0  3.981844  0
C  C50  1  0.91303416  0.52150902  0.73529411  1  0  -0.118562  0  3.745027  0  0  -0.133849  0  3.996185  0  0  -0.14147  0  4.018447  0  0  -0.089905  -0.129154  0  3.98177  0
C  C51  1  0.58695921  0.47849013  0.23529298  1  0  -0.118494  0  3.745066  0  0  -0.13378  0  3.996204  0  0  -0.141395  0  4.018463  0  0  -0.089896  -0.129079  0  3.981778  0
C  C52  1  0.29313667  0.00075416  0.83227593  1  0  0.004743  0  3.713394  0  0  -0.009213  0  3.954832  0  0  -0.004605  0  3.973258  0  0  -0.068824  -0.012287  0  3.942819  0
C  C53  1  0.20686629  0.99924664  0.33227569  1  0  0.004792  0  3.713364  0  0  -0.009155  0  3.954797  0  0  -0.004547  0  3.973223  0  0  -0.06881  -0.01223  0  3.942784  0
C  C54  1  0.70686730  0.50075441  0.66772465  1  0  0.004814  0  3.713452  0  0  -0.009124  0  3.954876  0  0  -0.004514  0  3.973299  0  0  -0.068775  -0.012199  0  3.942878  0
C  C55  1  0.79313239  0.49924545  0.16772352  1  0  0.004797  0  3.713387  0  0  -0.009158  0  3.954821  0  0  -0.004548  0  3.973245  0  0  -0.068792  -0.012231  0  3.942813  0
C  C56  1  0.44625596  0.91511929  0.82224985  1  0  -0.155123  0  3.713071  0  0  -0.172179  0  3.954316  0  0  -0.180706  0  3.976868  0  0  -0.085644  -0.166813  0  3.939629  0
C  C57  1  0.05374491  0.08488152  0.32225003  1  0  -0.15514  0  3.713075  0  0  -0.172134  0  3.954314  0  0  -0.180673  0  3.976855  0  0  -0.085638  -0.166762  0  3.939641  0
C  C58  1  0.55374270  0.41511963  0.67775230  1  0  -0.155097  0  3.71322  0  0  -0.172119  0  3.954457  0  0  -0.180649  0  3.977014  0  0  -0.085602  -0.166761  0  3.939773  0
C  C59  1  0.94625280  0.58488023  0.17774976  1  0  -0.155193  0  3.713177  0  0  -0.172196  0  3.954405  0  0  -0.180738  0  3.976946  0  0  -0.085649  -0.166825  0  3.939719  0
C  C60  1  0.38894831  0.85180917  0.74649301  1  0  0.230911  0  3.685789  0  0  0.234494  0  3.925779  0  0  0.242255  0  3.946114  0  0  0.116389  0.229033  0  3.912468  0
C  C61  1  0.11105469  0.14819088  0.24649248  1  0  0.230852  0  3.685732  0  0  0.234414  0  3.925732  0  0  0.242214  0  3.946019  0  0  0.116391  0.228943  0  3.912461  0
C  C62  1  0.61105262  0.35180952  0.75350841  1  0  0.230733  0  3.685942  0  0  0.234309  0  3.925922  0  0  0.24207  0  3.946263  0  0  0.116335  0.228878  0  3.91259  0
C  C63  1  0.88894285  0.64818964  0.25350804  1  0  0.2308  0  3.685815  0  0  0.234392  0  3.925771  0  0  0.242193  0  3.946053  0  0  0.116367  0.228923  0  3.912478  0
C  C64  1  0.54455006  0.75721590  0.73424492  1  0  -0.013453  0  3.708443  0  0  -0.080069  0  3.963609  0  0  -0.075957  0  3.97162  0  0  -0.061217  -0.08223  0  3.957743  0
C  C65  1  0.95544960  0.24278398  0.23424369  1  0  -0.013406  0  3.708432  0  0  -0.080037  0  3.963608  0  0  -0.075933  0  3.971604  0  0  -0.061214  -0.082191  0  3.957762  0
C  C66  1  0.45545112  0.25721557  0.76575574  1  0  -0.013433  0  3.708388  0  0  -0.080052  0  3.963588  0  0  -0.075936  0  3.971585  0  0  -0.061217  -0.082215  0  3.957719  0
C  C67  1  0.04454768  0.74278375  0.26575471  1  0  -0.013435  0  3.708396  0  0  -0.080034  0  3.963568  0  0  -0.075933  0  3.971581  0  0  -0.061226  -0.082192  0  3.957705  0
C  C68  1  0.46089387  0.67453692  0.88538206  1  0  0.645994  0  3.784076  0  0  0.608285  0  4.066504  0  0  0.637372  0  4.065584  0  0  0.242155  0.588607  0  4.066414  0
C  C69  1  0.03911116  0.32546318  0.38538160  1  0  0.646057  0  3.784007  0  0  0.608365  0  4.066407  0  0  0.637449  0  4.065486  0  0  0.24219  0.588686  0  4.066323  0
C  C70  1  0.53910754  0.17453797  0.61461786  1  0  0.646024  0  3.783878  0  0  0.608308  0  4.066327  0  0  0.637396  0  4.065404  0  0  0.242165  0.588636  0  4.066228  0
C  C71  1  0.96089217  0.82546259  0.11461898  1  0  0.646114  0  3.783932  0  0  0.608381  0  4.066403  0  0  0.637478  0  4.065463  0  0  0.24219  0.588695  0  4.066325  0
C  C72  1  0.58283135  0.62690698  0.97291289  1  0  -0.455948  0  3.66564  0  0  -0.531956  0  3.902917  0  0  -0.539095  0  3.904945  0  0  -0.247522  -0.52685  0  3.901467  0
C  C73  1  0.91716819  0.37309444  0.47291242  1  0  -0.455907  0  3.665649  0  0  -0.53192  0  3.902914  0  0  -0.539062  0  3.904945  0  0  -0.247506  -0.526816  0  3.901463  0
C  C74  1  0.41717227  0.12690731  0.52708702  1  0  -0.456005  0  3.665547  0  0  -0.531994  0  3.902847  0  0  -0.539133  0  3.904873  0  0  -0.247564  -0.526892  0  3.9014  0
C  C75  1  0.08282665  0.87309339  0.02708746  1  0  -0.455987  0  3.665617  0  0  -0.531975  0  3.902922  0  0  -0.539116  0  3.904943  0  0  -0.247544  -0.526869  0  3.901469  0
N  N76  1  0.19099660  0.87306143  0.67980139  1  0  -0.338386  0  3.3649  0  0  -0.261569  0  3.64827  0  0  -0.277544  0  3.657891  0  0  -0.367664  -0.251565  0  3.641963  0
N  N77  1  0.30900853  0.12693714  0.17980084  1  0  -0.338476  0  3.364941  0  0  -0.261632  0  3.6483  0  0  -0.277623  0  3.657918  0  0  -0.367707  -0.251632  0  3.642035  0
N  N78  1  0.80900427  0.37306320  0.82019860  1  0  -0.338411  0  3.364929  0  0  -0.261555  0  3.648249  0  0  -0.277525  0  3.657859  0  0  -0.367668  -0.251563  0  3.641951  0
N  N79  1  0.69099325  0.62693671  0.32019895  1  0  -0.338429  0  3.36491  0  0  -0.261602  0  3.648263  0  0  -0.277588  0  3.657871  0  0  -0.367699  -0.251595  0  3.641968  0
N  N80  1  0.64247158  0.71550482  0.82338009  1  0  -0.447283  0  3.316428  0  0  -0.381978  0  3.556053  0  0  -0.405395  0  3.566477  0  0  -0.424422  -0.365896  0  3.548497  0
N  N81  1  0.85753012  0.28449509  0.32337888  1  0  -0.447265  0  3.316194  0  0  -0.381969  0  3.555808  0  0  -0.405383  0  3.566234  0  0  -0.42443  -0.365885  0  3.548251  0
N  N82  1  0.35753390  0.21550596  0.67661984  1  0  -0.447193  0  3.3163  0  0  -0.381875  0  3.555887  0  0  -0.405291  0  3.566316  0  0  -0.424426  -0.365795  0  3.548329  0
N  N83  1  0.14246914  0.78449480  0.17662025  1  0  -0.447287  0  3.316386  0  0  -0.381959  0  3.555976  0  0  -0.405378  0  3.566393  0  0  -0.424419  -0.365876  0  3.548419  0
Cl  Cl84  1  0.22576569  0.64236128  0.51284958  1  0  -0.541369  0  1.335358  0  0  -0.464804  0  1.712343  0  0  -0.480774  0  1.670735  0  0  -0.295317  -0.453419  0  1.740233  0
Cl  Cl85  1  0.27423533  0.35763723  0.01284983  1  0  -0.541396  0  1.33538  0  0  -0.464825  0  1.712359  0  0  -0.480792  0  1.670752  0  0  -0.295332  -0.453438  0  1.740253  0
Cl  Cl86  1  0.77423789  0.14236165  0.98715033  1  0  -0.541396  0  1.33539  0  0  -0.464825  0  1.712368  0  0  -0.480791  0  1.670757  0  0  -0.295327  -0.453437  0  1.740262  0
Cl  Cl87  1  0.72576582  0.85763613  0.48715076  1  0  -0.541378  0  1.335386  0  0  -0.464808  0  1.712369  0  0  -0.480772  0  1.670756  0  0  -0.295327  -0.453421  0  1.740255  0
O  O88  1  0.20204667  0.67665636  0.87119115  1  0  -0.613276  0  1.968213  0  0  -0.558717  0  2.191318  0  0  -0.581111  0  2.184921  0  0  -0.310054  -0.543104  0  2.195334  0
O  O89  1  0.29795418  0.32334374  0.37119139  1  0  -0.613291  0  1.968322  0  0  -0.558737  0  2.191412  0  0  -0.581131  0  2.185015  0  0  -0.310045  -0.543126  0  2.195437  0
O  O90  1  0.79796101  0.17665660  0.62880949  1  0  -0.613289  0  1.968088  0  0  -0.558722  0  2.191165  0  0  -0.58112  0  2.184768  0  0  -0.31005  -0.543112  0  2.19518  0
O  O91  1  0.70204288  0.82334324  0.12880919  1  0  -0.613336  0  1.968168  0  0  -0.558769  0  2.19128  0  0  -0.581169  0  2.184875  0  0  -0.310078  -0.543155  0  2.195299  0
