# generated using pymatgen
data_NdH8C10NO9
_symmetry_space_group_name_H-M   'P 1'
_cell_length_a   9.63675236
_cell_length_b   11.13192142
_cell_length_c   13.52428200
_cell_angle_alpha   65.80350464
_cell_angle_beta   69.12609185
_cell_angle_gamma   64.34895600
_symmetry_Int_Tables_number   1
_chemical_formula_structural   NdH8C10NO9
_chemical_formula_sum   'Nd4 H32 C40 N4 O36'
_cell_volume   1164.36848422
_cell_formula_units_Z   4
loop_
 _symmetry_equiv_pos_site_id
 _symmetry_equiv_pos_as_xyz
  1  'x, y, z'
loop_
 _atom_site_type_symbol
 _atom_site_label
 _atom_site_symmetry_multiplicity
 _atom_site_fract_x
 _atom_site_fract_y
 _atom_site_fract_z
 _atom_site_occupancy
 _atom_site_hle17_bader_spin_density
 _atom_site_hle17_ddec_charge
 _atom_site_hle17_ddec_spin_density
 _atom_site_hle17_ddec_sum_bond_order
 _atom_site_hle17_magmom
 _atom_site_hse06_10hf_bader_spin_density
 _atom_site_hse06_10hf_ddec_charge
 _atom_site_hse06_10hf_ddec_spin_density
 _atom_site_hse06_10hf_ddec_sum_bond_order
 _atom_site_hse06_10hf_magmom
 _atom_site_hse06_bader_spin_density
 _atom_site_hse06_ddec_charge
 _atom_site_hse06_ddec_spin_density
 _atom_site_hse06_ddec_sum_bond_order
 _atom_site_hse06_magmom
 _atom_site_pbe_bader_spin_density
 _atom_site_pbe_cm5_charge
 _atom_site_pbe_ddec_charge
 _atom_site_pbe_ddec_spin_density
 _atom_site_pbe_ddec_sum_bond_order
 _atom_site_pbe_magmom
Nd  Nd0  1  0.06615287  0.92625413  0.81257038  1  0  2.268252  0  1.602088  0  0  2.099645  0  2.074641  0  0  2.201381  0  1.920301  0  0  1.452546  2.066966  0  2.107953  0
Nd  Nd1  1  0.80500778  0.57370884  0.68744901  1  0  2.26983  0  1.600049  0  0  2.101851  0  2.071583  0  0  2.203026  0  1.918149  0  0  1.452877  2.068884  0  2.105342  0
Nd  Nd2  1  0.93384646  0.07374649  0.18742948  1  0  2.268248  0  1.602082  0  0  2.099629  0  2.074665  0  0  2.201385  0  1.920294  0  0  1.452524  2.06695  0  2.107975  0
Nd  Nd3  1  0.19498753  0.42629069  0.31255554  1  0  2.269835  0  1.600048  0  0  2.101853  0  2.071588  0  0  2.203035  0  1.918148  0  0  1.452887  2.068914  0  2.105307  0
H  H4  1  0.58581197  0.30369272  0.92044528  1  0  0.131578  0  0.950591  0  0  0.13944  0  1.015186  0  0  0.143915  0  1.011011  0  0  0.121178  0.13641  0  1.017828  0
H  H5  1  0.81008511  0.19620121  0.57959249  1  0  0.130386  0  0.951603  0  0  0.138337  0  1.016109  0  0  0.142806  0  1.011917  0  0  0.120579  0.1353  0  1.01879  0
H  H6  1  0.41419083  0.69630897  0.07955268  1  0  0.131583  0  0.950655  0  0  0.139458  0  1.015235  0  0  0.143933  0  1.011061  0  0  0.121182  0.136428  0  1.017879  0
H  H7  1  0.18991412  0.80379943  0.42040635  1  0  0.130392  0  0.951596  0  0  0.138331  0  1.016131  0  0  0.142801  0  1.011939  0  0  0.120587  0.135299  0  1.01881  0
H  H8  1  0.10410621  0.35003861  0.96073695  1  0  0.123257  0  0.951375  0  0  0.129063  0  1.018554  0  0  0.133631  0  1.014233  0  0  0.116261  0.125841  0  1.021691  0
H  H9  1  0.41503657  0.14985354  0.53925576  1  0  0.122717  0  0.952706  0  0  0.129238  0  1.018836  0  0  0.133775  0  1.014545  0  0  0.116563  0.126079  0  1.021887  0
H  H10  1  0.89589665  0.64996098  0.03926223  1  0  0.123221  0  0.951426  0  0  0.12906  0  1.018562  0  0  0.133635  0  1.014229  0  0  0.116265  0.125815  0  1.021727  0
H  H11  1  0.58495975  0.85014915  0.46074583  1  0  0.12269  0  0.952671  0  0  0.129255  0  1.018756  0  0  0.133791  0  1.014465  0  0  0.116582  0.126098  0  1.021807  0
H  H12  1  0.48047201  0.01160644  0.84953939  1  0  0.116656  0  0.926084  0  0  0.125431  0  0.988108  0  0  0.129487  0  0.98479  0  0  0.11178  0.122312  0  0.990743  0
H  H13  1  0.34167677  0.48825909  0.65048832  1  0  0.11746  0  0.924522  0  0  0.12589  0  0.986888  0  0  0.12996  0  0.983534  0  0  0.112109  0.122761  0  0.989534  0
H  H14  1  0.51953161  0.98839524  0.15045884  1  0  0.11665  0  0.926063  0  0  0.125422  0  0.988095  0  0  0.129481  0  0.984769  0  0  0.111777  0.122304  0  0.990731  0
H  H15  1  0.65832309  0.51174257  0.34951260  1  0  0.117456  0  0.924556  0  0  0.125877  0  0.986934  0  0  0.129946  0  0.983583  0  0  0.112112  0.122749  0  0.989577  0
H  H16  1  0.37102389  0.48486662  0.98405974  1  0  0.359688  0  0.815847  0  0  0.336585  0  0.880982  0  0  0.3455  0  0.871912  0  0  0.331225  0.330304  0  0.887207  0
H  H17  1  0.84004665  0.01504440  0.51591515  1  0  0.361446  0  0.814156  0  0  0.338249  0  0.879289  0  0  0.347216  0  0.870135  0  0  0.332456  0.331955  0  0.885531  0
H  H18  1  0.62897666  0.51513296  0.01594065  1  0  0.359691  0  0.815891  0  0  0.336585  0  0.881027  0  0  0.345498  0  0.871956  0  0  0.331214  0.330302  0  0.887255  0
H  H19  1  0.15994994  0.98495516  0.48408588  1  0  0.361443  0  0.814296  0  0  0.338307  0  0.879333  0  0  0.347275  0  0.870178  0  0  0.332487  0.33201  0  0.885576  0
H  H20  1  0.20156736  0.45156452  0.05012609  1  0  0.349344  0  0.881327  0  0  0.327969  0  0.944568  0  0  0.336948  0  0.937445  0  0  0.318072  0.321668  0  0.949735  0
H  H21  1  0.70327970  0.04842508  0.44987582  1  0  0.348322  0  0.882118  0  0  0.32777  0  0.944192  0  0  0.336752  0  0.937056  0  0  0.317961  0.32149  0  0.949347  0
H  H22  1  0.79843343  0.54843611  0.94987229  1  0  0.349368  0  0.881309  0  0  0.327943  0  0.944623  0  0  0.33692  0  0.937505  0  0  0.318062  0.32164  0  0.949791  0
H  H23  1  0.29671837  0.95157450  0.55012372  1  0  0.348324  0  0.882119  0  0  0.327752  0  0.944216  0  0  0.336734  0  0.937079  0  0  0.317948  0.321467  0  0.949373  0
H  H24  1  0.22077794  0.55456355  0.91767075  1  0  0.356684  0  0.862907  0  0  0.336993  0  0.922627  0  0  0.345145  0  0.915861  0  0  0.322087  0.33129  0  0.927465  0
H  H25  1  0.69311818  0.94532696  0.58230719  1  0  0.35611  0  0.862071  0  0  0.335915  0  0.922839  0  0  0.344139  0  0.915952  0  0  0.321251  0.330179  0  0.927724  0
H  H26  1  0.77922535  0.44543708  0.08232847  1  0  0.356674  0  0.862941  0  0  0.336975  0  0.922671  0  0  0.345128  0  0.915902  0  0  0.322077  0.331275  0  0.927506  0
H  H27  1  0.30687792  0.05467367  0.41769257  1  0  0.356133  0  0.86203  0  0  0.335926  0  0.922808  0  0  0.344149  0  0.915922  0  0  0.321252  0.330191  0  0.927691  0
H  H28  1  0.11019307  0.18847131  0.59591992  1  0  0.443671  0  0.842792  0  0  0.421  0  0.893834  0  0  0.430504  0  0.880131  0  0  0.312084  0.414501  0  0.903334  0
H  H29  1  0.89452624  0.31152509  0.90409189  1  0  0.444683  0  0.842138  0  0  0.42178  0  0.893025  0  0  0.4313  0  0.879283  0  0  0.31261  0.415267  0  0.90256  0
H  H30  1  0.88980595  0.81153035  0.40408072  1  0  0.443666  0  0.842787  0  0  0.420995  0  0.893839  0  0  0.430499  0  0.880138  0  0  0.312071  0.414496  0  0.90334  0
H  H31  1  0.10547569  0.68847451  0.09590599  1  0  0.444676  0  0.842156  0  0  0.421774  0  0.893037  0  0  0.431293  0  0.879296  0  0  0.312613  0.415261  0  0.902573  0
H  H32  1  0.93693116  0.22316459  0.65709897  1  0  0.444413  0  0.858026  0  0  0.413084  0  0.923015  0  0  0.42439  0  0.90659  0  0  0.303542  0.405106  0  0.934699  0
H  H33  1  0.81714846  0.27677914  0.84293568  1  0  0.443395  0  0.859625  0  0  0.412001  0  0.924405  0  0  0.423273  0  0.908064  0  0  0.303841  0.40405  0  0.936012  0
H  H34  1  0.06306930  0.77683500  0.34290039  1  0  0.444431  0  0.857995  0  0  0.413103  0  0.922982  0  0  0.424409  0  0.906557  0  0  0.303547  0.405123  0  0.93467  0
H  H35  1  0.18285167  0.72321939  0.15706467  1  0  0.443382  0  0.859646  0  0  0.411983  0  0.924433  0  0  0.423255  0  0.908092  0  0  0.303838  0.404036  0  0.936037  0
C  C36  1  0.72371675  0.07252049  0.85205886  1  0  0.638057  0  3.93626  0  0  0.590991  0  4.226238  0  0  0.623222  0  4.22624  0  0  0.197261  0.569058  0  4.228421  0
C  C37  1  0.64829480  0.42737567  0.64801374  1  0  0.636853  0  3.937406  0  0  0.590236  0  4.226916  0  0  0.622473  0  4.226872  0  0  0.198671  0.56829  0  4.22908  0
C  C38  1  0.27628677  0.92748120  0.14793835  1  0  0.638017  0  3.936566  0  0  0.590918  0  4.226581  0  0  0.623153  0  4.226582  0  0  0.197195  0.568985  0  4.228767  0
C  C39  1  0.35170692  0.57262495  0.35198594  1  0  0.636772  0  3.937505  0  0  0.590165  0  4.226996  0  0  0.622402  0  4.226951  0  0  0.198615  0.568213  0  4.229166  0
C  C40  1  0.55113564  0.15077402  0.87947941  1  0  -0.055858  0  3.75859  0  0  -0.029284  0  3.995445  0  0  -0.038434  0  4.019248  0  0  -0.013064  -0.023366  0  3.979218  0
C  C41  1  0.58145953  0.34906478  0.62057882  1  0  -0.054  0  3.759249  0  0  -0.027944  0  3.996213  0  0  -0.037101  0  4.020051  0  0  -0.013547  -0.022015  0  3.979965  0
C  C42  1  0.44886828  0.84922663  0.12051805  1  0  -0.055805  0  3.758622  0  0  -0.029194  0  3.995447  0  0  -0.038354  0  4.019269  0  0  -0.01297  -0.023274  0  3.979224  0
C  C43  1  0.41854127  0.65093586  0.37941955  1  0  -0.053929  0  3.75919  0  0  -0.027868  0  3.996149  0  0  -0.037021  0  4.019983  0  0  -0.013519  -0.02193  0  3.979893  0
C  C44  1  0.50082408  0.26943497  0.91310035  1  0  -0.126737  0  3.642646  0  0  -0.163575  0  3.892437  0  0  -0.162122  0  3.908961  0  0  -0.069933  -0.16441  0  3.880919  0
C  C45  1  0.68350632  0.23040762  0.58698949  1  0  -0.124608  0  3.641938  0  0  -0.161581  0  3.890551  0  0  -0.160093  0  3.907109  0  0  -0.067883  -0.162451  0  3.879022  0
C  C46  1  0.49917788  0.73056672  0.08689732  1  0  -0.126725  0  3.642767  0  0  -0.163608  0  3.892582  0  0  -0.162153  0  3.909109  0  0  -0.069953  -0.164442  0  3.881067  0
C  C47  1  0.31649334  0.76959406  0.41300939  1  0  -0.124601  0  3.641919  0  0  -0.161583  0  3.890533  0  0  -0.160093  0  3.90709  0  0  -0.067884  -0.162455  0  3.879006  0
C  C48  1  0.34053742  0.34184678  0.93800673  1  0  0.252274  0  3.696176  0  0  0.252609  0  3.949121  0  0  0.254816  0  3.970641  0  0  0.090393  0.250944  0  3.934505  0
C  C49  1  0.62048898  0.15801481  0.56211637  1  0  0.248888  0  3.697344  0  0  0.250574  0  3.948272  0  0  0.252706  0  3.969903  0  0  0.089638  0.248976  0  3.933547  0
C  C50  1  0.65946650  0.65815387  0.06199073  1  0  0.252273  0  3.696195  0  0  0.252624  0  3.949129  0  0  0.254834  0  3.970649  0  0  0.090424  0.250959  0  3.934508  0
C  C51  1  0.37950927  0.84198475  0.43788522  1  0  0.248833  0  3.697375  0  0  0.250528  0  3.948297  0  0  0.252659  0  3.969929  0  0  0.089617  0.24893  0  3.933572  0
C  C52  1  0.22942299  0.29605130  0.93547864  1  0  -0.11675  0  3.65823  0  0  -0.155459  0  3.914047  0  0  -0.153366  0  3.929602  0  0  -0.068423  -0.156575  0  3.903212  0
C  C53  1  0.46106358  0.20382524  0.56456231  1  0  -0.116353  0  3.659065  0  0  -0.155765  0  3.913966  0  0  -0.153636  0  3.929533  0  0  -0.069321  -0.156825  0  3.902921  0
C  C54  1  0.77058104  0.70394934  0.06451984  1  0  -0.116728  0  3.65823  0  0  -0.155448  0  3.914015  0  0  -0.153363  0  3.929571  0  0  -0.068431  -0.156549  0  3.903196  0
C  C55  1  0.53893397  0.79617641  0.43543981  1  0  -0.116295  0  3.658969  0  0  -0.155755  0  3.913881  0  0  -0.153622  0  3.929445  0  0  -0.069345  -0.156822  0  3.902845  0
C  C56  1  0.27934781  0.17572328  0.90488319  1  0  -0.055388  0  3.740066  0  0  -0.029807  0  3.975777  0  0  -0.038466  0  3.997475  0  0  -0.005078  -0.02403  0  3.960124  0
C  C57  1  0.35997091  0.32412806  0.59517703  1  0  -0.056728  0  3.738143  0  0  -0.031285  0  3.974023  0  0  -0.039931  0  3.995715  0  0  -0.00581  -0.025499  0  3.958335  0
C  C58  1  0.72065504  0.82427631  0.09511600  1  0  -0.05534  0  3.740027  0  0  -0.029775  0  3.975742  0  0  -0.038436  0  3.997446  0  0  -0.005108  -0.024003  0  3.960097  0
C  C59  1  0.64002884  0.67587360  0.40482287  1  0  -0.056847  0  3.738158  0  0  -0.031371  0  3.974054  0  0  -0.040018  0  3.995749  0  0  -0.005784  -0.025581  0  3.958366  0
C  C60  1  0.44038913  0.10510542  0.87405730  1  0  -0.052837  0  3.667814  0  0  -0.094239  0  3.921473  0  0  -0.091317  0  3.93991  0  0  -0.064254  -0.095521  0  3.908655  0
C  C61  1  0.41961210  0.39469811  0.62603718  1  0  -0.052866  0  3.664667  0  0  -0.093784  0  3.91826  0  0  -0.090828  0  3.936656  0  0  -0.063927  -0.095064  0  3.905426  0
C  C62  1  0.55961480  0.89489523  0.12594015  1  0  -0.052879  0  3.667766  0  0  -0.094295  0  3.921449  0  0  -0.091369  0  3.93989  0  0  -0.06429  -0.095571  0  3.908622  0
C  C63  1  0.58038775  0.60530354  0.37396373  1  0  -0.052847  0  3.664706  0  0  -0.093774  0  3.918315  0  0  -0.090822  0  3.936715  0  0  -0.063941  -0.095056  0  3.905472  0
C  C64  1  0.15637185  0.12061641  0.91442351  1  0  0.719399  0  3.852086  0  0  0.669618  0  4.14461  0  0  0.705006  0  4.13685  0  0  0.242909  0.645889  0  4.151532  0
C  C65  1  0.19146916  0.37928988  0.58556208  1  0  0.719592  0  3.847873  0  0  0.669818  0  4.140257  0  0  0.705141  0  4.132495  0  0  0.242652  0.646095  0  4.147177  0
C  C66  1  0.84363297  0.87938214  0.08557546  1  0  0.719275  0  3.852081  0  0  0.669539  0  4.144536  0  0  0.704925  0  4.136782  0  0  0.242894  0.645811  0  4.151457  0
C  C67  1  0.80852864  0.62070964  0.41444332  1  0  0.719719  0  3.847945  0  0  0.669911  0  4.140372  0  0  0.705234  0  4.132613  0  0  0.242643  0.646183  0  4.147299  0
C  C68  1  0.44070866  0.72260803  0.82567046  1  0  0.558305  0  3.949081  0  0  0.51852  0  4.242094  0  0  0.548061  0  4.237553  0  0  0.216969  0.498174  0  4.248464  0
C  C69  1  0.98899537  0.77736945  0.67432104  1  0  0.559484  0  3.944283  0  0  0.518968  0  4.237785  0  0  0.548472  0  4.233288  0  0  0.216392  0.498653  0  4.244125  0
C  C70  1  0.55928627  0.27738527  0.17433165  1  0  0.558162  0  3.949421  0  0  0.518347  0  4.242422  0  0  0.547893  0  4.237878  0  0  0.216869  0.497999  0  4.248792  0
C  C71  1  0.01100309  0.22262909  0.32567875  1  0  0.55956  0  3.944101  0  0  0.519062  0  4.237576  0  0  0.548567  0  4.23308  0  0  0.216488  0.498748  0  4.243909  0
C  C72  1  0.45739868  0.82574957  0.70644011  1  0  0.590149  0  3.874292  0  0  0.543453  0  4.170619  0  0  0.57359  0  4.164867  0  0  0.232957  0.522327  0  4.178338  0
C  C73  1  0.98974838  0.67421845  0.79352221  1  0  0.589473  0  3.874868  0  0  0.544105  0  4.169367  0  0  0.574223  0  4.16369  0  0  0.233742  0.522959  0  4.177072  0
C  C74  1  0.54259617  0.17424683  0.29356462  1  0  0.590014  0  3.874347  0  0  0.543428  0  4.170519  0  0  0.573562  0  4.164772  0  0  0.232936  0.522301  0  4.178235  0
C  C75  1  0.01025355  0.32578115  0.20647568  1  0  0.589618  0  3.874726  0  0  0.544241  0  4.169232  0  0  0.57436  0  4.163552  0  0  0.23378  0.523104  0  4.176918  0
N  N76  1  0.28284520  0.46610001  0.97282698  1  0  -0.535508  0  3.202082  0  0  -0.484673  0  3.398128  0  0  -0.49904  0  3.392604  0  0  -0.587702  -0.474665  0  3.401373  0
N  N77  1  0.72184937  0.03381914  0.52718955  1  0  -0.534281  0  3.201307  0  0  -0.484477  0  3.397391  0  0  -0.498948  0  3.391816  0  0  -0.588394  -0.474427  0  3.400669  0
N  N78  1  0.71715609  0.53389957  0.02717266  1  0  -0.535558  0  3.2022  0  0  -0.484695  0  3.398283  0  0  -0.499061  0  3.392759  0  0  -0.587701  -0.474689  0  3.401529  0
N  N79  1  0.27814726  0.96618252  0.47281127  1  0  -0.534306  0  3.201331  0  0  -0.484544  0  3.397411  0  0  -0.499017  0  3.391838  0  0  -0.588423  -0.474486  0  3.400686  0
O  O80  1  0.82050225  0.12044194  0.85686378  1  0  -0.712354  0  2.069898  0  0  -0.646921  0  2.304518  0  0  -0.677875  0  2.295531  0  0  -0.371703  -0.62934  0  2.309923  0
O  O81  1  0.79783314  0.37955653  0.64309980  1  0  -0.712512  0  2.070016  0  0  -0.647606  0  2.304837  0  0  -0.678499  0  2.295845  0  0  -0.371737  -0.629981  0  2.310272  0
O  O82  1  0.17950064  0.87955974  0.14313520  1  0  -0.71233  0  2.069978  0  0  -0.646888  0  2.304603  0  0  -0.677844  0  2.295616  0  0  -0.371702  -0.629311  0  2.310012  0
O  O83  1  0.20216846  0.62044201  0.35689907  1  0  -0.712495  0  2.07005  0  0  -0.647579  0  2.304866  0  0  -0.678474  0  2.295873  0  0  -0.371717  -0.629956  0  2.310303  0
O  O84  1  0.77430538  0.96091760  0.82642951  1  0  -0.680057  0  1.942434  0  0  -0.633849  0  2.175023  0  0  -0.663887  0  2.16973  0  0  -0.359236  -0.61595  0  2.17745  0
O  O85  1  0.56158486  0.53893739  0.67369471  1  0  -0.680618  0  1.943791  0  0  -0.634439  0  2.175731  0  0  -0.664512  0  2.170644  0  0  -0.360482  -0.616521  0  2.178181  0
O  O86  1  0.22569605  0.03908306  0.17356710  1  0  -0.68005  0  1.9426  0  0  -0.633819  0  2.17519  0  0  -0.663859  0  2.169898  0  0  -0.359191  -0.615921  0  2.177613  0
O  O87  1  0.43841603  0.46106323  0.32630469  1  0  -0.680589  0  1.943782  0  0  -0.634413  0  2.175697  0  0  -0.664487  0  2.170607  0  0  -0.360471  -0.616496  0  2.178147  0
O  O88  1  0.02636094  0.15310138  0.98532649  1  0  -0.758601  0  2.038612  0  0  -0.702711  0  2.295091  0  0  -0.73412  0  2.279491  0  0  -0.391646  -0.686521  0  2.304746  0
O  O89  1  0.16487241  0.34680310  0.51465075  1  0  -0.757856  0  2.035034  0  0  -0.70209  0  2.291339  0  0  -0.733355  0  2.275755  0  0  -0.389891  -0.68588  0  2.300982  0
O  O90  1  0.97364412  0.84689822  0.01467047  1  0  -0.758525  0  2.038514  0  0  -0.702642  0  2.29495  0  0  -0.734047  0  2.279353  0  0  -0.391645  -0.686452  0  2.304601  0
O  O91  1  0.83512195  0.65319744  0.48535635  1  0  -0.757889  0  2.035156  0  0  -0.702132  0  2.291515  0  0  -0.733397  0  2.275931  0  0  -0.389874  -0.685913  0  2.301159  0
O  O92  1  0.18694705  0.04773961  0.85365791  1  0  -0.692582  0  2.007607  0  0  -0.644315  0  2.262168  0  0  -0.676176  0  2.248702  0  0  -0.377269  -0.627339  0  2.269123  0
O  O93  1  0.08837201  0.45219882  0.64629483  1  0  -0.693278  0  2.007004  0  0  -0.645177  0  2.261429  0  0  -0.676974  0  2.248096  0  0  -0.378345  -0.628087  0  2.268253  0
O  O94  1  0.81306014  0.95225685  0.14634109  1  0  -0.692538  0  2.007664  0  0  -0.644284  0  2.262208  0  0  -0.676149  0  2.248743  0  0  -0.377266  -0.627309  0  2.269163  0
O  O95  1  0.91162878  0.54779964  0.35371269  1  0  -0.693281  0  2.007026  0  0  -0.645166  0  2.261468  0  0  -0.67695  0  2.248103  0  0  -0.378357  -0.628079  0  2.268286  0
O  O96  1  0.33033924  0.90947467  0.67445714  1  0  -0.655801  0  2.08531  0  0  -0.599957  0  2.328666  0  0  -0.630085  0  2.318485  0  0  -0.345604  -0.58353  0  2.335111  0
O  O97  1  0.91449519  0.59044536  0.82551624  1  0  -0.655158  0  2.085089  0  0  -0.599374  0  2.327451  0  0  -0.629433  0  2.317346  0  0  -0.344529  -0.582863  0  2.333848  0
O  O98  1  0.66965505  0.09051860  0.32554674  1  0  -0.655749  0  2.085289  0  0  -0.599976  0  2.328621  0  0  -0.630104  0  2.318438  0  0  -0.345609  -0.58355  0  2.335061  0
O  O99  1  0.08550093  0.40955735  0.17448331  1  0  -0.655269  0  2.085201  0  0  -0.599523  0  2.327594  0  0  -0.629584  0  2.317482  0  0  -0.344604  -0.58302  0  2.333988  0
O  O100  1  0.30296111  0.74126586  0.88592724  1  0  -0.654021  0  2.048256  0  0  -0.607864  0  2.294764  0  0  -0.636261  0  2.283762  0  0  -0.363947  -0.592331  0  2.300941  0
O  O101  1  0.93014643  0.75860765  0.61413031  1  0  -0.653141  0  2.045421  0  0  -0.606751  0  2.291986  0  0  -0.63509  0  2.281074  0  0  -0.36297  -0.591199  0  2.298118  0
O  O102  1  0.69703343  0.25872848  0.11407463  1  0  -0.653926  0  2.048391  0  0  -0.607756  0  2.294933  0  0  -0.636156  0  2.283928  0  0  -0.363897  -0.592225  0  2.301111  0
O  O103  1  0.06985894  0.24139092  0.38586588  1  0  -0.653172  0  2.045364  0  0  -0.606804  0  2.291963  0  0  -0.635147  0  2.281049  0  0  -0.363002  -0.591261  0  2.298098  0
O  O104  1  0.56597576  0.62659526  0.85198767  1  0  -0.667058  0  2.023656  0  0  -0.622504  0  2.269575  0  0  -0.65143  0  2.259087  0  0  -0.350347  -0.606488  0  2.275624  0
O  O105  1  0.04441452  0.87347090  0.64797022  1  0  -0.668437  0  2.022861  0  0  -0.623655  0  2.269107  0  0  -0.652636  0  2.258668  0  0  -0.350448  -0.607675  0  2.27513  0
O  O106  1  0.43401733  0.37340115  0.14801547  1  0  -0.666992  0  2.023764  0  0  -0.622461  0  2.269724  0  0  -0.65139  0  2.259238  0  0  -0.350299  -0.606448  0  2.275774  0
O  O107  1  0.95558574  0.12652870  0.35202710  1  0  -0.668492  0  2.022864  0  0  -0.623713  0  2.269115  0  0  -0.652696  0  2.258673  0  0  -0.3505  -0.607738  0  2.275134  0
O  O108  1  0.59599635  0.81741959  0.64947604  1  0  -0.676322  0  2.090087  0  0  -0.624457  0  2.334984  0  0  -0.653421  0  2.324022  0  0  -0.350499  -0.608749  0  2.341993  0
O  O109  1  0.06308181  0.68253716  0.85047043  1  0  -0.677466  0  2.090667  0  0  -0.626116  0  2.334872  0  0  -0.655133  0  2.323932  0  0  -0.352535  -0.610453  0  2.341905  0
O  O110  1  0.40399968  0.18258095  0.35053162  1  0  -0.676231  0  2.090143  0  0  -0.624383  0  2.334969  0  0  -0.653346  0  2.324011  0  0  -0.350479  -0.60868  0  2.341976  0
O  O111  1  0.93691502  0.31746347  0.14952859  1  0  -0.677529  0  2.090512  0  0  -0.626155  0  2.334715  0  0  -0.655175  0  2.323771  0  0  -0.352512  -0.610498  0  2.341744  0
O  O112  1  0.03633572  0.14125066  0.65196309  1  0  -0.911557  0  1.842114  0  0  -0.864811  0  2.041066  0  0  -0.889467  0  2.00457  0  0  -0.650636  -0.852073  0  2.063525  0
O  O113  1  0.82947923  0.35869951  0.84806341  1  0  -0.911639  0  1.841952  0  0  -0.864629  0  2.040704  0  0  -0.889194  0  2.004272  0  0  -0.651422  -0.851854  0  2.06316  0
O  O114  1  0.96366390  0.85874893  0.34803599  1  0  -0.911564  0  1.842095  0  0  -0.864813  0  2.041045  0  0  -0.889475  0  2.004552  0  0  -0.650621  -0.852079  0  2.063504  0
O  O115  1  0.17051902  0.64130006  0.15193818  1  0  -0.911618  0  1.841964  0  0  -0.864613  0  2.040719  0  0  -0.889179  0  2.004289  0  0  -0.651417  -0.851846  0  2.06317  0
