# generated using pymatgen
data_CdH8C4(N2Cl)2
_symmetry_space_group_name_H-M   'P 1'
_cell_length_a   9.13992460
_cell_length_b   9.14034388
_cell_length_c   10.56762606
_cell_angle_alpha   90.40298443
_cell_angle_beta   90.40323176
_cell_angle_gamma   91.92685641
_symmetry_Int_Tables_number   1
_chemical_formula_structural   CdH8C4(N2Cl)2
_chemical_formula_sum   'Cd4 H32 C16 N16 Cl8'
_cell_volume   882.29680171
_cell_formula_units_Z   4
loop_
 _symmetry_equiv_pos_site_id
 _symmetry_equiv_pos_as_xyz
  1  'x, y, z'
loop_
 _atom_site_type_symbol
 _atom_site_label
 _atom_site_symmetry_multiplicity
 _atom_site_fract_x
 _atom_site_fract_y
 _atom_site_fract_z
 _atom_site_occupancy
 _atom_site_pbe_bader_spin_density
 _atom_site_pbe_cm5_charge
 _atom_site_pbe_ddec_charge
 _atom_site_pbe_ddec_spin_density
 _atom_site_pbe_ddec_sum_bond_order
 _atom_site_pbe_magmom
Cd  Cd0  1  0.69467095  0.30535728  0.74997746  1  0  0.592645  0.72361  0  2.528908  0
Cd  Cd1  1  0.30536068  0.69466175  0.24997448  1  0  0.592633  0.723594  0  2.528837  0
Cd  Cd2  1  0.50000180  0.50000452  0.49998504  1  0  0.618285  0.77724  0  2.476541  0
Cd  Cd3  1  0.49998142  0.49997947  0.99998459  1  0  0.618233  0.777346  0  2.476191  0
H  H4  1  0.59145749  0.96239109  0.77190320  1  0  0.098269  0.158307  0  1.003204  0
H  H5  1  0.03770535  0.40859321  0.72814059  1  0  0.098197  0.158249  0  1.003402  0
H  H6  1  0.40860236  0.03768378  0.22810327  1  0  0.098152  0.158156  0  1.003258  0
H  H7  1  0.96236826  0.59142831  0.27191243  1  0  0.098283  0.158292  0  1.00342  0
H  H8  1  0.47821235  0.82831737  0.69144947  1  0  0.090994  0.14613  0  1.031327  0
H  H9  1  0.17173241  0.52181084  0.80856724  1  0  0.090869  0.145884  0  1.031562  0
H  H10  1  0.52184909  0.17173131  0.30855617  1  0  0.090828  0.14579  0  1.031448  0
H  H11  1  0.82827214  0.47822812  0.19150683  1  0  0.090935  0.146105  0  1.031373  0
H  H12  1  0.40762999  0.92853548  0.81955745  1  0  0.09516  0.16524  0  0.999925  0
H  H13  1  0.07151163  0.59236743  0.68047794  1  0  0.09522  0.165137  0  1.000255  0
H  H14  1  0.59240865  0.07149769  0.18044172  1  0  0.095114  0.165041  0  1.000327  0
H  H15  1  0.92853356  0.40764818  0.31957239  1  0  0.095152  0.165208  0  1.000231  0
H  H16  1  0.26064823  0.83315893  0.57336299  1  0  0.28736  0.261832  0  1.002143  0
H  H17  1  0.16677600  0.73941904  0.92633555  1  0  0.287506  0.261954  0  1.002204  0
H  H18  1  0.73943548  0.16679795  0.42632305  1  0  0.287522  0.262199  0  1.001877  0
H  H19  1  0.83314548  0.26067738  0.07337709  1  0  0.287388  0.261765  0  1.002048  0
H  H20  1  0.16434769  0.93024786  0.47637239  1  0  0.284955  0.26039  0  1.013243  0
H  H21  1  0.06995756  0.83538484  0.02379486  1  0  0.284563  0.260228  0  1.013372  0
H  H22  1  0.83539876  0.06996056  0.52380427  1  0  0.28452  0.260174  0  1.013468  0
H  H23  1  0.93022424  0.16431409  0.97641903  1  0  0.284892  0.260497  0  1.013116  0
H  H24  1  0.21898869  0.31574404  0.37433942  1  0  0.093291  0.154544  0  1.025325  0
H  H25  1  0.68420021  0.78099035  0.12564002  1  0  0.093229  0.154398  0  1.025178  0
H  H26  1  0.78101346  0.68424112  0.62564971  1  0  0.093352  0.154591  0  1.025168  0
H  H27  1  0.31569941  0.21892951  0.87437065  1  0  0.093218  0.154421  0  1.025105  0
H  H28  1  0.08712832  0.23773882  0.47903644  1  0  0.101604  0.161884  0  0.979278  0
H  H29  1  0.76224064  0.91282964  0.02094188  1  0  0.101483  0.161631  0  0.979475  0
H  H30  1  0.91284856  0.76226385  0.52097070  1  0  0.101557  0.161699  0  0.979401  0
H  H31  1  0.23769117  0.08712474  0.97906756  1  0  0.101475  0.161613  0  0.979633  0
H  H32  1  0.15996489  0.12711184  0.35667133  1  0  0.087944  0.154178  0  1.044811  0
H  H33  1  0.87283351  0.84002767  0.14331684  1  0  0.087934  0.154023  0  1.044733  0
H  H34  1  0.84003475  0.87283605  0.64332270  1  0  0.087947  0.154131  0  1.044893  0
H  H35  1  0.12710557  0.15993331  0.85674837  1  0  0.087906  0.153995  0  1.04515  0
C  C36  1  0.43465655  0.05252251  0.65022757  1  0  0.22468  0.30344  0  3.963587  0
C  C37  1  0.94749277  0.56532789  0.84974178  1  0  0.224625  0.303081  0  3.964422  0
C  C38  1  0.56534821  0.94747997  0.34973781  1  0  0.224583  0.303258  0  3.963738  0
C  C39  1  0.05251062  0.43466527  0.15026813  1  0  0.224587  0.303176  0  3.964519  0
C  C40  1  0.30598849  0.17611713  0.51165710  1  0  0.230734  0.314567  0  3.944483  0
C  C41  1  0.82391889  0.69401356  0.98829830  1  0  0.230879  0.314832  0  3.944173  0
C  C42  1  0.69401676  0.82392268  0.48831569  1  0  0.230943  0.315028  0  3.944325  0
C  C43  1  0.17607115  0.30594965  0.01173356  1  0  0.230967  0.315138  0  3.944559  0
C  C44  1  0.48016593  0.93662322  0.73720402  1  0  -0.238147  -0.463192  0  3.921523  0
C  C45  1  0.06342181  0.51986198  0.76281814  1  0  -0.23789  -0.462546  0  3.922389  0
C  C46  1  0.51988572  0.06341609  0.26279413  1  0  -0.237651  -0.462306  0  3.921757  0
C  C47  1  0.93660239  0.48015568  0.23722281  1  0  -0.238007  -0.462987  0  3.922458  0
C  C48  1  0.18660214  0.21579549  0.42477682  1  0  -0.237395  -0.464436  0  3.908902  0
C  C49  1  0.78418296  0.81335847  0.07520269  1  0  -0.237199  -0.463794  0  3.908317  0
C  C50  1  0.81336134  0.78420177  0.57520579  1  0  -0.237435  -0.464271  0  3.908951  0
C  C51  1  0.21575358  0.18660762  0.92484547  1  0  -0.237199  -0.463965  0  3.909141  0
N  N52  1  0.50102154  0.18264885  0.63365185  1  0  -0.254695  -0.267497  0  3.468308  0
N  N53  1  0.81736275  0.49895600  0.86633918  1  0  -0.254605  -0.267335  0  3.468348  0
N  N54  1  0.49898793  0.81734417  0.36632396  1  0  -0.254711  -0.267545  0  3.468661  0
N  N55  1  0.18263637  0.50102590  0.13366322  1  0  -0.254682  -0.267461  0  3.468762  0
N  N56  1  0.31313859  0.04537523  0.57353916  1  0  -0.137341  0.073567  0  3.72807  0
N  N57  1  0.95466063  0.68681448  0.92645555  1  0  -0.13768  0.073892  0  3.728512  0
N  N58  1  0.68684838  0.95466058  0.42645171  1  0  -0.137783  0.073359  0  3.727997  0
N  N59  1  0.04531287  0.31315555  0.07357824  1  0  -0.137757  0.073476  0  3.728128  0
N  N60  1  0.42166604  0.25872383  0.54737147  1  0  -0.254806  -0.259706  0  3.469419  0
N  N61  1  0.74131769  0.57832607  0.95262661  1  0  -0.254725  -0.26013  0  3.469677  0
N  N62  1  0.57835509  0.74129506  0.45261081  1  0  -0.254681  -0.259846  0  3.469542  0
N  N63  1  0.25868081  0.42163953  0.04738722  1  0  -0.254632  -0.259935  0  3.469958  0
N  N64  1  0.20796940  0.93051128  0.56672995  1  0  -0.490672  -0.470806  0  3.098011  0
N  N65  1  0.06945004  0.79203265  0.93332145  1  0  -0.490449  -0.471145  0  3.098073  0
N  N66  1  0.79208072  0.06947503  0.43331953  1  0  -0.490285  -0.471088  0  3.097548  0
N  N67  1  0.93047573  0.20795755  0.06677114  1  0  -0.490535  -0.470938  0  3.098025  0
Cl  Cl68  1  0.76858063  0.41043003  0.52850816  1  0  -0.276121  -0.461678  0  1.325771  0
Cl  Cl69  1  0.58957642  0.23141924  0.97144787  1  0  -0.276076  -0.461735  0  1.325875  0
Cl  Cl70  1  0.23144192  0.58962163  0.47146451  1  0  -0.27607  -0.461691  0  1.325875  0
Cl  Cl71  1  0.41041534  0.76855149  0.02848647  1  0  -0.276094  -0.46165  0  1.325797  0
Cl  Cl72  1  0.47286324  0.52716185  0.74998837  1  0  -0.304832  -0.498446  0  1.388175  0
Cl  Cl73  1  0.52715355  0.47285240  0.24999111  1  0  -0.304784  -0.498332  0  1.388133  0
Cl  Cl74  1  0.88730007  0.11272939  0.74997692  1  0  -0.317857  -0.535929  0  1.18509  0
Cl  Cl75  1  0.11274081  0.88730848  0.24995692  1  0  -0.317814  -0.535898  0  1.185068  0
