# generated using pymatgen
data_CdH24C26(NO4)2
_symmetry_space_group_name_H-M   'P 1'
_cell_length_a   5.58433845
_cell_length_b   13.87004215
_cell_length_c   15.52000000
_cell_angle_alpha   90.00000000
_cell_angle_beta   90.00000000
_cell_angle_gamma   96.87521092
_symmetry_Int_Tables_number   1
_chemical_formula_structural   CdH24C26(NO4)2
_chemical_formula_sum   'Cd2 H48 C52 N4 O16'
_cell_volume   1193.45770936
_cell_formula_units_Z   2
loop_
 _symmetry_equiv_pos_site_id
 _symmetry_equiv_pos_as_xyz
  1  'x, y, z'
loop_
 _atom_site_type_symbol
 _atom_site_label
 _atom_site_symmetry_multiplicity
 _atom_site_fract_x
 _atom_site_fract_y
 _atom_site_fract_z
 _atom_site_occupancy
 _atom_site_hle17_bader_spin_density
 _atom_site_hle17_ddec_charge
 _atom_site_hle17_ddec_spin_density
 _atom_site_hle17_ddec_sum_bond_order
 _atom_site_hle17_magmom
 _atom_site_hse06_10hf_bader_spin_density
 _atom_site_hse06_10hf_ddec_charge
 _atom_site_hse06_10hf_ddec_spin_density
 _atom_site_hse06_10hf_ddec_sum_bond_order
 _atom_site_hse06_10hf_magmom
 _atom_site_hse06_bader_spin_density
 _atom_site_hse06_ddec_charge
 _atom_site_hse06_ddec_spin_density
 _atom_site_hse06_ddec_sum_bond_order
 _atom_site_hse06_magmom
 _atom_site_pbe_bader_charge
 _atom_site_pbe_bader_spin_density
 _atom_site_pbe_cm5_charge
 _atom_site_pbe_ddec_charge
 _atom_site_pbe_ddec_spin_density
 _atom_site_pbe_ddec_sum_bond_order
 _atom_site_pbe_magmom
Cd  Cd0  1  0.20029113  0.21028364  0.64529446  1  0  1.137245  0  1.655739  0  0  0.948307  0  2.092023  0  0  1.00261  0  2.040899  0  1.273438  0  0.766739  0.909818  0  2.127013  0
Cd  Cd1  1  0.79971206  0.78971086  0.14529446  1  0  1.137157  0  1.65579  0  0  0.948214  0  2.092077  0  0  1.002522  0  2.040959  0  1.273429  0  0.766703  0.909722  0  2.127066  0
H  H2  1  0.89873627  0.44648391  0.67218170  1  0  0.087415  0  0.978692  0  0  0.09409  0  1.048434  0  0  0.096487  0  1.047524  0  0.096682  0  0.097828  0.092266  0  1.049248  0
H  H3  1  0.10123577  0.55351421  0.17218492  1  0  0.087383  0  0.978688  0  0  0.094074  0  1.0484  0  0  0.09647  0  1.047497  0  0.096677  0  0.097794  0.092265  0  1.049198  0
H  H4  1  0.13294932  0.61112223  0.66973776  1  0  0.119051  0  0.959233  0  0  0.124732  0  1.025666  0  0  0.128976  0  1.023562  0  0.114011  0  0.104709  0.121683  0  1.027339  0
H  H5  1  0.86703032  0.38887735  0.16974356  1  0  0.119077  0  0.959209  0  0  0.124758  0  1.025637  0  0  0.128981  0  1.023559  0  0.113998  0  0.104722  0.121708  0  1.027312  0
H  H6  1  0.56232544  0.72435864  0.81146263  1  0  0.105585  0  0.967324  0  0  0.114583  0  1.032293  0  0  0.118294  0  1.030094  0  0.07596  0  0.102461  0.111974  0  1.033886  0
H  H7  1  0.43767362  0.27564602  0.31146134  1  0  0.105599  0  0.967345  0  0  0.114626  0  1.032292  0  0  0.118338  0  1.030091  0  0.07603  0  0.102505  0.112015  0  1.033884  0
H  H8  1  0.32987656  0.56079437  0.80896263  1  0  0.087572  0  0.992409  0  0  0.096528  0  1.058329  0  0  0.099321  0  1.05647  0  0.065654  0  0.09974  0.094529  0  1.059649  0
H  H9  1  0.67010659  0.43921102  0.30895619  1  0  0.087541  0  0.992577  0  0  0.096536  0  1.058463  0  0  0.099325  0  1.056579  0  0.065836  0  0.099713  0.094538  0  1.059783  0
H  H10  1  0.88977280  0.81935508  0.85924098  1  0  0.072198  0  0.918843  0  0  0.085985  0  0.980829  0  0  0.086399  0  0.979959  0  0.072879  0  0.10726  0.085643  0  0.981502  0
H  H11  1  0.11021206  0.18063796  0.35924162  1  0  0.072196  0  0.91885  0  0  0.085993  0  0.980838  0  0  0.086402  0  0.979969  0  0.07242  0  0.107284  0.085654  0  0.981508  0
H  H12  1  0.77066871  0.86169110  0.76095812  1  0  0.061071  0  0.940578  0  0  0.072152  0  1.009992  0  0  0.071955  0  1.010716  0  0.059418  0  0.103646  0.072233  0  1.009598  0
H  H13  1  0.22932239  0.13830484  0.26095232  1  0  0.060999  0  0.940557  0  0  0.072095  0  1.009978  0  0  0.071893  0  1.010699  0  0.05945  0  0.103642  0.072177  0  1.009585  0
H  H14  1  0.94668013  0.00933676  0.70023905  1  0  0.082187  0  0.977319  0  0  0.086957  0  1.049716  0  0  0.088855  0  1.049209  0  0.111017  0  0.113643  0.085501  0  1.05021  0
H  H15  1  0.05331047  0.99066355  0.20023389  1  0  0.082142  0  0.977364  0  0  0.086955  0  1.049732  0  0  0.088857  0  1.049218  0  0.111257  0  0.113626  0.085499  0  1.050226  0
H  H16  1  0.60872277  0.14829082  0.78033183  1  0  0.091864  0  0.965801  0  0  0.099908  0  1.030505  0  0  0.102778  0  1.027507  0  0.13793  0  0.116158  0.097754  0  1.032772  0
H  H17  1  0.39126631  0.85170440  0.28033247  1  0  0.091905  0  0.965724  0  0  0.099977  0  1.030395  0  0  0.102849  0  1.02739  0  0.137516  0  0.116239  0.097822  0  1.032663  0
H  H18  1  0.67365022  0.01087775  0.87874227  1  0  0.122467  0  0.976869  0  0  0.130547  0  1.036814  0  0  0.134404  0  1.035316  0  0.143414  0  0.110159  0.127764  0  1.038078  0
H  H19  1  0.32633658  0.98912182  0.37873905  1  0  0.122387  0  0.976943  0  0  0.130515  0  1.036835  0  0  0.134373  0  1.035337  0  0.143392  0  0.110149  0.127731  0  1.038099  0
H  H20  1  0.36116703  0.86609623  0.88480541  1  0  0.101671  0  0.935437  0  0  0.115728  0  0.991402  0  0  0.118663  0  0.989091  0  0.087194  0  0.110467  0.113526  0  0.993218  0
H  H21  1  0.63882063  0.13390625  0.38479510  1  0  0.101704  0  0.935512  0  0  0.115772  0  0.991454  0  0  0.118705  0  0.989142  0  0.087072  0  0.110489  0.11357  0  0.993268  0
H  H22  1  0.50323337  0.97890201  0.61503093  1  0  0.083619  0  0.977691  0  0  0.09126  0  1.046304  0  0  0.093809  0  1.045056  0  0.082767  0  0.096646  0.089374  0  1.047344  0
H  H23  1  0.49678967  0.02109902  0.11502448  1  0  0.083544  0  0.977665  0  0  0.091172  0  1.046322  0  0  0.093722  0  1.04507  0  0.082774  0  0.096617  0.089286  0  1.047362  0
H  H24  1  0.25197063  0.81809439  0.61261856  1  0  0.117906  0  0.958905  0  0  0.122291  0  1.027587  0  0  0.126575  0  1.025524  0  0.128926  0  0.102597  0.119231  0  1.029158  0
H  H25  1  0.74804547  0.18190736  0.11261276  1  0  0.117858  0  0.958938  0  0  0.122261  0  1.02762  0  0  0.126541  0  1.025557  0  0.128753  0  0.102557  0.119201  0  1.029192  0
H  H26  1  0.76615892  0.71024421  0.43987887  1  0  0.111526  0  0.976829  0  0  0.120514  0  1.040585  0  0  0.124242  0  1.038464  0  0.102296  0  0.102464  0.117869  0  1.04219  0
H  H27  1  0.23385458  0.28974883  0.93987242  1  0  0.111457  0  0.976883  0  0  0.120472  0  1.040603  0  0  0.124202  0  1.03848  0  0.102369  0  0.102468  0.117835  0  1.042197  0
H  H28  1  0.01178967  0.86970908  0.44324936  1  0  0.099801  0  0.942786  0  0  0.111024  0  1.001133  0  0  0.114363  0  0.998603  0  0.096115  0  0.104692  0.108586  0  1.00305  0
H  H29  1  0.98822069  0.13028541  0.94324936  1  0  0.09982  0  0.942729  0  0  0.11099  0  1.001147  0  0  0.114338  0  0.998595  0  0.096108  0  0.104704  0.108552  0  1.003063  0
H  H30  1  0.59941913  0.57097715  0.52368170  1  0  0.062068  0  0.93595  0  0  0.074361  0  1.003598  0  0  0.074277  0  1.004214  0  0.066705  0  0.103257  0.074425  0  1.003208  0
H  H31  1  0.40059595  0.42901516  0.02367204  1  0  0.061947  0  0.9359  0  0  0.074233  0  1.003571  0  0  0.074148  0  1.004189  0  0.066793  0  0.103137  0.074296  0  1.003182  0
H  H32  1  0.47713599  0.60035631  0.42208441  1  0  0.07363  0  0.950468  0  0  0.085531  0  1.015063  0  0  0.085592  0  1.014958  0  0.081532  0  0.10605  0.085437  0  1.015268  0
H  H33  1  0.52287381  0.39964835  0.92208247  1  0  0.073568  0  0.950552  0  0  0.085478  0  1.015121  0  0  0.085539  0  1.015021  0  0.081593  0  0.106053  0.085383  0  1.015324  0
H  H34  1  0.98421638  0.55404579  0.41081250  1  0  0.118097  0  0.9342  0  0  0.129688  0  0.991805  0  0  0.13298  0  0.988998  0  0.132268  0  0.115451  0.127222  0  0.993976  0
H  H35  1  0.01579907  0.44595379  0.91081443  1  0  0.118124  0  0.934187  0  0  0.129688  0  0.991806  0  0  0.132981  0  0.988996  0  0.132267  0  0.115485  0.127221  0  0.993978  0
H  H36  1  0.68187283  0.40702291  0.43104188  1  0  0.099158  0  0.978262  0  0  0.111411  0  1.034395  0  0  0.113572  0  1.035121  0  0.08727  0  0.107354  0.109847  0  1.034073  0
H  H37  1  0.31813611  0.59297884  0.93104639  1  0  0.099249  0  0.978106  0  0  0.111516  0  1.034219  0  0  0.113678  0  1.034945  0  0.086908  0  0.107413  0.109953  0  1.033894  0
H  H38  1  0.78243507  0.27239046  0.52357603  1  0  0.092117  0  0.97381  0  0  0.100043  0  1.039979  0  0  0.102975  0  1.036736  0  0.154347  0  0.115686  0.097861  0  1.042346  0
H  H39  1  0.21757050  0.72761202  0.02358312  1  0  0.092205  0  0.97364  0  0  0.100079  0  1.039896  0  0  0.103015  0  1.03665  0  0.154347  0  0.115698  0.097896  0  1.042265  0
H  H40  1  0.45225027  0.41945401  0.58369974  1  0  0.079306  0  0.983027  0  0  0.084276  0  1.056391  0  0  0.085999  0  1.056011  0  0.127626  0  0.113235  0.083  0  1.056685  0
H  H41  1  0.54774262  0.58054194  0.08369781  1  0  0.079335  0  0.982984  0  0  0.084286  0  1.056371  0  0  0.086018  0  1.055968  0  0.12761  0  0.113249  0.083016  0  1.056647  0
H  H42  1  0.79104854  0.28575545  0.72858119  1  0  0.416859  0  0.889046  0  0  0.385517  0  0.954017  0  0  0.396182  0  0.938634  0  0.652974  0  0.282371  0.377977  0  0.964872  0
H  H43  1  0.20895274  0.71425066  0.22858247  1  0  0.416897  0  0.889012  0  0  0.385543  0  0.954006  0  0  0.396209  0  0.938622  0  0.653679  0  0.282384  0.378002  0  0.964862  0
H  H44  1  0.05086204  0.30619581  0.77526031  1  0  0.409936  0  0.906642  0  0  0.376967  0  0.974207  0  0  0.38905  0  0.956772  0  0.65099  0  0.276498  0.368474  0  0.986431  0
H  H45  1  0.94913551  0.69380376  0.27525838  1  0  0.409919  0  0.906676  0  0  0.37694  0  0.974266  0  0  0.389024  0  0.956831  0  0.651017  0  0.276482  0.368443  0  0.986495  0
H  H46  1  0.59662345  0.13373559  0.55864948  1  0  0.414354  0  0.894009  0  0  0.382825  0  0.959937  0  0  0.393607  0  0.944405  0  0.626663  0  0.28175  0.375197  0  0.970904  0
H  H47  1  0.40337903  0.86626253  0.05864884  1  0  0.414246  0  0.894166  0  0  0.382762  0  0.960018  0  0  0.393544  0  0.944486  0  0.626678  0  0.281735  0.375134  0  0.970985  0
H  H48  1  0.33371577  0.11493499  0.51177899  1  0  0.408013  0  0.913285  0  0  0.373614  0  0.983773  0  0  0.385946  0  0.966098  0  0.631885  0  0.275397  0.364965  0  0.996133  0
H  H49  1  0.66629632  0.88506531  0.01177964  1  0  0.408041  0  0.913216  0  0  0.373646  0  0.983698  0  0  0.385977  0  0.966024  0  0.631907  0  0.275437  0.364996  0  0.996057  0
C  C50  1  0.45195140  0.39535723  0.75010567  1  0  0.642647  0  3.915458  0  0  0.588915  0  4.214469  0  0  0.624167  0  4.20549  0  1.525567  0  0.203245  0.565016  0  4.219904  0
C  C51  1  0.54804299  0.60464380  0.25010503  1  0  0.642478  0  3.915554  0  0  0.588847  0  4.214524  0  0  0.624095  0  4.205558  0  1.525097  0  0.203115  0.564948  0  4.219956  0
C  C52  1  0.60190037  0.49193098  0.74525387  1  0  -0.120524  0  3.803672  0  0  -0.100669  0  4.045641  0  0  -0.112565  0  4.070296  0  -0.089245  0  -0.042206  -0.093034  0  4.029058  0
C  C53  1  0.39808637  0.50807441  0.24525000  1  0  -0.120318  0  3.803362  0  0  -0.100658  0  4.045555  0  0  -0.11256  0  4.070219  0  -0.089182  0  -0.04214  -0.093023  0  4.028975  0
C  C54  1  0.82668254  0.50707225  0.70345103  1  0  -0.045226  0  3.757535  0  0  -0.068726  0  4.010768  0  0  -0.064888  0  4.030339  0  -0.106776  0  -0.08827  -0.070946  0  3.997491  0
C  C55  1  0.17330670  0.49292950  0.20345361  1  0  -0.045182  0  3.7575  0  0  -0.068611  0  4.010752  0  0  -0.064776  0  4.030326  0  -0.106875  0  -0.088216  -0.070848  0  3.99747  0
C  C56  1  0.95954090  0.59837015  0.70254059  1  0  -0.182816  0  3.72022  0  0  -0.202971  0  3.976259  0  0  -0.210337  0  3.994405  0  0.037917  0  -0.102598  -0.198211  0  3.964143  0
C  C57  1  0.04044096  0.40163088  0.20254124  1  0  -0.183066  0  3.720315  0  0  -0.203229  0  3.976394  0  0  -0.210577  0  3.994552  0  0.037831  0  -0.102722  -0.198467  0  3.964285  0
C  C58  1  0.87087462  0.67649696  0.74485245  1  0  0.288965  0  3.798204  0  0  0.280318  0  4.05201  0  0  0.293944  0  4.067302  0  0.47161  0  0.088662  0.271111  0  4.041478  0
C  C59  1  0.12911477  0.32351133  0.24485052  1  0  0.289128  0  3.798133  0  0  0.280485  0  4.051984  0  0  0.294115  0  4.067275  0  0.471435  0  0.088679  0.271277  0  4.041453  0
C  C60  1  0.64109341  0.66389956  0.78272745  1  0  -0.211756  0  3.764134  0  0  -0.230191  0  4.015432  0  0  -0.237857  0  4.034894  0  -0.056968  0  -0.112997  -0.225189  0  4.002298  0
C  C61  1  0.35889805  0.33610365  0.28272745  1  0  -0.211809  0  3.764141  0  0  -0.230264  0  4.015451  0  0  -0.237933  0  4.034914  0  -0.056604  0  -0.113025  -0.225263  0  4.002314  0
C  C62  1  0.51060510  0.57208679  0.78207732  1  0  -0.047494  0  3.788679  0  0  -0.071385  0  4.037838  0  0  -0.067589  0  4.057126  0  0.002883  0  -0.089859  -0.073557  0  4.024605  0
C  C63  1  0.48937605  0.42791787  0.28207152  1  0  -0.047464  0  3.788548  0  0  -0.071314  0  4.037731  0  0  -0.067503  0  4.057047  0  0.002568  0  -0.089818  -0.073484  0  4.024493  0
C  C64  1  0.93438428  0.84166105  0.79239175  1  0  0.053081  0  3.644072  0  0  -0.014429  0  3.909523  0  0  -0.005228  0  3.913868  0  0.412024  0  -0.05891  -0.02061  0  3.906444  0
C  C65  1  0.06562431  0.15835160  0.29238595  1  0  0.053165  0  3.643986  0  0  -0.014402  0  3.909448  0  0  -0.005176  0  3.913768  0  0.41245  0  -0.058972  -0.020588  0  3.906377  0
C  C66  1  0.13018002  0.92536725  0.79144523  1  0  0.021546  0  3.749612  0  0  0.044256  0  3.990986  0  0  0.039426  0  4.014489  0  0.02888  0  -0.006512  0.047156  0  3.975245  0
C  C67  1  0.86982928  0.07464177  0.29144330  1  0  0.021362  0  3.749646  0  0  0.044243  0  3.99083  0  0  0.03941  0  4.014324  0  0.029767  0  -0.006473  0.04714  0  3.975094  0
C  C68  1  0.10650474  0.00593160  0.74000322  1  0  0.078727  0  3.682558  0  0  0.043115  0  3.924767  0  0  0.048635  0  3.944793  0  0.456765  0  0.046738  0.039652  0  3.911147  0
C  C69  1  0.89349697  0.99407596  0.24000580  1  0  0.07886  0  3.682583  0  0  0.043157  0  3.924696  0  0  0.048677  0  3.944722  0  0.456243  0  0.046755  0.039692  0  3.911083  0
C  C70  1  0.47531004  0.08432710  0.78464111  1  0  0.130036  0  3.684065  0  0  0.097258  0  3.935553  0  0  0.104103  0  3.954251  0  0.462253  0  0.050153  0.092885  0  3.922804  0
C  C71  1  0.52466623  0.91567320  0.28463918  1  0  0.130081  0  3.683798  0  0  0.097253  0  3.935339  0  0  0.104102  0  3.95403  0  0.462533  0  0.050028  0.092881  0  3.92259  0
C  C72  1  0.51256251  0.00719882  0.83857732  1  0  -0.119382  0  3.721136  0  0  -0.129978  0  3.973989  0  0  -0.137962  0  3.99686  0  0.022127  0  -0.080526  -0.124847  0  3.95865  0
C  C73  1  0.48742271  0.99280148  0.33856894  1  0  -0.119385  0  3.72121  0  0  -0.130024  0  3.974114  0  0  -0.138013  0  3.996986  0  0.022141  0  -0.080527  -0.124893  0  3.958776  0
C  C74  1  0.33808999  0.92668603  0.84187307  1  0  -0.035509  0  3.670066  0  0  -0.06459  0  3.919657  0  0  -0.061779  0  3.937684  0  -0.098534  0  -0.060329  -0.066121  0  3.907395  0
C  C75  1  0.66189724  0.07331500  0.34186727  1  0  -0.035515  0  3.670128  0  0  -0.064651  0  3.919696  0  0  -0.061844  0  3.937736  0  -0.099019  0  -0.060417  -0.066183  0  3.907435  0
C  C76  1  0.93460406  0.03016563  0.53028608  1  0  0.641378  0  3.914894  0  0  0.587057  0  4.214872  0  0  0.622017  0  4.206975  0  1.514787  0  0.202751  0.56337  0  4.219537  0
C  C77  1  0.06540266  0.96983467  0.03028608  1  0  0.64124  0  3.915207  0  0  0.586982  0  4.215148  0  0  0.621938  0  4.207254  0  1.514749  0  0.20281  0.563286  0  4.219808  0
C  C78  1  0.77572441  0.93562918  0.52886082  1  0  -0.12335  0  3.804796  0  0  -0.102357  0  4.045184  0  0  -0.114413  0  4.070705  0  -0.044174  0  -0.041528  -0.094608  0  4.028047  0
C  C79  1  0.22428595  0.06436531  0.02885889  1  0  -0.123403  0  3.804828  0  0  -0.102551  0  4.045371  0  0  -0.11461  0  4.070894  0  -0.044687  0  -0.04159  -0.094766  0  4.028191  0
C  C80  1  0.56022269  0.92003331  0.57657539  1  0  -0.046704  0  3.764257  0  0  -0.069862  0  4.01528  0  0  -0.066184  0  4.034885  0  -0.033788  0  -0.090159  -0.071994  0  4.001938  0
C  C81  1  0.43978717  0.07996554  0.07656894  1  0  -0.046469  0  3.764423  0  0  -0.069567  0  4.015459  0  0  -0.065884  0  4.035059  0  -0.033185  0  -0.090067  -0.071712  0  4.002108  0
C  C82  1  0.41850079  0.83063442  0.57551418  1  0  -0.185629  0  3.72877  0  0  -0.206555  0  3.987092  0  0  -0.214024  0  4.005817  0  -0.063619  0  -0.104997  -0.201638  0  3.974522  0
C  C83  1  0.58150219  0.16935935  0.07550838  1  0  -0.185694  0  3.729258  0  0  -0.206624  0  3.987555  0  0  -0.214094  0  4.006283  0  -0.063915  0  -0.104926  -0.201707  0  3.974985  0
C  C84  1  0.49186961  0.75404571  0.52665915  1  0  0.28832  0  3.790966  0  0  0.280662  0  4.0437  0  0  0.293864  0  4.059194  0  0.435504  0  0.088305  0.271695  0  4.033067  0
C  C85  1  0.50813896  0.24594879  0.02665786  1  0  0.288445  0  3.791315  0  0  0.280821  0  4.044085  0  0  0.294024  0  4.059575  0  0.435867  0  0.088438  0.271851  0  4.033455  0
C  C86  1  0.70655229  0.76810349  0.47877126  1  0  -0.211222  0  3.752051  0  0  -0.229347  0  4.001383  0  0  -0.237205  0  4.021179  0  -0.102847  0  -0.110731  -0.224161  0  3.988047  0
C  C87  1  0.29346523  0.23189100  0.97876546  1  0  -0.211145  0  3.751971  0  0  -0.229274  0  4.001274  0  0  -0.237129  0  4.021062  0  -0.102923  0  -0.110777  -0.224096  0  3.987938  0
C  C88  1  0.84493496  0.85844353  0.48015271  1  0  -0.024406  0  3.751218  0  0  -0.048912  0  4.000271  0  0  -0.0449  0  4.019376  0  0.033031  0  -0.081273  -0.051222  0  3.987176  0
C  C89  1  0.15508385  0.14155532  0.98015013  1  0  -0.024485  0  3.751073  0  0  -0.048907  0  4.000189  0  0  -0.044895  0  4.019284  0  0.033222  0  -0.081282  -0.051229  0  3.987087  0
C  C90  1  0.43315821  0.58522883  0.49026031  1  0  0.045823  0  3.64234  0  0  -0.019717  0  3.90443  0  0  -0.011008  0  3.909423  0  0.402072  0  -0.062355  -0.025661  0  3.901052  0
C  C91  1  0.56685910  0.41476494  0.99025451  1  0  0.045916  0  3.642129  0  0  -0.019523  0  3.904187  0  0  -0.010822  0  3.909182  0  0.402292  0  -0.06231  -0.025459  0  3.900795  0
C  C92  1  0.24318424  0.49953647  0.49747165  1  0  0.021014  0  3.73534  0  0  0.043882  0  3.977399  0  0  0.038228  0  4.001758  0  0.029073  0  -0.004115  0.047315  0  3.961113  0
C  C93  1  0.75681732  0.50046456  0.99746649  1  0  0.02095  0  3.735194  0  0  0.043738  0  3.977335  0  0  0.03808  0  4.001696  0  0.02917  0  -0.004104  0.04717  0  3.961049  0
C  C94  1  0.02397028  0.49506453  0.45300129  1  0  -0.033466  0  3.653097  0  0  -0.063431  0  3.903757  0  0  -0.06005  0  3.921634  0  -0.030391  0  -0.056336  -0.065315  0  3.8916  0
C  C95  1  0.97604073  0.50493214  0.95300129  1  0  -0.033364  0  3.652948  0  0  -0.06328  0  3.903624  0  0  -0.059894  0  3.921491  0  -0.030498  0  -0.056346  -0.065167  0  3.891473  0
C  C96  1  0.85626921  0.41309903  0.46295361  1  0  -0.118113  0  3.745883  0  0  -0.127888  0  3.996495  0  0  -0.135555  0  4.018993  0  -0.104157  0  -0.082218  -0.123041  0  3.981408  0
C  C97  1  0.14372654  0.58690055  0.96296263  1  0  -0.118286  0  3.746208  0  0  -0.12807  0  3.996799  0  0  -0.13574  0  4.019298  0  -0.10374  0  -0.082291  -0.123222  0  3.981714  0
C  C98  1  0.91146741  0.33705787  0.51488015  1  0  0.120394  0  3.703801  0  0  0.087574  0  3.954415  0  0  0.094749  0  3.972094  0  0.486326  0  0.045212  0.082971  0  3.942403  0
C  C99  1  0.08854653  0.66293662  0.01488338  1  0  0.120266  0  3.703857  0  0  0.087476  0  3.954492  0  0  0.094651  0  3.97217  0  0.486233  0  0.045126  0.082874  0  3.94248  0
C  C100  1  0.28395636  0.42009234  0.54824549  1  0  0.074947  0  3.685822  0  0  0.038156  0  3.931758  0  0  0.044044  0  3.951673  0  0.457402  0  0.045755  0.034444  0  3.918181  0
C  C101  1  0.71604613  0.57990578  0.04824420  1  0  0.074978  0  3.686004  0  0  0.038237  0  3.931947  0  0  0.04413  0  3.951865  0  0.457237  0  0.045758  0.034525  0  3.918374  0
N  N102  1  0.12295017  0.34035410  0.55669137  1  0  -0.332244  0  3.27288  0  0  -0.252066  0  3.536548  0  0  -0.272496  0  3.556148  0  -1.246695  0  -0.331325  -0.238162  0  3.522896  0
N  N103  1  0.87704629  0.65964185  0.05669459  1  0  -0.332196  0  3.272858  0  0  -0.252023  0  3.53651  0  0  -0.272456  0  3.556112  0  -1.24656  0  -0.331261  -0.238119  0  3.522857  0
N  N104  1  0.27552647  0.08353264  0.73602384  1  0  -0.334817  0  3.273975  0  0  -0.252742  0  3.537265  0  0  -0.273549  0  3.557396  0  -1.233315  0  -0.330612  -0.238551  0  3.523226  0
N  N105  1  0.72446830  0.91647565  0.23602448  1  0  -0.334889  0  3.27388  0  0  -0.252767  0  3.537172  0  0  -0.273577  0  3.557305  0  -1.233024  0  -0.330544  -0.238575  0  3.52313  0
O  O106  1  0.51684241  0.32451857  0.70504832  1  0  -0.686215  0  2.025319  0  0  -0.60967  0  2.268134  0  0  -0.637509  0  2.25483  0  -1.197031  0  -0.335844  -0.59016  0  2.27665  0
O  O107  1  0.48313874  0.67548609  0.20504704  1  0  -0.686047  0  2.025047  0  0  -0.609537  0  2.267828  0  0  -0.637386  0  2.254542  0  -1.196701  0  -0.335699  -0.590025  0  2.276338  0
O  O108  1  0.26569358  0.38859558  0.79764562  1  0  -0.628081  0  1.995235  0  0  -0.572622  0  2.223992  0  0  -0.596966  0  2.213518  0  -1.187841  0  -0.317398  -0.55575  0  2.230737  0
O  O109  1  0.73429056  0.61140109  0.29763531  1  0  -0.628074  0  1.995497  0  0  -0.572649  0  2.224272  0  0  -0.596979  0  2.213771  0  -1.187796  0  -0.317416  -0.555781  0  2.231028  0
O  O110  1  0.01997297  0.76197146  0.74609794  1  0  -0.282204  0  2.291927  0  0  -0.21018  0  2.522105  0  0  -0.228853  0  2.524065  0  -1.059807  0  -0.173881  -0.196939  0  2.520169  0
O  O111  1  0.98001978  0.23803611  0.24609472  1  0  -0.282155  0  2.291756  0  0  -0.210203  0  2.521996  0  0  -0.228892  0  2.523958  0  -1.059905  0  -0.173843  -0.196959  0  2.520062  0
O  O112  1  0.87645838  0.09865431  0.58015077  1  0  -0.693761  0  2.01096  0  0  -0.617589  0  2.253482  0  0  -0.645232  0  2.23997  0  -1.192029  0  -0.338405  -0.598132  0  2.262023  0
O  O113  1  0.12355377  0.90134019  0.08014562  1  0  -0.693658  0  2.01096  0  0  -0.617492  0  2.253399  0  0  -0.64516  0  2.239944  0  -1.192016  0  -0.338386  -0.598028  0  2.261926  0
O  O114  1  0.12228987  0.03849079  0.48361340  1  0  -0.62302  0  2.025934  0  0  -0.566677  0  2.255858  0  0  -0.592037  0  2.247622  0  -1.18986  0  -0.314379  -0.549127  0  2.261113  0
O  O115  1  0.87772645  0.96151169  0.98361469  1  0  -0.622965  0  2.026151  0  0  -0.56665  0  2.256108  0  0  -0.592005  0  2.247873  0  -1.189801  0  -0.314492  -0.549103  0  2.261365  0
O  O116  1  0.34286227  0.66814348  0.52946005  1  0  -0.28198  0  2.279646  0  0  -0.210429  0  2.509042  0  0  -0.228463  0  2.510497  0  -1.055386  0  -0.175837  -0.197464  0  2.507415  0
O  O117  1  0.65715488  0.33184376  0.02945554  1  0  -0.281967  0  2.279667  0  0  -0.210546  0  2.509123  0  0  -0.228569  0  2.510565  0  -1.055843  0  -0.175925  -0.197584  0  2.507498  0
O  O118  1  0.93034222  0.25362545  0.74949936  1  0  -0.841325  0  1.853514  0  0  -0.777114  0  2.040624  0  0  -0.800768  0  2.007296  0  -1.292747  0  -0.595358  -0.760308  0  2.063587  0
O  O119  1  0.06966177  0.74637776  0.24950064  1  0  -0.841366  0  1.853517  0  0  -0.777133  0  2.040603  0  0  -0.800776  0  2.007252  0  -1.293456  0  -0.595356  -0.760324  0  2.06357  0
O  O120  1  0.45847776  0.16677553  0.53771070  1  0  -0.852336  0  1.8714  0  0  -0.789927  0  2.0699  0  0  -0.813668  0  2.035537  0  -1.252981  0  -0.598082  -0.773007  0  2.093482  0
O  O121  1  0.54152939  0.83322623  0.03771070  1  0  -0.85228  0  1.871519  0  0  -0.789884  0  2.069962  0  0  -0.813627  0  2.035613  0  -1.252984  0  -0.598106  -0.772969  0  2.093555  0
