# generated using pymatgen
data_Ag4H16C11(IN)4
_symmetry_space_group_name_H-M   'P 1'
_cell_length_a   4.52732609
_cell_length_b   12.59895289
_cell_length_c   18.54784723
_cell_angle_alpha   96.69734576
_cell_angle_beta   90.00018150
_cell_angle_gamma   89.99984605
_symmetry_Int_Tables_number   1
_chemical_formula_structural   Ag4H16C11(IN)4
_chemical_formula_sum   'Ag8 H32 C22 I8 N8'
_cell_volume   1050.74172506
_cell_formula_units_Z   2
loop_
 _symmetry_equiv_pos_site_id
 _symmetry_equiv_pos_as_xyz
  1  'x, y, z'
loop_
 _atom_site_type_symbol
 _atom_site_label
 _atom_site_symmetry_multiplicity
 _atom_site_fract_x
 _atom_site_fract_y
 _atom_site_fract_z
 _atom_site_occupancy
 _atom_site_hle17_bader_spin_density
 _atom_site_hle17_ddec_charge
 _atom_site_hle17_ddec_spin_density
 _atom_site_hle17_ddec_sum_bond_order
 _atom_site_hle17_magmom
 _atom_site_hse06_10hf_bader_spin_density
 _atom_site_hse06_10hf_ddec_charge
 _atom_site_hse06_10hf_ddec_spin_density
 _atom_site_hse06_10hf_ddec_sum_bond_order
 _atom_site_hse06_10hf_magmom
 _atom_site_hse06_bader_spin_density
 _atom_site_hse06_ddec_charge
 _atom_site_hse06_ddec_spin_density
 _atom_site_hse06_ddec_sum_bond_order
 _atom_site_hse06_magmom
 _atom_site_pbe_bader_spin_density
 _atom_site_pbe_cm5_charge
 _atom_site_pbe_ddec_charge
 _atom_site_pbe_ddec_spin_density
 _atom_site_pbe_ddec_sum_bond_order
 _atom_site_pbe_magmom
Ag  Ag0  1  0.00858074  0.24364871  0.39242036  1  0  0.324237  0  1.927595  0  0  0.230363  0  2.429836  0  0  0.253668  0  2.383624  0  0  0.243009  0.21448  0  2.461631  0
Ag  Ag1  1  0.00858542  0.25635369  0.10758105  1  0  0.324215  0  1.927654  0  0  0.230339  0  2.429902  0  0  0.253647  0  2.383687  0  0  0.242994  0.21446  0  2.461695  0
Ag  Ag2  1  0.99140104  0.75635489  0.60758056  1  0  0.32424  0  1.927685  0  0  0.230346  0  2.429936  0  0  0.253655  0  2.383721  0  0  0.242995  0.21447  0  2.461729  0
Ag  Ag3  1  0.99140078  0.74364273  0.89241926  1  0  0.324196  0  1.927714  0  0  0.230298  0  2.429971  0  0  0.253602  0  2.383757  0  0  0.242969  0.214419  0  2.461767  0
Ag  Ag4  1  0.54439118  0.15281317  0.29530734  1  0  0.217349  0  2.050719  0  0  0.136165  0  2.56982  0  0  0.160335  0  2.520449  0  0  0.147726  0.119694  0  2.603939  0
Ag  Ag5  1  0.54438544  0.34718717  0.20469375  1  0  0.217322  0  2.050764  0  0  0.136138  0  2.569866  0  0  0.160311  0  2.520494  0  0  0.147716  0.119671  0  2.603979  0
Ag  Ag6  1  0.45560606  0.84718724  0.70469277  1  0  0.217333  0  2.050744  0  0  0.136136  0  2.569862  0  0  0.160311  0  2.520486  0  0  0.147717  0.119667  0  2.603981  0
Ag  Ag7  1  0.45560076  0.65281164  0.79530676  1  0  0.217328  0  2.050782  0  0  0.136131  0  2.569905  0  0  0.160303  0  2.520533  0  0  0.147718  0.119661  0  2.604027  0
H  H8  1  0.34009544  0.10238164  0.48480361  1  0  0.124037  0  0.964922  0  0  0.144665  0  1.028607  0  0  0.146158  0  1.028115  0  0  0.08669  0.143526  0  1.028997  0
H  H9  1  0.34010226  0.39761495  0.01519162  1  0  0.124047  0  0.965012  0  0  0.144704  0  1.028651  0  0  0.146196  0  1.02816  0  0  0.086691  0.143563  0  1.029045  0
H  H10  1  0.65989075  0.89761958  0.51519602  1  0  0.124082  0  0.964901  0  0  0.144699  0  1.028584  0  0  0.146194  0  1.02809  0  0  0.086709  0.143561  0  1.028973  0
H  H11  1  0.65990161  0.60238154  0.98480276  1  0  0.124005  0  0.964932  0  0  0.144623  0  1.028623  0  0  0.146117  0  1.028131  0  0  0.08669  0.143486  0  1.029013  0
H  H12  1  0.38808473  0.08204181  0.57736226  1  0  0.114862  0  0.982639  0  0  0.130901  0  1.051585  0  0  0.13298  0  1.051082  0  0  0.076362  0.129287  0  1.052197  0
H  H13  1  0.38807917  0.41796231  0.92263582  1  0  0.114819  0  0.982596  0  0  0.130849  0  1.05157  0  0  0.132924  0  1.051072  0  0  0.076329  0.129233  0  1.052185  0
H  H14  1  0.61190809  0.91795702  0.42263609  1  0  0.11486  0  0.982632  0  0  0.130896  0  1.051572  0  0  0.132976  0  1.05107  0  0  0.076326  0.129275  0  1.052192  0
H  H15  1  0.61191144  0.58204214  0.07736139  1  0  0.114855  0  0.982633  0  0  0.130896  0  1.051575  0  0  0.132974  0  1.051075  0  0  0.076369  0.129284  0  1.052186  0
H  H16  1  0.65294248  0.15747308  0.53353892  1  0  0.130425  0  0.961739  0  0  0.145475  0  1.029591  0  0  0.147642  0  1.02914  0  0  0.090868  0.143949  0  1.02988  0
H  H17  1  0.65294249  0.34252598  0.96646163  1  0  0.130443  0  0.961709  0  0  0.145486  0  1.029575  0  0  0.147652  0  1.029123  0  0  0.090875  0.143959  0  1.029864  0
H  H18  1  0.34705697  0.84252576  0.46645889  1  0  0.130498  0  0.961714  0  0  0.145518  0  1.029594  0  0  0.147684  0  1.029144  0  0  0.090862  0.143991  0  1.029883  0
H  H19  1  0.34706359  0.65747283  0.03353888  1  0  0.130459  0  0.96173  0  0  0.14549  0  1.029605  0  0  0.147657  0  1.029154  0  0  0.090881  0.143964  0  1.029895  0
H  H20  1  0.78520276  0.42523330  0.52917612  1  0  0.10057  0  0.961513  0  0  0.109122  0  1.027306  0  0  0.111728  0  1.02616  0  0  0.101232  0.107212  0  1.028279  0
H  H21  1  0.78518492  0.07476885  0.97082533  1  0  0.100543  0  0.961189  0  0  0.109084  0  1.027027  0  0  0.111696  0  1.025876  0  0  0.101207  0.107129  0  1.028046  0
H  H22  1  0.21480553  0.57477273  0.47082338  1  0  0.100571  0  0.961349  0  0  0.109132  0  1.027147  0  0  0.111754  0  1.025977  0  0  0.101216  0.107177  0  1.028164  0
H  H23  1  0.21481012  0.92523075  0.02917632  1  0  0.100567  0  0.961492  0  0  0.10911  0  1.027286  0  0  0.111738  0  1.026116  0  0  0.101233  0.107155  0  1.028303  0
H  H24  1  0.02502643  0.44421292  0.66833402  1  0  0.100338  0  0.998795  0  0  0.106798  0  1.070897  0  0  0.109601  0  1.068951  0  0  0.097268  0.104709  0  1.072473  0
H  H25  1  0.02502233  0.05578907  0.83166685  1  0  0.100303  0  0.998632  0  0  0.106791  0  1.070706  0  0  0.109596  0  1.068756  0  0  0.097262  0.104707  0  1.072278  0
H  H26  1  0.97498848  0.55579232  0.33166327  1  0  0.100346  0  0.998521  0  0  0.106848  0  1.070577  0  0  0.109653  0  1.068628  0  0  0.097292  0.10476  0  1.072152  0
H  H27  1  0.97498154  0.94420811  0.16833568  1  0  0.100272  0  0.998632  0  0  0.106757  0  1.070711  0  0  0.109562  0  1.068761  0  0  0.097222  0.10467  0  1.072285  0
H  H28  1  0.55316657  0.35123212  0.70423375  1  0  0.066509  0  0.935695  0  0  0.078727  0  1.007702  0  0  0.079332  0  1.007588  0  0  0.099789  0.078157  0  1.007951  0
H  H29  1  0.55316793  0.14876621  0.79576936  1  0  0.066537  0  0.935749  0  0  0.078743  0  1.007739  0  0  0.07935  0  1.007625  0  0  0.099793  0.078174  0  1.007988  0
H  H30  1  0.44684392  0.64876908  0.29576804  1  0  0.066549  0  0.935756  0  0  0.078771  0  1.007701  0  0  0.079378  0  1.00759  0  0  0.099787  0.078201  0  1.007951  0
H  H31  1  0.44683372  0.85122939  0.20423196  1  0  0.066529  0  0.935733  0  0  0.078755  0  1.007732  0  0  0.079364  0  1.007616  0  0  0.099784  0.078185  0  1.00798  0
H  H32  1  0.57799607  0.21437254  0.66954134  1  0  0.076788  0  0.926577  0  0  0.094699  0  0.986963  0  0  0.095162  0  0.987463  0  0  0.108693  0.09425  0  0.986765  0
H  H33  1  0.57799247  0.28562500  0.83045848  1  0  0.076811  0  0.926631  0  0  0.094704  0  0.987005  0  0  0.095168  0  0.987505  0  0  0.108696  0.094254  0  0.986808  0
H  H34  1  0.42201000  0.78562870  0.33045668  1  0  0.076841  0  0.92661  0  0  0.094706  0  0.986996  0  0  0.095173  0  0.987497  0  0  0.10868  0.094256  0  0.9868  0
H  H35  1  0.42200698  0.71436980  0.16954223  1  0  0.076732  0  0.926668  0  0  0.094676  0  0.987013  0  0  0.095141  0  0.987514  0  0  0.108668  0.094226  0  0.986817  0
H  H36  1  0.08925533  0.31814672  0.76933312  1  0  0.071344  0  0.97864  0  0  0.087662  0  1.046664  0  0  0.088969  0  1.046463  0  0  0.077778  0.086651  0  1.046934  0
H  H37  1  0.08926220  0.18184883  0.73066725  1  0  0.071379  0  0.978528  0  0  0.087613  0  1.046664  0  0  0.088919  0  1.046464  0  0  0.077749  0.086601  0  1.046936  0
H  H38  1  0.91074854  0.68185130  0.23066625  1  0  0.071357  0  0.978529  0  0  0.08764  0  1.046604  0  0  0.088946  0  1.046404  0  0  0.077784  0.086627  0  1.04687  0
H  H39  1  0.91074608  0.81814999  0.26933218  1  0  0.071368  0  0.978525  0  0  0.087615  0  1.046648  0  0  0.088923  0  1.046445  0  0  0.077762  0.086601  0  1.046916  0
C  C40  1  0.41620681  0.13991428  0.53791302  1  0  -0.39049  0  3.719771  0  0  -0.467779  0  3.954003  0  0  -0.471774  0  3.959843  0  0  -0.246025  -0.464766  0  3.949838  0
C  C41  1  0.41620663  0.36008581  0.96208582  1  0  -0.390475  0  3.719717  0  0  -0.467773  0  3.953947  0  0  -0.471769  0  3.959793  0  0  -0.246009  -0.464755  0  3.949788  0
C  C42  1  0.58378601  0.86008932  0.46208789  1  0  -0.390547  0  3.719634  0  0  -0.467786  0  3.953848  0  0  -0.471779  0  3.95968  0  0  -0.24593  -0.464767  0  3.949691  0
C  C43  1  0.58379724  0.63991383  0.03791207  1  0  -0.390436  0  3.719822  0  0  -0.467697  0  3.954089  0  0  -0.471687  0  3.959922  0  0  -0.246038  -0.464685  0  3.949923  0
C  C44  1  0.24207510  0.23870544  0.55797494  1  0  0.357919  0  3.686035  0  0  0.339818  0  3.946166  0  0  0.354852  0  3.961773  0  0  0.210463  0.329911  0  3.935249  0
C  C45  1  0.24207096  0.26129402  0.94202264  1  0  0.357913  0  3.685912  0  0  0.33983  0  3.946065  0  0  0.354867  0  3.961667  0  0  0.210467  0.329913  0  3.935166  0
C  C46  1  0.75791331  0.76129903  0.44202066  1  0  0.357918  0  3.68562  0  0  0.339793  0  3.945818  0  0  0.354825  0  3.961424  0  0  0.210421  0.329884  0  3.934909  0
C  C47  1  0.75792186  0.73870239  0.05797821  1  0  0.357947  0  3.685966  0  0  0.339752  0  3.946139  0  0  0.354785  0  3.961746  0  0  0.210508  0.329845  0  3.935225  0
C  C48  1  0.94118038  0.37415042  0.55312824  1  0  -0.007414  0  3.776483  0  0  -0.043905  0  4.049779  0  0  -0.042006  0  4.069584  0  0  -0.021177  -0.045194  0  4.036436  0
C  C49  1  0.94118172  0.12585008  0.94686564  1  0  -0.007152  0  3.776506  0  0  -0.043624  0  4.049739  0  0  -0.041732  0  4.069542  0  0  -0.021018  -0.044869  0  4.036423  0
C  C50  1  0.05883232  0.62585563  0.44686857  1  0  -0.007377  0  3.776638  0  0  -0.043889  0  4.049873  0  0  -0.042002  0  4.069677  0  0  -0.021162  -0.045133  0  4.036556  0
C  C51  1  0.05885307  0.87414238  0.05313055  1  0  -0.007259  0  3.776583  0  0  -0.043751  0  4.049825  0  0  -0.041872  0  4.06962  0  0  -0.021157  -0.044994  0  4.036508  0
C  C52  1  0.05652396  0.38457584  0.62194202  1  0  -0.070031  0  3.71968  0  0  -0.108216  0  3.981921  0  0  -0.106446  0  4.000709  0  0  -0.017554  -0.109331  0  3.969344  0
C  C53  1  0.05654213  0.11542763  0.87806709  1  0  -0.070215  0  3.720442  0  0  -0.10839  0  3.982746  0  0  -0.106619  0  4.001536  0  0  -0.01772  -0.109504  0  3.970149  0
C  C54  1  0.94346223  0.61542685  0.37806799  1  0  -0.070328  0  3.720396  0  0  -0.108515  0  3.982749  0  0  -0.106748  0  4.001543  0  0  -0.017824  -0.109629  0  3.970154  0
C  C55  1  0.94347941  0.88457595  0.12193599  1  0  -0.070097  0  3.719919  0  0  -0.108345  0  3.982199  0  0  -0.106577  0  4.000993  0  0  -0.017571  -0.109459  0  3.969606  0
C  C56  1  0.42215783  0.27900095  0.68730590  1  0  0.017929  0  3.627585  0  0  -0.039054  0  3.878838  0  0  -0.035021  0  3.891328  0  0  -0.053035  -0.041625  0  3.870339  0
C  C57  1  0.42216330  0.22099831  0.81269450  1  0  0.017792  0  3.627538  0  0  -0.03908  0  3.878696  0  0  -0.03505  0  3.891188  0  0  -0.053051  -0.041652  0  3.8702  0
C  C58  1  0.57783058  0.72100352  0.31268970  1  0  0.017754  0  3.627446  0  0  -0.039079  0  3.878543  0  0  -0.035061  0  3.891055  0  0  -0.053018  -0.041656  0  3.870045  0
C  C59  1  0.57783394  0.77899727  0.18730789  1  0  0.017924  0  3.627374  0  0  -0.039112  0  3.878547  0  0  -0.03509  0  3.89105  0  0  -0.053039  -0.041686  0  3.870047  0
C  C60  1  0.23165076  0.24999773  0.74999916  1  0  -0.157214  0  3.678772  0  0  -0.201423  0  3.936479  0  0  -0.204201  0  3.949482  0  0  -0.172112  -0.199353  0  3.927479  0
C  C61  1  0.76835310  0.74999950  0.25000014  1  0  -0.157101  0  3.678875  0  0  -0.20132  0  3.93656  0  0  -0.204091  0  3.949568  0  0  -0.172087  -0.199237  0  3.927539  0
I  I62  1  0.51527648  0.37388845  0.35960451  1  0  -0.286099  0  1.765439  0  0  -0.209571  0  2.246527  0  0  -0.231868  0  2.212085  0  0  -0.128915  -0.194232  0  2.270562  0
I  I63  1  0.51528034  0.12611273  0.14039609  1  0  -0.28612  0  1.765466  0  0  -0.209594  0  2.24656  0  0  -0.23189  0  2.212115  0  0  -0.128928  -0.194261  0  2.270596  0
I  I64  1  0.48471193  0.62611436  0.64039633  1  0  -0.286147  0  1.765514  0  0  -0.209613  0  2.246621  0  0  -0.23191  0  2.212173  0  0  -0.128928  -0.194277  0  2.270661  0
I  I65  1  0.48471027  0.87388448  0.85960482  1  0  -0.286097  0  1.765439  0  0  -0.209564  0  2.246537  0  0  -0.231858  0  2.21209  0  0  -0.128908  -0.194228  0  2.270577  0
I  I66  1  0.04815859  0.02795868  0.33360063  1  0  -0.352224  0  1.580476  0  0  -0.28119  0  2.014826  0  0  -0.300893  0  1.981079  0  0  -0.164556  -0.26751  0  2.038761  0
I  I67  1  0.04815362  0.47204288  0.16640073  1  0  -0.352177  0  1.580501  0  0  -0.281161  0  2.014879  0  0  -0.300858  0  1.981113  0  0  -0.164531  -0.267488  0  2.038816  0
I  I68  1  0.95183865  0.97204331  0.66640123  1  0  -0.352189  0  1.58053  0  0  -0.28114  0  2.014878  0  0  -0.300847  0  1.981131  0  0  -0.164528  -0.267465  0  2.038816  0
I  I69  1  0.95183699  0.52795513  0.83359971  1  0  -0.352168  0  1.580559  0  0  -0.281119  0  2.014889  0  0  -0.30082  0  1.981138  0  0  -0.164509  -0.26744  0  2.038826  0
N  N70  1  0.05713766  0.28355468  0.51407988  1  0  -0.398575  0  3.26211  0  0  -0.327212  0  3.545888  0  0  -0.34753  0  3.561531  0  0  -0.375788  -0.31338  0  3.534903  0
N  N71  1  0.05713665  0.21644650  0.98592094  1  0  -0.398766  0  3.26183  0  0  -0.327389  0  3.545599  0  0  -0.347708  0  3.561241  0  0  -0.375826  -0.313551  0  3.534605  0
N  N72  1  0.94284853  0.71645051  0.48592225  1  0  -0.398682  0  3.261579  0  0  -0.327221  0  3.545292  0  0  -0.347542  0  3.560941  0  0  -0.375695  -0.313388  0  3.534298  0
N  N73  1  0.94285396  0.78355153  0.01407842  1  0  -0.398765  0  3.26187  0  0  -0.327321  0  3.545597  0  0  -0.347642  0  3.561249  0  0  -0.375813  -0.313487  0  3.5346  0
N  N74  1  0.24613511  0.29876726  0.62446152  1  0  -0.11882  0  3.522484  0  0  -0.026688  0  3.732757  0  0  -0.042727  0  3.759399  0  0  -0.246737  -0.016044  0  3.714593  0
N  N75  1  0.24612611  0.20123134  0.87554030  1  0  -0.118635  0  3.522498  0  0  -0.026629  0  3.732859  0  0  -0.042666  0  3.759501  0  0  -0.246683  -0.015981  0  3.714703  0
N  N76  1  0.75388863  0.70122752  0.37554080  1  0  -0.118559  0  3.522417  0  0  -0.026569  0  3.732796  0  0  -0.042601  0  3.759439  0  0  -0.246655  -0.015925  0  3.71464  0
N  N77  1  0.75389322  0.79877229  0.12445846  1  0  -0.1188  0  3.522363  0  0  -0.026546  0  3.732521  0  0  -0.042582  0  3.759165  0  0  -0.246723  -0.015902  0  3.714363  0
