# generated using pymatgen
data_Ag2H8C9N3O5
_symmetry_space_group_name_H-M   'P 1'
_cell_length_a   7.45581667
_cell_length_b   8.58453708
_cell_length_c   10.75740616
_cell_angle_alpha   105.18300996
_cell_angle_beta   100.94554337
_cell_angle_gamma   99.70832032
_symmetry_Int_Tables_number   1
_chemical_formula_structural   Ag2H8C9N3O5
_chemical_formula_sum   'Ag4 H16 C18 N6 O10'
_cell_volume   634.84281223
_cell_formula_units_Z   2
loop_
 _symmetry_equiv_pos_site_id
 _symmetry_equiv_pos_as_xyz
  1  'x, y, z'
loop_
 _atom_site_type_symbol
 _atom_site_label
 _atom_site_symmetry_multiplicity
 _atom_site_fract_x
 _atom_site_fract_y
 _atom_site_fract_z
 _atom_site_occupancy
 _atom_site_hle17_bader_spin_density
 _atom_site_hle17_ddec_charge
 _atom_site_hle17_ddec_spin_density
 _atom_site_hle17_ddec_sum_bond_order
 _atom_site_hle17_magmom
 _atom_site_hse06_10hf_bader_spin_density
 _atom_site_hse06_10hf_ddec_charge
 _atom_site_hse06_10hf_ddec_spin_density
 _atom_site_hse06_10hf_ddec_sum_bond_order
 _atom_site_hse06_10hf_magmom
 _atom_site_hse06_bader_spin_density
 _atom_site_hse06_ddec_charge
 _atom_site_hse06_ddec_spin_density
 _atom_site_hse06_ddec_sum_bond_order
 _atom_site_hse06_magmom
 _atom_site_pbe_bader_spin_density
 _atom_site_pbe_cm5_charge
 _atom_site_pbe_ddec_charge
 _atom_site_pbe_ddec_spin_density
 _atom_site_pbe_ddec_sum_bond_order
 _atom_site_pbe_magmom
Ag  Ag0  1  0.89326241  0.93351004  0.27393475  1  0  0.576474  0  1.36428  0  0  0.448383  0  1.805165  0  0  0.485057  0  1.746556  0  0  0.442863  0.423026  0  1.845856  0
Ag  Ag1  1  0.10670948  0.06649114  0.72606673  1  0  0.576483  0  1.364342  0  0  0.448352  0  1.80525  0  0  0.485026  0  1.746649  0  0  0.44285  0.422997  0  1.845942  0
Ag  Ag2  1  0.31945719  0.81810085  0.62724400  1  0  0.583039  0  1.337861  0  0  0.452301  0  1.767928  0  0  0.48264  0  1.71779  0  0  0.447056  0.431511  0  1.802595  0
Ag  Ag3  1  0.68054476  0.18192040  0.37275862  1  0  0.583107  0  1.337962  0  0  0.452375  0  1.768054  0  0  0.482717  0  1.717914  0  0  0.447084  0.431586  0  1.802725  0
H  H4  1  0.39248911  0.60158358  0.82313464  1  0  0.109383  0  0.963298  0  0  0.115787  0  1.028406  0  0  0.1191  0  1.026804  0  0  0.11694  0.113373  0  1.029738  0
H  H5  1  0.60751644  0.39841157  0.17686510  1  0  0.10929  0  0.963409  0  0  0.115709  0  1.028489  0  0  0.119019  0  1.026889  0  0  0.116927  0.113293  0  1.029831  0
H  H6  1  0.64803930  0.06998312  0.81835187  1  0  0.114875  0  0.959868  0  0  0.121859  0  1.024594  0  0  0.125887  0  1.020845  0  0  0.120612  0.118664  0  1.027817  0
H  H7  1  0.35196491  0.93000717  0.18164786  1  0  0.114968  0  0.959687  0  0  0.121904  0  1.024464  0  0  0.125906  0  1.020748  0  0  0.120603  0.118708  0  1.027685  0
H  H8  1  0.73151487  0.50067043  0.69841213  1  0  0.114302  0  0.929506  0  0  0.12581  0  0.983746  0  0  0.129884  0  0.981544  0  0  0.107447  0.122928  0  0.985404  0
H  H9  1  0.26848615  0.49932339  0.30158500  1  0  0.114283  0  0.92937  0  0  0.125812  0  0.983599  0  0  0.129885  0  0.981398  0  0  0.107472  0.122931  0  0.985261  0
H  H10  1  0.60190230  0.65885571  0.05478120  1  0  0.092885  0  0.942705  0  0  0.102288  0  1.002671  0  0  0.105107  0  1.000404  0  0  0.118023  0.100263  0  1.004368  0
H  H11  1  0.39811655  0.34113803  0.94522078  1  0  0.092967  0  0.942768  0  0  0.102352  0  1.00273  0  0  0.10517  0  1.000471  0  0  0.118119  0.100328  0  1.004426  0
H  H12  1  0.93082099  0.19639371  0.16222232  1  0  0.335863  0  0.94048  0  0  0.314369  0  1.01497  0  0  0.322845  0  1.007335  0  0  0.290317  0.308313  0  1.02036  0
H  H13  1  0.06917677  0.80361406  0.83776551  1  0  0.335852  0  0.940514  0  0  0.314364  0  1.015005  0  0  0.32284  0  1.007369  0  0  0.290322  0.308307  0  1.020395  0
H  H14  1  0.88389369  0.24245739  0.01319342  1  0  0.323002  0  0.867793  0  0  0.32317  0  0.903006  0  0  0.328097  0  0.900951  0  0  0.322013  0.319658  0  0.904537  0
H  H15  1  0.11610125  0.75753976  0.98679796  1  0  0.322967  0  0.867834  0  0  0.323193  0  0.902971  0  0  0.32812  0  0.900916  0  0  0.322023  0.319676  0  0.904506  0
H  H16  1  0.22727661  0.96692887  0.44445882  1  0  0.409926  0  0.900944  0  0  0.379629  0  0.965794  0  0  0.390254  0  0.950188  0  0  0.283203  0.372063  0  0.976921  0
H  H17  1  0.77271559  0.03307811  0.55553197  1  0  0.40994  0  0.900924  0  0  0.379627  0  0.965767  0  0  0.390262  0  0.950157  0  0  0.283193  0.372045  0  0.9769  0
H  H18  1  0.34289047  0.83398691  0.38731330  1  0  0.403979  0  0.918516  0  0  0.372544  0  0.983891  0  0  0.384005  0  0.967688  0  0  0.27251  0.364428  0  0.995317  0
H  H19  1  0.65711318  0.16601655  0.61268290  1  0  0.403765  0  0.91879  0  0  0.372373  0  0.984094  0  0  0.383836  0  0.967889  0  0  0.272484  0.364277  0  0.9955  0
C  C20  1  0.49806410  0.71696604  0.87353955  1  0  -0.00077  0  3.712759  0  0  -0.03556  0  3.975445  0  0  -0.037797  0  3.997585  0  0  0.013833  -0.034515  0  3.961175  0
C  C21  1  0.50194988  0.28303500  0.12646025  1  0  -0.000341  0  3.7124  0  0  -0.035112  0  3.975015  0  0  -0.03734  0  3.997157  0  0  0.013979  -0.034068  0  3.960747  0
C  C22  1  0.39868628  0.29362001  0.66382167  1  0  0.649033  0  3.937522  0  0  0.595588  0  4.236968  0  0  0.629766  0  4.229997  0  0  0.196319  0.572236  0  4.240842  0
C  C23  1  0.60132852  0.70640053  0.33616367  1  0  0.648972  0  3.936798  0  0  0.595591  0  4.236262  0  0  0.62979  0  4.229273  0  0  0.196435  0.57223  0  4.240142  0
C  C24  1  0.64213892  0.97588500  0.86976176  1  0  -0.035769  0  3.618326  0  0  -0.067888  0  3.870329  0  0  -0.067791  0  3.88537  0  0  0.042651  -0.068301  0  3.860979  0
C  C25  1  0.35786160  0.02411295  0.13022666  1  0  -0.035861  0  3.617996  0  0  -0.067859  0  3.869991  0  0  -0.067746  0  3.885061  0  0  0.042643  -0.068263  0  3.860627  0
C  C26  1  0.62896110  0.49885893  0.61081200  1  0  -0.09997  0  3.736791  0  0  -0.131555  0  3.992663  0  0  -0.132284  0  4.010776  0  0  -0.086489  -0.130837  0  3.9804  0
C  C27  1  0.37101703  0.50110405  0.38920267  1  0  -0.100133  0  3.73676  0  0  -0.131667  0  3.992619  0  0  -0.132374  0  4.010715  0  0  -0.086603  -0.130967  0  3.980388  0
C  C28  1  0.75863089  0.00809987  0.99880529  1  0  0.436145  0  3.849328  0  0  0.408573  0  4.115727  0  0  0.425525  0  4.131165  0  0  0.22891  0.397073  0  4.105099  0
C  C29  1  0.24138086  0.99190897  0.00118527  1  0  0.436188  0  3.849015  0  0  0.408501  0  4.115594  0  0  0.425446  0  4.131039  0  0  0.228853  0.397018  0  4.104951  0
C  C30  1  0.31967738  0.39409614  0.46127741  1  0  -0.058176  0  3.723178  0  0  -0.046788  0  3.966836  0  0  -0.050966  0  3.985076  0  0  -0.011096  -0.044347  0  3.954844  0
C  C31  1  0.68032887  0.60587975  0.53873980  1  0  -0.058445  0  3.722406  0  0  -0.047029  0  3.96607  0  0  -0.051186  0  3.984306  0  0  -0.011174  -0.044584  0  3.954065  0
C  C32  1  0.61252740  0.74808195  0.99895046  1  0  0.093935  0  3.730191  0  0  0.066118  0  3.981127  0  0  0.071989  0  3.999654  0  0  0.041772  0.061458  0  3.969934  0
C  C33  1  0.38747875  0.25191198  0.00103610  1  0  0.093882  0  3.730102  0  0  0.066063  0  3.981087  0  0  0.071944  0  3.999584  0  0  0.041813  0.06141  0  3.969903  0
C  C34  1  0.13396561  0.27144708  0.40457924  1  0  0.661446  0  3.882392  0  0  0.607526  0  4.167963  0  0  0.642004  0  4.162989  0  0  0.20659  0.584023  0  4.170623  0
C  C35  1  0.86606395  0.72857434  0.59543405  1  0  0.661515  0  3.88171  0  0  0.607691  0  4.167129  0  0  0.642165  0  4.162159  0  0  0.206594  0.584186  0  4.169785  0
C  C36  1  0.45003589  0.39429621  0.57485254  1  0  -0.071028  0  3.744757  0  0  -0.057289  0  3.987101  0  0  -0.060259  0  4.004649  0  0  -0.014321  -0.055415  0  3.975402  0
C  C37  1  0.54995212  0.60568332  0.42515848  1  0  -0.070668  0  3.7434  0  0  -0.057019  0  3.985806  0  0  -0.060014  0  4.003361  0  0  -0.014289  -0.055144  0  3.974103  0
N  N38  1  0.88530897  0.15383535  0.05948633  1  0  -0.662632  0  3.122667  0  0  -0.631046  0  3.352346  0  0  -0.654025  0  3.353666  0  0  -0.570608  -0.615013  0  3.351125  0
N  N39  1  0.11469302  0.84616698  0.94051043  1  0  -0.662655  0  3.122503  0  0  -0.631081  0  3.352194  0  0  -0.654064  0  3.353526  0  0  -0.570598  -0.61504  0  3.350965  0
N  N40  1  0.51413168  0.83421935  0.81010987  1  0  -0.22813  0  3.393143  0  0  -0.144641  0  3.673806  0  0  -0.157583  0  3.692334  0  0  -0.331011  -0.135709  0  3.661305  0
N  N41  1  0.48588235  0.16579228  0.18988513  1  0  -0.228521  0  3.393673  0  0  -0.145045  0  3.674358  0  0  -0.158005  0  3.692895  0  0  -0.331119  -0.136112  0  3.66186  0
N  N42  1  0.74132617  0.89126568  0.06197220  1  0  -0.388656  0  3.265901  0  0  -0.316267  0  3.553052  0  0  -0.336258  0  3.5656  0  0  -0.33969  -0.30249  0  3.544443  0
N  N43  1  0.25869924  0.10875149  0.93803340  1  0  -0.388665  0  3.26633  0  0  -0.31627  0  3.553576  0  0  -0.336256  0  3.566129  0  0  -0.339819  -0.302526  0  3.544995  0
O  O44  1  0.12524893  0.12827168  0.42233684  1  0  -0.639206  0  2.143302  0  0  -0.555199  0  2.40505  0  0  -0.588748  0  2.39414  0  0  -0.3209  -0.531941  0  2.412106  0
O  O45  1  0.87470526  0.87175860  0.57766917  1  0  -0.639384  0  2.142877  0  0  -0.555364  0  2.40453  0  0  -0.588922  0  2.393633  0  0  -0.32097  -0.5321  0  2.411571  0
O  O46  1  0.00105973  0.31031625  0.33583363  1  0  -0.630331  0  1.988524  0  0  -0.563372  0  2.220732  0  0  -0.589454  0  2.208337  0  0  -0.321154  -0.545006  0  2.228552  0
O  O47  1  0.99894279  0.68967707  0.66417198  1  0  -0.630096  0  1.98868  0  0  -0.56318  0  2.22083  0  0  -0.589256  0  2.208435  0  0  -0.320975  -0.544825  0  2.228657  0
O  O48  1  0.23495352  0.85003552  0.43158401  1  0  -0.812509  0  1.972129  0  0  -0.730967  0  2.183896  0  0  -0.758252  0  2.149071  0  0  -0.594369  -0.711539  0  2.207992  0
O  O49  1  0.76504150  0.14997582  0.56841527  1  0  -0.812366  0  1.972389  0  0  -0.730823  0  2.184205  0  0  -0.758122  0  2.149333  0  0  -0.59434  -0.711388  0  2.208321  0
O  O50  1  0.26366527  0.32293891  0.71537544  1  0  -0.608238  0  1.976519  0  0  -0.54588  0  2.221302  0  0  -0.574093  0  2.209136  0  0  -0.33312  -0.525976  0  2.228964  0
O  O51  1  0.73636788  0.67703317  0.28462190  1  0  -0.608166  0  1.976386  0  0  -0.545872  0  2.221186  0  0  -0.574089  0  2.209009  0  0  -0.333141  -0.525972  0  2.228857  0
O  O52  1  0.49662684  0.19050889  0.68528126  1  0  -0.668839  0  2.027865  0  0  -0.607504  0  2.264136  0  0  -0.634669  0  2.25151  0  0  -0.328343  -0.587934  0  2.272203  0
O  O53  1  0.50331481  0.80949024  0.31472851  1  0  -0.668911  0  2.027884  0  0  -0.607575  0  2.264195  0  0  -0.634735  0  2.25155  0  0  -0.328326  -0.587998  0  2.272269  0
