# generated using pymatgen
data_AlH7C9NO5
_symmetry_space_group_name_H-M   'P 1'
_cell_length_a   6.66973606
_cell_length_b   8.76612406
_cell_length_c   15.41339134
_cell_angle_alpha   80.56683853
_cell_angle_beta   75.27007556
_cell_angle_gamma   75.60573784
_symmetry_Int_Tables_number   1
_chemical_formula_structural   AlH7C9NO5
_chemical_formula_sum   'Al2 H14 C18 N2 O10'
_cell_volume   839.31771255
_cell_formula_units_Z   2
loop_
 _symmetry_equiv_pos_site_id
 _symmetry_equiv_pos_as_xyz
  1  'x, y, z'
loop_
 _atom_site_type_symbol
 _atom_site_label
 _atom_site_symmetry_multiplicity
 _atom_site_fract_x
 _atom_site_fract_y
 _atom_site_fract_z
 _atom_site_occupancy
 _atom_site_pbe_bader_charge
 _atom_site_pbe_bader_spin_density
 _atom_site_pbe_cm5_charge
 _atom_site_pbe_ddec_charge
 _atom_site_pbe_ddec_spin_density
 _atom_site_pbe_ddec_sum_bond_order
 _atom_site_pbe_magmom
Al  Al0  1  0.51390541  0.46608280  0.49895847  1  2.501635  0  0.399972  1.639291  0  2.576136  0
Al  Al1  1  0.01200382  0.46899580  0.50049071  1  2.505768  0  0.395871  1.644679  0  2.591767  0
H  H2  1  0.22930914  0.37981801  0.61014113  1  0.624142  0  0.351385  0.42791  0  0.85949  0
H  H3  1  0.73881550  0.65075602  0.43574985  1  0.626616  0  0.351709  0.428251  0  0.858071  0
H  H4  1  0.23653108  0.98807729  0.50416308  1  0.125811  0  0.121959  0.145643  0  0.971308  0
H  H5  1  0.79497286  0.95226580  0.49250484  1  0.120665  0  0.118043  0.136387  0  0.980186  0
H  H6  1  0.08325224  0.59701387  0.23527518  1  0.091542  0  0.110346  0.126102  0  0.991139  0
H  H7  1  0.84813693  0.62169026  0.75498166  1  0.09669  0  0.107838  0.122415  0  0.99659  0
H  H8  1  0.35019774  0.37260313  0.78646062  1  0.06685  0  0.101212  0.10899  0  1.007062  0
H  H9  1  0.27970904  0.37114312  0.95381658  1  0.082053  0  0.100669  0.104171  0  0.996606  0
H  H10  1  0.72926162  0.34402135  0.22349286  1  0.07449  0  0.10641  0.117893  0  0.996458  0
H  H11  1  0.78822280  0.35617843  0.05564073  1  0.051741  0  0.099794  0.101595  0  1.000199  0
H  H12  1  0.14112421  0.65816075  0.99141135  1  0.410135  0  0.295881  0.288966  0  0.995355  0
H  H13  1  0.97308549  0.69433555  0.09491820  1  0.444165  0  0.311651  0.308977  0  0.937563  0
H  H14  1  0.77369484  0.63826160  0.99523062  1  0.413538  0  0.291635  0.277638  0  1.010927  0
H  H15  1  0.91621643  0.68642173  0.88919831  1  0.442588  0  0.305935  0.298962  0  0.947478  0
C  C16  1  0.66589731  0.48403795  0.66237713  1  1.582359  0  0.266382  0.649198  0  4.082459  0
C  C17  1  0.85204339  0.18464713  0.50262989  1  1.578794  0  0.267744  0.677076  0  4.104492  0
C  C18  1  0.35367921  0.45919166  0.33890340  1  1.545554  0  0.269771  0.644749  0  4.094691  0
C  C19  1  0.17602606  0.75581416  0.49392935  1  1.566843  0  0.261768  0.675485  0  4.102777  0
C  C20  1  0.11460394  0.92925008  0.49893970  1  0.005624  0  -0.070609  -0.17703  0  3.869979  0
C  C21  1  0.91659105  0.01138640  0.49764262  1  -0.079209  0  -0.067071  -0.168456  0  3.873381  0
C  C22  1  0.40159165  0.47005667  0.23845570  1  0.001284  0  -0.017987  -0.020693  0  4.032084  0
C  C23  1  0.60469583  0.49677151  0.76143702  1  -0.053059  0  -0.021679  -0.030741  0  4.034765  0
C  C24  1  0.23938781  0.54845078  0.19478424  1  0.060362  0  -0.097318  -0.216934  0  3.941766  0
C  C25  1  0.27633597  0.56873187  0.10021177  1  0.331443  0  0.094858  0.261038  0  4.102605  0
C  C26  1  0.72064683  0.56985088  0.79936513  1  -0.020388  0  -0.098209  -0.212817  0  3.94356  0
C  C27  1  0.67471817  0.57796766  0.89279370  1  0.391417  0  0.09451  0.2576  0  4.086283  0
C  C28  1  0.43911619  0.42994261  0.81664572  1  0.025038  0  -0.107284  -0.138308  0  4.04738  0
C  C29  1  0.39979242  0.43099897  0.90978645  1  -0.159404  0  -0.100509  -0.142965  0  4.060066  0
C  C30  1  0.60371880  0.40500423  0.18867381  1  -0.007862  0  -0.106752  -0.144438  0  4.039179  0
C  C31  1  0.63610161  0.41478597  0.09513542  1  -0.074824  0  -0.100255  -0.139032  0  4.063698  0
C  C32  1  0.47639633  0.49521647  0.04933268  1  0.021523  0  -0.022483  -0.033678  0  3.962457  0
C  C33  1  0.51606217  0.50199567  0.94963915  1  -0.00538  0  -0.019296  -0.023051  0  3.95619  0
N  N34  1  0.12304466  0.66408735  0.05799619  1  -1.222987  0  -0.603056  -0.634091  0  3.359958  0
N  N35  1  0.77781658  0.66332548  0.92830871  1  -1.221504  0  -0.60525  -0.624114  0  3.34624  0
O  O36  1  0.52731469  0.46127733  0.62483023  1  -1.264164  0  -0.241807  -0.607116  0  2.327246  0
O  O37  1  0.98839754  0.25458840  0.51334768  1  -1.259618  0  -0.229974  -0.586199  0  2.336319  0
O  O38  1  0.16530213  0.44860273  0.37961621  1  -1.267643  0  -0.233963  -0.587417  0  2.353263  0
O  O39  1  0.36749031  0.68915140  0.49781759  1  -1.252717  0  -0.240436  -0.599712  0  2.2912  0
O  O40  1  0.50086379  0.46526345  0.37624588  1  -1.256953  0  -0.233852  -0.585512  0  2.329761  0
O  O41  1  0.03470430  0.68749407  0.48596488  1  -1.266739  0  -0.238918  -0.607162  0  2.341828  0
O  O42  1  0.85597520  0.49423890  0.62304094  1  -1.271558  0  -0.240663  -0.60685  0  2.346562  0
O  O43  1  0.66213743  0.24948449  0.49636491  1  -1.243185  0  -0.231635  -0.577886  0  2.295347  0
O  O44  1  0.25802869  0.40328159  0.54503047  1  -1.429266  0  -0.447668  -0.987984  0  2.191716  0
O  O45  1  0.76308648  0.53937283  0.45832834  1  -1.432211  0  -0.44867  -0.990832  0  2.202591  0
