# generated using pymatgen
data_Zn3H12C18(N5O4)2
_symmetry_space_group_name_H-M   'P 1'
_cell_length_a   6.83949653
_cell_length_b   14.33197935
_cell_length_c   14.76416884
_cell_angle_alpha   119.03195474
_cell_angle_beta   94.97486363
_cell_angle_gamma   90.01757626
_symmetry_Int_Tables_number   1
_chemical_formula_structural   Zn3H12C18(N5O4)2
_chemical_formula_sum   'Zn6 H24 C36 N20 O16'
_cell_volume   1259.12882969
_cell_formula_units_Z   2
loop_
 _symmetry_equiv_pos_site_id
 _symmetry_equiv_pos_as_xyz
  1  'x, y, z'
loop_
 _atom_site_type_symbol
 _atom_site_label
 _atom_site_symmetry_multiplicity
 _atom_site_fract_x
 _atom_site_fract_y
 _atom_site_fract_z
 _atom_site_occupancy
 _atom_site_pbe_bader_charge
 _atom_site_pbe_bader_spin_density
 _atom_site_pbe_cm5_charge
 _atom_site_pbe_ddec_charge
 _atom_site_pbe_ddec_spin_density
 _atom_site_pbe_ddec_sum_bond_order
 _atom_site_pbe_magmom
Zn  Zn0  1  0.24984219  0.41586743  0.00003550  1  1.320483  0  0.71529  0.705442  0  2.445917  0
Zn  Zn1  1  0.75016093  0.58413253  0.99996609  1  1.320486  0  0.715281  0.705419  0  2.445967  0
Zn  Zn2  1  0.83419521  0.13451986  0.69300643  1  1.263724  0  0.709944  0.781123  0  2.350718  0
Zn  Zn3  1  0.66535069  0.44160979  0.30718272  1  1.263725  0  0.709867  0.781088  0  2.349254  0
Zn  Zn4  1  0.16579893  0.86547756  0.30699025  1  1.263697  0  0.709934  0.781107  0  2.350824  0
Zn  Zn5  1  0.33464755  0.55839450  0.69281839  1  1.263695  0  0.70984  0.781116  0  2.349291  0
H  H6  1  0.89426353  0.41222287  0.57179204  1  0.096643  0  0.112085  0.12716  0  0.992911  0
H  H7  1  0.60603095  0.84049876  0.42830400  1  0.127131  0  0.112095  0.126266  0  0.993121  0
H  H8  1  0.10573681  0.58777546  0.42820952  1  0.096778  0  0.11206  0.127131  0  0.992945  0
H  H9  1  0.39398211  0.15950536  0.57169851  1  0.127205  0  0.112049  0.126176  0  0.993163  0
H  H10  1  0.80010577  0.08695049  0.32487365  1  0.126957  0  0.118154  0.136936  0  0.990845  0
H  H11  1  0.69903767  0.76225084  0.67535314  1  0.111393  0  0.118191  0.137365  0  0.990409  0
H  H12  1  0.19989848  0.91304957  0.67512405  1  0.12699  0  0.118182  0.136994  0  0.990831  0
H  H13  1  0.30095649  0.23775025  0.32464798  1  0.111373  0  0.118193  0.13736  0  0.990413  0
H  H14  1  0.81690918  0.02975896  0.46142383  1  0.127362  0  0.120184  0.098368  0  1.00321  0
H  H15  1  0.68257259  0.56853365  0.53887368  1  0.120008  0  0.120142  0.098018  0  1.003098  0
H  H16  1  0.18308930  0.97023839  0.53857199  1  0.127414  0  0.120193  0.098391  0  1.003267  0
H  H17  1  0.31742745  0.43146702  0.46112701  1  0.120037  0  0.120142  0.098015  0  1.003087  0
H  H18  1  0.92177382  0.34220952  0.69895308  1  0.090298  0  0.112013  0.072183  0  1.06654  0
H  H19  1  0.57842274  0.64335369  0.30121152  1  0.079169  0  0.111732  0.071705  0  1.066893  0
H  H20  1  0.07823685  0.65778586  0.30104555  1  0.090131  0  0.112042  0.072215  0  1.066514  0
H  H21  1  0.42158578  0.35665038  0.69878935  1  0.079131  0  0.111775  0.071707  0  1.066851  0
H  H22  1  0.42772377  0.16613408  0.91983350  1  0.12255  0  0.129557  0.174837  0  0.922758  0
H  H23  1  0.07143998  0.24653922  0.08029717  1  0.085748  0  0.129431  0.174807  0  0.92247  0
H  H24  1  0.57227604  0.83386782  0.08016603  1  0.122583  0  0.129541  0.174857  0  0.922742  0
H  H25  1  0.92856156  0.75345947  0.91970157  1  0.085761  0  0.129432  0.174782  0  0.922519  0
H  H26  1  0.45986619  0.09092188  0.78520552  1  0.128705  0  0.115108  0.158356  0  0.999574  0
H  H27  1  0.03943932  0.30591167  0.21493329  1  0.12198  0  0.115245  0.158635  0  0.999414  0
H  H28  1  0.54012629  0.90907902  0.21479303  1  0.128672  0  0.115163  0.15845  0  0.999488  0
H  H29  1  0.96055944  0.69408538  0.78506542  1  0.122009  0  0.115255  0.158662  0  0.999391  0
C  C30  1  0.87961724  0.32693100  0.54503697  1  0.081582  0  -0.079843  -0.137519  0  3.943717  0
C  C31  1  0.62049036  0.78199650  0.45510661  1  -0.010814  0  -0.080108  -0.135799  0  3.940145  0
C  C32  1  0.12038163  0.67306726  0.45496452  1  0.081344  0  -0.079776  -0.137488  0  3.943661  0
C  C33  1  0.37951670  0.21800750  0.54489421  1  -0.010925  0  -0.080121  -0.135728  0  3.940253  0
C  C34  1  0.82530254  0.14551039  0.40718298  1  0.073171  0  -0.06944  -0.129783  0  3.910871  0
C  C35  1  0.67414595  0.73848317  0.59303480  1  0.040167  0  -0.07002  -0.130475  0  3.911853  0
C  C36  1  0.17469590  0.85448967  0.59281553  1  0.072913  0  -0.069487  -0.12993  0  3.910923  0
C  C37  1  0.32585697  0.26151667  0.40696428  1  0.040175  0  -0.070038  -0.130505  0  3.911781  0
C  C38  1  0.83741925  0.11343088  0.48240373  1  0.455269  0  0.050464  0.100581  0  3.905841  0
C  C39  1  0.66211454  0.63118859  0.51783234  1  0.438425  0  0.050433  0.100538  0  3.905834  0
C  C40  1  0.16258223  0.88656687  0.51759327  1  0.455151  0  0.050453  0.100573  0  3.905876  0
C  C41  1  0.33787957  0.36881087  0.48216637  1  0.438253  0  0.050426  0.100595  0  3.905723  0
C  C42  1  0.89531093  0.28876062  0.61542962  1  0.48473  0  0.037054  0.07845  0  3.96436  0
C  C43  1  0.60471399  0.67344514  0.38474366  1  0.493896  0  0.037526  0.07878  0  3.962987  0
C  C44  1  0.10469233  0.71123485  0.38456831  1  0.484884  0  0.036962  0.078356  0  3.964426  0
C  C45  1  0.39529453  0.32655961  0.61525789  1  0.494021  0  0.03749  0.078775  0  3.963053  0
C  C46  1  0.84126993  0.25449081  0.43885934  1  -0.136468  0  0.009639  0.024758  0  3.930721  0
C  C47  1  0.65841129  0.81575245  0.56131901  1  -0.032369  0  0.009822  0.024045  0  3.92967  0
C  C48  1  0.15873754  0.74550840  0.56114071  1  -0.136614  0  0.009687  0.024891  0  3.930608  0
C  C49  1  0.34158611  0.18424642  0.43868309  1  -0.032195  0  0.009848  0.024048  0  3.929624  0
C  C50  1  0.80900722  0.29309639  0.36034817  1  1.602413  0  0.199905  0.552962  0  4.239335  0
C  C51  1  0.69047893  0.93287651  0.63980417  1  1.586633  0  0.199939  0.553438  0  4.239083  0
C  C52  1  0.19100320  0.70690159  0.63965065  1  1.602641  0  0.199784  0.552816  0  4.239564  0
C  C53  1  0.30951151  0.06711563  0.36019444  1  1.586991  0  0.199887  0.553396  0  4.239399  0
C  C54  1  0.53071319  0.25750479  0.85449462  1  0.991335  0  0.241455  0.356858  0  3.94598  0
C  C55  1  0.96872973  0.40327761  0.14567285  1  0.976139  0  0.241244  0.35648  0  3.947669  0
C  C56  1  0.46928841  0.74249417  0.14550517  1  0.990665  0  0.241399  0.356834  0  3.945884  0
C  C57  1  0.03126764  0.59671828  0.85432550  1  0.975516  0  0.241268  0.356491  0  3.947616  0
C  C58  1  0.40986203  0.16652023  0.84519255  1  -0.039531  0  -0.144762  -0.392183  0  3.884317  0
C  C59  1  0.08943048  0.32157511  0.15495447  1  0.003555  0  -0.144309  -0.39214  0  3.884394  0
C  C60  1  0.59013794  0.83348085  0.15480775  1  -0.03945  0  -0.144808  -0.392452  0  3.88443  0
C  C61  1  0.91056674  0.67842229  0.84504378  1  0.003589  0  -0.144323  -0.39215  0  3.88443  0
C  C62  1  0.19260725  0.18174793  0.82315861  1  1.593737  0  0.222666  0.656644  0  4.117654  0
C  C63  1  0.30673574  0.35872737  0.17691306  1  1.596753  0  0.223574  0.657887  0  4.11623  0
C  C64  1  0.80738533  0.81825623  0.17684475  1  1.59339  0  0.222922  0.657153  0  4.117287  0
C  C65  1  0.69326127  0.64127426  0.82308780  1  1.596481  0  0.223468  0.657753  0  4.116403  0
N  N66  1  0.86920058  0.18396147  0.58515315  1  -1.289605  0  -0.333742  -0.24642  0  3.568299  0
N  N67  1  0.63059366  0.59892745  0.41505965  1  -1.254808  0  -0.333602  -0.246272  0  3.567375  0
N  N68  1  0.13080100  0.81603382  0.41484221  1  -1.289245  0  -0.333749  -0.246412  0  3.568345  0
N  N69  1  0.36941201  0.40107540  0.58494081  1  -1.254809  0  -0.333596  -0.246348  0  3.567438  0
N  N70  1  0.50254654  0.36084307  0.91875746  1  -0.737497  0  -0.223861  -0.243208  0  3.407899  0
N  N71  1  0.99713828  0.44234685  0.08142646  1  -0.747849  0  -0.224047  -0.242928  0  3.4079  0
N  N72  1  0.49745798  0.63915669  0.08124314  1  -0.736899  0  -0.2238  -0.243106  0  3.407934  0
N  N73  1  0.00286353  0.55765154  0.91857516  1  -0.747342  0  -0.223994  -0.242844  0  3.407912  0
N  N74  1  0.63771463  0.41674976  0.90071498  1  -0.178446  0  -0.088303  -0.040956  0  3.488325  0
N  N75  1  0.86206513  0.51629612  0.09944254  1  -0.154465  0  -0.087309  -0.040742  0  3.488534  0
N  N76  1  0.36228822  0.58324982  0.09928305  1  -0.17849  0  -0.088311  -0.041036  0  3.488241  0
N  N77  1  0.13793198  0.48370373  0.90055736  1  -0.154503  0  -0.087366  -0.040816  0  3.488618  0
N  N78  1  0.74452525  0.35190745  0.82926667  1  -0.072644  0  -0.079443  -0.04727  0  3.270582  0
N  N79  1  0.75511521  0.52289420  0.17086222  1  -0.08771  0  -0.079432  -0.04678  0  3.270682  0
N  N80  1  0.25547159  0.64809202  0.17072966  1  -0.072602  0  -0.079465  -0.047261  0  3.27051  0
N  N81  1  0.24488053  0.47710382  0.82913665  1  -0.087694  0  -0.079386  -0.046757  0  3.270804  0
N  N82  1  0.68029924  0.25099115  0.79828385  1  -0.75453  0  -0.23258  -0.265692  0  3.495015  0
N  N83  1  0.81913805  0.45294344  0.20184953  1  -0.750268  0  -0.232909  -0.266072  0  3.495442  0
N  N84  1  0.31969628  0.74900743  0.20171319  1  -0.754508  0  -0.232524  -0.265618  0  3.494951  0
N  N85  1  0.18085778  0.54705348  0.79814905  1  -0.750151  0  -0.232944  -0.266089  0  3.495595  0
O  O86  1  0.79835796  0.22922996  0.26553163  1  -1.155793  0  -0.316165  -0.520437  0  2.066673  0
O  O87  1  0.70059587  0.96388460  0.73463576  1  -1.146785  0  -0.316357  -0.520979  0  2.066184  0
O  O88  1  0.20165102  0.77076660  0.73446578  1  -1.1557  0  -0.31611  -0.520369  0  2.066744  0
O  O89  1  0.29939123  0.03612021  0.26537303  1  -1.147247  0  -0.316233  -0.520862  0  2.066605  0
O  O90  1  0.78986411  0.39602436  0.40237434  1  -1.182213  0  -0.342535  -0.568571  0  2.33769  0
O  O91  1  0.70993198  0.99371772  0.59773625  1  -1.181173  0  -0.341962  -0.568019  0  2.338533  0
O  O92  1  0.21014326  0.60397296  0.59762223  1  -1.182329  0  -0.342459  -0.568496  0  2.3379  0
O  O93  1  0.29006144  0.00628052  0.40227000  1  -1.181061  0  -0.341953  -0.568028  0  2.338494  0
O  O94  1  0.11271771  0.26253645  0.88937531  1  -1.188019  0  -0.315459  -0.55776  0  2.333286  0
O  O95  1  0.38665321  0.37326383  0.11066082  1  -1.178835  0  -0.315969  -0.558643  0  2.334105  0
O  O96  1  0.88727654  0.73746789  0.11063061  1  -1.187865  0  -0.315705  -0.558141  0  2.333019  0
O  O97  1  0.61335137  0.62673253  0.88933640  1  -1.178833  0  -0.315954  -0.558557  0  2.334159  0
O  O98  1  0.10509795  0.11093452  0.73621075  1  -1.163512  0  -0.310123  -0.522432  0  2.301226  0
O  O99  1  0.39442843  0.37474767  0.26378942  1  -1.16036  0  -0.310497  -0.522607  0  2.300365  0
O  O100  1  0.89490187  0.88907105  0.26379321  1  -1.163383  0  -0.310153  -0.52252  0  2.301235  0
O  O101  1  0.60555872  0.62526943  0.73621723  1  -1.160124  0  -0.310407  -0.522567  0  2.300407  0
