# generated using pymatgen
data_Cd2H13C21NO10
_symmetry_space_group_name_H-M   'P 1'
_cell_length_a   8.98417990
_cell_length_b   9.72189124
_cell_length_c   15.07405938
_cell_angle_alpha   83.85279796
_cell_angle_beta   88.67332463
_cell_angle_gamma   75.16691067
_symmetry_Int_Tables_number   1
_chemical_formula_structural   Cd2H13C21NO10
_chemical_formula_sum   'Cd4 H26 C42 N2 O20'
_cell_volume   1265.41093126
_cell_formula_units_Z   2
loop_
 _symmetry_equiv_pos_site_id
 _symmetry_equiv_pos_as_xyz
  1  'x, y, z'
loop_
 _atom_site_type_symbol
 _atom_site_label
 _atom_site_symmetry_multiplicity
 _atom_site_fract_x
 _atom_site_fract_y
 _atom_site_fract_z
 _atom_site_occupancy
 _atom_site_pbe_bader_charge
 _atom_site_pbe_bader_spin_density
 _atom_site_pbe_cm5_charge
 _atom_site_pbe_ddec_charge
 _atom_site_pbe_ddec_spin_density
 _atom_site_pbe_ddec_sum_bond_order
 _atom_site_pbe_magmom
Cd  Cd0  1  0.69906584  0.92535959  0.95326711  1  1.342349  0  0.778332  1.055009  0  2.017561  0
Cd  Cd1  1  0.30093452  0.07463886  0.04673369  1  1.342326  0  0.778297  1.054954  0  2.017602  0
Cd  Cd2  1  0.74210348  0.16050810  0.73212125  1  1.282109  0  0.784342  0.942331  0  2.166726  0
Cd  Cd3  1  0.25790018  0.83949046  0.26787816  1  1.282111  0  0.784333  0.942327  0  2.166746  0
H  H4  1  0.61645236  0.45507788  0.67446476  1  0.617812  0  0.320447  0.406594  0  0.873725  0
H  H5  1  0.38354842  0.54490781  0.32553083  1  0.617937  0  0.320442  0.406651  0  0.873651  0
H  H6  1  0.63799819  0.41755189  0.77736227  1  0.621976  0  0.296919  0.383833  0  0.940831  0
H  H7  1  0.36200335  0.58244994  0.22263299  1  0.621889  0  0.296885  0.383738  0  0.940938  0
H  H8  1  0.68035438  0.08741673  0.09815658  1  0.651953  0  0.292325  0.393285  0  0.944314  0
H  H9  1  0.31964375  0.91258171  0.90184293  1  0.651971  0  0.292304  0.393278  0  0.94432  0
H  H10  1  0.85470846  0.08608888  0.06244910  1  0.66771  0  0.288049  0.402725  0  0.934571  0
H  H11  1  0.14529065  0.91390630  0.93755259  1  0.667642  0  0.288016  0.402698  0  0.934614  0
H  H12  1  0.05902803  0.96550788  0.69135321  1  0.108084  0  0.126123  0.103708  0  0.975248  0
H  H13  1  0.94097749  0.03449184  0.30864411  1  0.107906  0  0.126129  0.103726  0  0.975223  0
H  H14  1  0.93831417  0.28761269  0.85792176  1  0.105812  0  0.123706  0.100727  0  0.983742  0
H  H15  1  0.06168515  0.71237811  0.14208350  1  0.10582  0  0.123705  0.100714  0  0.983782  0
H  H16  1  0.49962852  0.49544431  0.92992619  1  0.09587  0  0.105983  0.108084  0  1.016966  0
H  H17  1  0.50036454  0.50455619  0.07007261  1  0.09574  0  0.106016  0.108092  0  1.017003  0
H  H18  1  0.28257375  0.70413894  0.95296271  1  0.100947  0  0.106507  0.108163  0  1.036976  0
H  H19  1  0.71741887  0.29585933  0.04703889  1  0.100789  0  0.106528  0.108201  0  1.03707  0
H  H20  1  0.97047416  0.49490673  0.84745059  1  0.102138  0  0.108145  0.113907  0  1.01215  0
H  H21  1  0.02952249  0.50508183  0.15255617  1  0.102204  0  0.108175  0.11396  0  1.012067  0
H  H22  1  0.39755318  0.18554470  0.74853330  1  0.110385  0  0.105312  0.110472  0  1.037384  0
H  H23  1  0.60244656  0.81445586  0.25146871  1  0.110391  0  0.105317  0.110485  0  1.037361  0
H  H24  1  0.19736563  0.98858511  0.55573938  1  0.098305  0  0.10898  0.119642  0  1.003658  0
H  H25  1  0.80263850  0.01142313  0.44426010  1  0.098303  0  0.10897  0.119598  0  1.003754  0
H  H26  1  0.64859212  0.73000608  0.50670709  1  0.090294  0  0.108745  0.116959  0  0.985018  0
H  H27  1  0.35141192  0.27001733  0.49328682  1  0.090013  0  0.108797  0.116969  0  0.984986  0
H  H28  1  0.73536460  0.76821396  0.65692405  1  0.101956  0  0.110418  0.118986  0  0.975768  0
H  H29  1  0.26463802  0.23180298  0.34306962  1  0.101971  0  0.110378  0.118919  0  0.975824  0
C  C30  1  0.49278777  0.24232691  0.89273817  1  1.542014  0  0.218225  0.59964  0  4.187243  0
C  C31  1  0.50721196  0.75767366  0.10726317  1  1.54202  0  0.218278  0.599651  0  4.187251  0
C  C32  1  0.56571417  0.90353164  0.78479471  1  1.574615  0  0.213546  0.59543  0  4.17821  0
C  C33  1  0.43428695  0.09646795  0.21520401  1  1.574643  0  0.213548  0.595466  0  4.17828  0
C  C34  1  0.51323299  0.89637079  0.69210240  1  -0.022009  0  -0.006361  -0.059689  0  3.924857  0
C  C35  1  0.48677249  0.10363652  0.30789180  1  -0.022075  0  -0.006422  -0.05981  0  3.924744  0
C  C36  1  0.35999263  0.96080362  0.66413384  1  -0.070138  0  -0.001946  0.045487  0  3.983235  0
C  C37  1  0.64001166  0.03920031  0.33586590  1  -0.070017  0  -0.001914  0.045509  0  3.983307  0
C  C38  1  0.24860503  0.05544135  0.71908484  1  0.049442  0  0.004294  0.046371  0  3.990417  0
C  C39  1  0.75139644  0.94455711  0.28091661  1  0.049346  0  0.004311  0.046423  0  3.990541  0
C  C40  1  0.09675862  0.04385046  0.72572703  1  0.483542  0  0.053976  0.046766  0  3.906018  0
C  C41  1  0.90324173  0.95614800  0.27427310  1  0.483829  0  0.053954  0.046725  0  3.906035  0
C  C42  1  0.02876020  0.22659205  0.81773896  1  0.465059  0  0.057537  0.066654  0  3.88606  0
C  C43  1  0.97124118  0.77339557  0.18226646  1  0.464733  0  0.057516  0.066619  0  3.886136  0
C  C44  1  0.17614043  0.25074993  0.81318114  1  0.01959  0  0.002524  0.03954  0  3.98603  0
C  C45  1  0.82386090  0.74924528  0.18682117  1  0.019556  0  0.002537  0.039603  0  3.985858  0
C  C46  1  0.20798150  0.36931919  0.85693253  1  0.036589  0  -0.000972  0.048726  0  3.974501  0
C  C47  1  0.79201842  0.63067703  0.14307106  1  0.035499  0  -0.000991  0.048779  0  3.974354  0
C  C48  1  0.35718764  0.37026406  0.88461657  1  -0.035083  0  -0.011844  -0.077684  0  3.940709  0
C  C49  1  0.64281168  0.62973424  0.11538956  1  -0.03484  0  -0.011904  -0.07768  0  3.940614  0
C  C50  1  0.38261628  0.49431370  0.91363179  1  -0.007989  0  -0.083956  -0.09134  0  3.97863  0
C  C51  1  0.61738108  0.50568359  0.08636979  1  -0.008648  0  -0.083948  -0.091409  0  3.978764  0
C  C52  1  0.26104721  0.61192023  0.92568071  1  -0.028702  0  -0.079576  -0.082255  0  3.949543  0
C  C53  1  0.73894855  0.38807492  0.07431904  1  -0.028199  0  -0.07957  -0.082219  0  3.949922  0
C  C54  1  0.11105341  0.60851994  0.90534952  1  -0.056359  0  -0.010853  -0.012203  0  3.97154  0
C  C55  1  0.88894111  0.39147193  0.09465177  1  -0.056193  0  -0.010868  -0.012223  0  3.9717  0
C  C56  1  0.97549053  0.72821992  0.92374995  1  1.541152  0  0.199367  0.561811  0  4.220297  0
C  C57  1  0.02450782  0.27177410  0.07625446  1  1.541077  0  0.199257  0.561689  0  4.220398  0
C  C58  1  0.08724194  0.49016158  0.86818946  1  -0.002082  0  -0.073713  -0.126524  0  3.90951  0
C  C59  1  0.91275297  0.50982909  0.13181720  1  -0.000921  0  -0.073726  -0.126624  0  3.909387  0
C  C60  1  0.28510247  0.16455068  0.76096395  1  -0.030222  0  -0.060054  -0.107506  0  3.852539  0
C  C61  1  0.71490044  0.83544671  0.23903820  1  -0.030208  0  -0.06008  -0.107582  0  3.852518  0
C  C62  1  0.31366646  0.93735427  0.58028884  1  -0.028376  0  -0.076614  -0.135778  0  3.932203  0
C  C63  1  0.68633226  0.06265713  0.41970855  1  -0.028396  0  -0.076625  -0.135745  0  3.932262  0
C  C64  1  0.41581629  0.85288571  0.52430071  1  0.056012  0  -0.016186  -0.020381  0  3.987096  0
C  C65  1  0.58418547  0.14712675  0.47569988  1  0.056042  0  -0.016144  -0.020389  0  3.986816  0
C  C66  1  0.36156113  0.83678723  0.43396065  1  1.538823  0  0.186465  0.557179  0  4.228584  0
C  C67  1  0.63843956  0.16321763  0.56604241  1  1.538913  0  0.186399  0.557086  0  4.228479  0
C  C68  1  0.56857793  0.79244998  0.55171709  1  -0.022082  0  -0.078955  -0.088196  0  3.966007  0
C  C69  1  0.43142501  0.20757340  0.44827751  1  -0.022  0  -0.078996  -0.088103  0  3.965659  0
C  C70  1  0.61674795  0.81496968  0.63496753  1  -0.053042  0  -0.083074  -0.09742  0  3.978429  0
C  C71  1  0.38325752  0.18504515  0.36502689  1  -0.05291  0  -0.082966  -0.097304  0  3.97818  0
N  N72  1  0.98957755  0.12959353  0.77248306  1  -1.251171  0  -0.338088  -0.236198  0  3.589639  0
N  N73  1  0.01042298  0.87040062  0.22751800  1  -1.2511  0  -0.338041  -0.236136  0  3.589702  0
O  O74  1  0.47677556  0.12673861  0.93581779  1  -1.158908  0  -0.309546  -0.555299  0  2.391882  0
O  O75  1  0.52322509  0.87325882  0.06418107  1  -1.15877  0  -0.30955  -0.555291  0  2.391966  0
O  O76  1  0.62073327  0.25721147  0.86034405  1  -1.185505  0  -0.328816  -0.587634  0  2.284466  0
O  O77  1  0.37926377  0.74278691  0.13965681  1  -1.185526  0  -0.328877  -0.587668  0  2.284389  0
O  O78  1  0.68245369  0.95602586  0.79450542  1  -1.163018  0  -0.335541  -0.594491  0  2.371781  0
O  O79  1  0.31754494  0.04397467  0.20549660  1  -1.162921  0  -0.335541  -0.594521  0  2.371787  0
O  O80  1  0.50021046  0.85359862  0.85049056  1  -1.169592  0  -0.300427  -0.52893  0  2.186586  0
O  O81  1  0.49979177  0.14640098  0.14950882  1  -1.169647  0  -0.300437  -0.52893  0  2.186654  0
O  O82  1  0.99395911  0.85111798  0.93534720  1  -1.17759  0  -0.319898  -0.562481  0  2.207337  0
O  O83  1  0.00603734  0.14887494  0.06465665  1  -1.177677  0  -0.319832  -0.562446  0  2.207291  0
O  O84  1  0.84347220  0.70170910  0.92879656  1  -1.134588  0  -0.325552  -0.546463  0  2.205957  0
O  O85  1  0.15652339  0.29829036  0.07120293  1  -1.134466  0  -0.325503  -0.54637  0  2.20596  0
O  O86  1  0.45626907  0.76626757  0.38017133  1  -1.175072  0  -0.342996  -0.58581  0  2.163216  0
O  O87  1  0.54372557  0.23374260  0.61982885  1  -1.175221  0  -0.343045  -0.585808  0  2.162976  0
O  O88  1  0.22125908  0.89758736  0.41250983  1  -1.147799  0  -0.341473  -0.561891  0  2.161663  0
O  O89  1  0.77874597  0.10241773  0.58748717  1  -1.147776  0  -0.341406  -0.561845  0  2.161781  0
O  O90  1  0.69511339  0.42504187  0.72107318  1  -1.204424  0  -0.578276  -0.734375  0  1.968535  0
O  O91  1  0.30488861  0.57495466  0.27891974  1  -1.204462  0  -0.57824  -0.734348  0  1.968584  0
O  O92  1  0.76610189  0.04077674  0.06077183  1  -1.280737  0  -0.595532  -0.799464  0  2.158053  0
O  O93  1  0.23390010  0.95921630  0.93923192  1  -1.28075  0  -0.595479  -0.79943  0  2.158052  0
