# generated using pymatgen
data_MgH8C9(NO3)2
_symmetry_space_group_name_H-M   'P 1'
_cell_length_a   7.29728829
_cell_length_b   7.42989836
_cell_length_c   10.18461390
_cell_angle_alpha   68.61087831
_cell_angle_beta   86.99074776
_cell_angle_gamma   81.72625710
_symmetry_Int_Tables_number   1
_chemical_formula_structural   MgH8C9(NO3)2
_chemical_formula_sum   'Mg2 H16 C18 N4 O12'
_cell_volume   508.80699637
_cell_formula_units_Z   2
loop_
 _symmetry_equiv_pos_site_id
 _symmetry_equiv_pos_as_xyz
  1  'x, y, z'
loop_
 _atom_site_type_symbol
 _atom_site_label
 _atom_site_symmetry_multiplicity
 _atom_site_fract_x
 _atom_site_fract_y
 _atom_site_fract_z
 _atom_site_occupancy
 _atom_site_hle17_bader_spin_density
 _atom_site_hle17_ddec_charge
 _atom_site_hle17_ddec_spin_density
 _atom_site_hle17_ddec_sum_bond_order
 _atom_site_hle17_magmom
 _atom_site_hse06_10hf_bader_spin_density
 _atom_site_hse06_10hf_ddec_charge
 _atom_site_hse06_10hf_ddec_spin_density
 _atom_site_hse06_10hf_ddec_sum_bond_order
 _atom_site_hse06_10hf_magmom
 _atom_site_hse06_bader_spin_density
 _atom_site_hse06_ddec_charge
 _atom_site_hse06_ddec_spin_density
 _atom_site_hse06_ddec_sum_bond_order
 _atom_site_hse06_magmom
 _atom_site_pbe_bader_spin_density
 _atom_site_pbe_cm5_charge
 _atom_site_pbe_ddec_charge
 _atom_site_pbe_ddec_spin_density
 _atom_site_pbe_ddec_sum_bond_order
 _atom_site_pbe_magmom
Mg  Mg0  1  0.63366578  0.40876795  0.62179934  1  0  1.486138  0  1.129101  0  0  1.374127  0  1.385175  0  0  1.397212  0  1.350614  0  0  0.813831  1.358049  0  1.409019  0
Mg  Mg1  1  0.13374415  0.03049937  0.37819914  1  0  1.4858  0  1.130025  0  0  1.375236  0  1.38408  0  0  1.398311  0  1.349498  0  0  0.813515  1.358854  0  1.408215  0
H  H2  1  0.58569606  0.90789151  0.87688421  1  0  0.322676  0  0.876019  0  0  0.308433  0  0.927698  0  0  0.31587  0  0.922337  0  0  0.327834  0.303086  0  0.931767  0
H  H3  1  0.08555236  0.78473975  0.12329313  1  0  0.321952  0  0.878582  0  0  0.308145  0  0.929208  0  0  0.315464  0  0.924021  0  0  0.327821  0.302875  0  0.933142  0
H  H4  1  0.62416838  0.63940608  0.18554520  1  0  0.131904  0  0.974773  0  0  0.136907  0  1.041443  0  0  0.141309  0  1.037746  0  0  0.108136  0.133744  0  1.044017  0
H  H5  1  0.12381823  0.82508933  0.81452476  1  0  0.131348  0  0.976159  0  0  0.136501  0  1.042499  0  0  0.141084  0  1.038604  0  0  0.108272  0.133256  0  1.045299  0
H  H6  1  0.75540171  0.14869460  0.94610450  1  0  0.120436  0  0.940134  0  0  0.131224  0  0.999239  0  0  0.13513  0  0.996406  0  0  0.111558  0.128295  0  1.001694  0
H  H7  1  0.25545591  0.09496286  0.05378308  1  0  0.120393  0  0.939341  0  0  0.13143  0  0.998334  0  0  0.135286  0  0.995578  0  0  0.1117  0.128542  0  1.000563  0
H  H8  1  0.59659476  0.85157058  0.65263437  1  0  0.099717  0  0.915195  0  0  0.109073  0  0.977091  0  0  0.112532  0  0.971989  0  0  0.146215  0.106325  0  0.981087  0
H  H9  1  0.09661746  0.50411876  0.34745583  1  0  0.099523  0  0.914753  0  0  0.108504  0  0.977578  0  0  0.112  0  0.972449  0  0  0.145986  0.10632  0  0.980228  0
H  H10  1  0.97483487  0.17761472  0.71933213  1  0  0.434495  0  0.867255  0  0  0.400577  0  0.934576  0  0  0.411717  0  0.91832  0  0  0.292889  0.39266  0  0.946163  0
H  H11  1  0.47479761  0.89670072  0.28063830  1  0  0.434033  0  0.868292  0  0  0.400519  0  0.934869  0  0  0.41164  0  0.918604  0  0  0.292856  0.392709  0  0.946292  0
H  H12  1  0.86731168  0.14369689  0.60112110  1  0  0.420827  0  0.885108  0  0  0.387203  0  0.953544  0  0  0.398996  0  0.936042  0  0  0.295549  0.378641  0  0.966238  0
H  H13  1  0.36732990  0.74464744  0.39896131  1  0  0.420982  0  0.885181  0  0  0.38707  0  0.953953  0  0  0.39889  0  0.936429  0  0  0.295712  0.379048  0  0.965663  0
H  H14  1  0.89031417  0.66941931  0.53263581  1  0  0.43902  0  0.844802  0  0  0.408177  0  0.909206  0  0  0.417424  0  0.895602  0  0  0.307309  0.401539  0  0.919026  0
H  H15  1  0.39057304  0.20178919  0.46734516  1  0  0.436811  0  0.84723  0  0  0.405987  0  0.912316  0  0  0.415243  0  0.898703  0  0  0.306221  0.399594  0  0.921626  0
H  H16  1  0.77286256  0.69570934  0.39841918  1  0  0.431422  0  0.875096  0  0  0.394686  0  0.94749  0  0  0.406003  0  0.931049  0  0  0.294874  0.386641  0  0.959143  0
H  H17  1  0.27301337  0.09403485  0.60153131  1  0  0.431522  0  0.875047  0  0  0.394802  0  0.947586  0  0  0.406121  0  0.93114  0  0  0.294771  0.387007  0  0.958915  0
C  C18  1  0.72803630  0.27369800  0.36886136  1  0  0.699165  0  3.836511  0  0  0.645758  0  4.13146  0  0  0.67969  0  4.122487  0  0  0.233305  0.622876  0  4.136603  0
C  C19  1  0.22795881  0.64267834  0.63112174  1  0  0.698621  0  3.835107  0  0  0.643873  0  4.132215  0  0  0.677741  0  4.123401  0  0  0.232351  0.621378  0  4.13715  0
C  C20  1  0.70874340  0.33694316  0.21154811  1  0  -0.086603  0  3.731531  0  0  -0.078317  0  3.98049  0  0  -0.085742  0  4.003607  0  0  -0.019283  -0.073673  0  3.965051  0
C  C21  1  0.20856024  0.54866177  0.78842663  1  0  -0.086116  0  3.730933  0  0  -0.077807  0  3.980689  0  0  -0.085111  0  4.003727  0  0  -0.019028  -0.073136  0  3.965089  0
C  C22  1  0.65422584  0.53478998  0.13295410  1  0  -0.139344  0  3.686536  0  0  -0.171951  0  3.947992  0  0  -0.171466  0  3.964195  0  0  -0.087281  -0.172134  0  3.936952  0
C  C23  1  0.15392437  0.66786794  0.86706479  1  0  -0.138738  0  3.688054  0  0  -0.17159  0  3.948612  0  0  -0.171354  0  3.964844  0  0  -0.087549  -0.171315  0  3.93738  0
C  C24  1  0.64879636  0.59083656  0.98666658  1  0  0.151372  0  3.771321  0  0  0.141706  0  4.022545  0  0  0.144733  0  4.044672  0  0  0.093534  0.139651  0  4.0075  0
C  C25  1  0.14852550  0.57757824  0.01335743  1  0  0.149512  0  3.770709  0  0  0.141183  0  4.021285  0  0  0.144251  0  4.043396  0  0  0.093251  0.138887  0  4.006514  0
C  C26  1  0.68185172  0.45216206  0.91950451  1  0  0.169637  0  3.844173  0  0  0.169052  0  4.090012  0  0  0.172875  0  4.113267  0  0  0.09594  0.166831  0  4.074182  0
C  C27  1  0.18170260  0.37175095  0.08049743  1  0  0.172904  0  3.839849  0  0  0.169691  0  4.088768  0  0  0.173517  0  4.111972  0  0  0.095959  0.16688  0  4.073705  0
C  C28  1  0.72981756  0.25481474  0.99802174  1  0  -0.149742  0  3.715777  0  0  -0.181835  0  3.972712  0  0  -0.184246  0  3.990856  0  0  -0.086684  -0.180491  0  3.960941  0
C  C29  1  0.22978023  0.25296896  0.00191147  1  0  -0.150916  0  3.713513  0  0  -0.182497  0  3.971608  0  0  -0.184898  0  3.989763  0  0  -0.086705  -0.181  0  3.959724  0
C  C30  1  0.74866449  0.20016191  0.14304333  1  0  -0.076142  0  3.773004  0  0  -0.066509  0  4.021694  0  0  -0.070261  0  4.042604  0  0  -0.016603  -0.064051  0  4.007791  0
C  C31  1  0.24859431  0.34340161  0.85689755  1  0  -0.074033  0  3.770194  0  0  -0.064914  0  4.018908  0  0  -0.068592  0  4.039711  0  0  -0.016155  -0.062767  0  4.005096  0
C  C32  1  0.81481475  0.98934515  0.22171102  1  0  0.695644  0  3.892853  0  0  0.634737  0  4.201438  0  0  0.669093  0  4.190277  0  0  0.228628  0.61155  0  4.20805  0
C  C33  1  0.31476852  0.21123484  0.77820531  1  0  0.693437  0  3.894168  0  0  0.633646  0  4.200696  0  0  0.667961  0  4.189613  0  0  0.228403  0.610505  0  4.207421  0
C  C34  1  0.62272609  0.73451566  0.75417953  1  0  0.302496  0  3.642862  0  0  0.23471  0  3.933859  0  0  0.253183  0  3.939474  0  0  0.17519  0.222429  0  3.930219  0
C  C35  1  0.12262291  0.48865949  0.24586662  1  0  0.301911  0  3.64283  0  0  0.233474  0  3.934617  0  0  0.251785  0  3.940342  0  0  0.175034  0.222051  0  3.929055  0
N  N36  1  0.66204230  0.54576089  0.77493801  1  0  -0.536811  0  3.160443  0  0  -0.481729  0  3.4264  0  0  -0.498913  0  3.439246  0  0  -0.384269  -0.470267  0  3.417672  0
N  N37  1  0.16199017  0.32070017  0.22506745  1  0  -0.536932  0  3.15953  0  0  -0.480936  0  3.425849  0  0  -0.498028  0  3.438735  0  0  -0.384054  -0.469823  0  3.417009  0
N  N38  1  0.61329054  0.76932409  0.87645365  1  0  -0.332202  0  3.35802  0  0  -0.274038  0  3.598502  0  0  -0.290707  0  3.609224  0  0  -0.372494  -0.263009  0  3.591378  0
N  N39  1  0.11308652  0.64575859  0.12363315  1  0  -0.332154  0  3.361359  0  0  -0.273651  0  3.600876  0  0  -0.290192  0  3.611673  0  0  -0.372201  -0.262636  0  3.593355  0
O  O40  1  0.98619350  0.93814509  0.25082560  1  0  -0.719114  0  2.034328  0  0  -0.664831  0  2.28508  0  0  -0.688559  0  2.272397  0  0  -0.351508  -0.648158  0  2.293166  0
O  O41  1  0.48616914  0.18903858  0.74916978  1  0  -0.718198  0  2.035206  0  0  -0.663468  0  2.284735  0  0  -0.687202  0  2.272104  0  0  -0.35098  -0.647022  0  2.29305  0
O  O42  1  0.69906953  0.86827700  0.24956654  1  0  -0.625878  0  2.03436  0  0  -0.557699  0  2.252631  0  0  -0.584285  0  2.241719  0  0  -0.297233  -0.539122  0  2.259557  0
O  O43  1  0.19901000  0.11810631  0.75029519  1  0  -0.62593  0  2.034262  0  0  -0.557711  0  2.251708  0  0  -0.584383  0  2.240936  0  0  -0.29784  -0.539487  0  2.258697  0
O  O44  1  0.86651156  0.14903063  0.43025271  1  0  -0.712956  0  2.032586  0  0  -0.646015  0  2.260168  0  0  -0.671019  0  2.248469  0  0  -0.326664  -0.628492  0  2.26784  0
O  O45  1  0.36640383  0.57928216  0.56979289  1  0  -0.712615  0  2.032519  0  0  -0.644398  0  2.260741  0  0  -0.669428  0  2.249129  0  0  -0.326067  -0.627394  0  2.267301  0
O  O46  1  0.60513822  0.34821443  0.43498006  1  0  -0.698295  0  1.968998  0  0  -0.632746  0  2.195519  0  0  -0.6555  0  2.183442  0  0  -0.339607  -0.616405  0  2.202598  0
O  O47  1  0.10515579  0.78341547  0.56495458  1  0  -0.698652  0  1.96899  0  0  -0.632396  0  2.195126  0  0  -0.655239  0  2.183128  0  0  -0.339408  -0.616565  0  2.20295  0
O  O48  1  0.84814574  0.18186892  0.68567208  1  0  -0.909992  0  1.847784  0  0  -0.857834  0  2.037639  0  0  -0.874714  0  2.00235  0  0  -0.629007  -0.846162  0  2.06282  0
O  O49  1  0.34814010  0.86728007  0.31433505  1  0  -0.910198  0  1.848875  0  0  -0.858749  0  2.039617  0  0  -0.875477  0  2.004171  0  0  -0.629014  -0.846717  0  2.063673  0
O  O50  1  0.80473033  0.60663951  0.49750942  1  0  -0.91706  0  1.859581  0  0  -0.86306  0  2.051178  0  0  -0.880539  0  2.019267  0  0  -0.614138  -0.850954  0  2.073765  0
O  O51  1  0.30508261  0.10378847  0.50251589  1  0  -0.915079  0  1.861548  0  0  -0.861753  0  2.053172  0  0  -0.879208  0  2.021218  0  0  -0.612871  -0.849441  0  2.074925  0
