# generated using pymatgen
data_FeH14C16(NO3)2
_symmetry_space_group_name_H-M   'P 1'
_cell_length_a   7.84917577
_cell_length_b   11.61533117
_cell_length_c   12.27537061
_cell_angle_alpha   118.37894153
_cell_angle_beta   100.18193524
_cell_angle_gamma   89.90388882
_symmetry_Int_Tables_number   1
_chemical_formula_structural   FeH14C16(NO3)2
_chemical_formula_sum   'Fe2 H28 C32 N4 O12'
_cell_volume   964.76032148
_cell_formula_units_Z   2
loop_
 _symmetry_equiv_pos_site_id
 _symmetry_equiv_pos_as_xyz
  1  'x, y, z'
loop_
 _atom_site_type_symbol
 _atom_site_label
 _atom_site_symmetry_multiplicity
 _atom_site_fract_x
 _atom_site_fract_y
 _atom_site_fract_z
 _atom_site_occupancy
 _atom_site_pbe_cm5_charge
 _atom_site_pbe_ddec_charge
 _atom_site_pbe_ddec_spin_density
 _atom_site_pbe_ddec_sum_bond_order
 _atom_site_pbe_magmom
Fe  Fe0  1  0.99999772  0.99999962  0.49999943  1  0.639409  0.629662  0.00533  3.086369  0.007
Fe  Fe1  1  0.50000067  0.50000141  0.50000153  1  0.640657  0.633369  0.00703  3.083325  0.008
H  H2  1  0.83457399  0.90307312  0.61189410  1  0.288542  0.367641  -0.000338  0.979957  0.0
H  H3  1  0.66585424  0.29074516  0.38851460  1  0.289485  0.369262  -0.00033  0.977611  0.0
H  H4  1  0.16542295  0.09692569  0.38810347  1  0.288564  0.367647  -0.000338  0.979934  0.0
H  H5  1  0.33414801  0.70925467  0.61148564  1  0.289486  0.369217  -0.00033  0.977692  0.0
H  H6  1  0.02189442  0.84669923  0.60737160  1  0.293411  0.373723  0.00041  0.968356  0.001
H  H7  1  0.47809551  0.23870766  0.39251863  1  0.294127  0.374888  0.000403  0.966796  0.001
H  H8  1  0.97810393  0.15330056  0.39262656  1  0.293436  0.373753  0.00041  0.9683  0.001
H  H9  1  0.52190804  0.76129219  0.60748259  1  0.294106  0.374858  0.000403  0.96683  0.001
H  H10  1  0.77165818  0.94636130  0.26217756  1  0.123705  0.106773  -5e-06  0.992805  0.0
H  H11  1  0.72597672  0.68640860  0.74007281  1  0.123211  0.105511  -5e-06  0.993687  0.0
H  H12  1  0.22834017  0.05363847  0.73781978  1  0.12371  0.106781  -5e-06  0.992796  0.0
H  H13  1  0.27402592  0.31359431  0.25993370  1  0.123217  0.105523  -5e-06  0.993745  0.0
H  H14  1  0.58368155  0.75896847  0.08278887  1  0.106778  0.113119  1e-06  0.999985  0.0
H  H15  1  0.91312160  0.67842370  0.91958930  1  0.106665  0.113231  -0.0  1.000079  0.0
H  H16  1  0.41631808  0.24103124  0.91720614  1  0.106763  0.113072  1e-06  1.000056  0.0
H  H17  1  0.08687681  0.32157629  0.08041710  1  0.106681  0.113273  -0.0  0.999987  0.0
H  H18  1  0.79871483  0.51536414  0.24187973  1  0.107183  0.114803  6e-06  0.993521  0.0
H  H19  1  0.70454048  0.27333880  0.75608218  1  0.107369  0.115562  8e-06  0.993717  0.0
H  H20  1  0.20127952  0.48463466  0.75811756  1  0.107199  0.114814  6e-06  0.993518  0.0
H  H21  1  0.29546022  0.72665905  0.24391621  1  0.107365  0.115551  8e-06  0.993731  0.0
H  H22  1  0.98513806  0.71273338  0.41133980  1  0.11823  0.084466  -3e-06  1.053429  0.0
H  H23  1  0.51746584  0.30163320  0.58743914  1  0.117934  0.084351  -4e-06  1.055228  0.0
H  H24  1  0.01485747  0.28726446  0.58865802  1  0.118247  0.084512  -3e-06  1.053366  0.0
H  H25  1  0.48253899  0.69836662  0.41256057  1  0.117953  0.084361  -4e-06  1.055126  0.0
H  H26  1  0.57561272  0.41383303  0.05779080  1  0.102671  0.100733  -2e-06  0.997049  0.0
H  H27  1  0.92638871  0.35517152  0.93946688  1  0.102936  0.101015  -2e-06  0.997143  0.0
H  H28  1  0.42438303  0.58616670  0.94220460  1  0.102676  0.10074  -2e-06  0.997068  0.0
H  H29  1  0.07360919  0.64482446  0.06053447  1  0.102903  0.100971  -2e-06  0.996974  0.0
C  C30  1  0.77214574  0.84907056  0.25412998  1  0.033534  0.069096  1.7e-05  3.953463  0.0
C  C31  1  0.72644584  0.59669937  0.74727240  1  0.035163  0.071865  5e-06  3.948018  0.0
C  C32  1  0.22785132  0.15092921  0.74586721  1  0.03348  0.069008  1.7e-05  3.953431  0.0
C  C33  1  0.27355539  0.40330255  0.25273353  1  0.035151  0.071864  5e-06  3.948057  0.0
C  C34  1  0.66738279  0.74305114  0.15433548  1  -0.089435  -0.184653  -4.9e-05  3.97122  0.0
C  C35  1  0.83085657  0.59046068  0.84713051  1  -0.089929  -0.186011  -4.5e-05  3.969334  0.0
C  C36  1  0.33261543  0.25694762  0.84566059  1  -0.089368  -0.184473  -4.9e-05  3.971215  0.0
C  C37  1  0.16914300  0.40953831  0.15287477  1  -0.09  -0.186136  -4.6e-05  3.969261  0.0
C  C38  1  0.66880275  0.61792867  0.14682499  1  -0.00374  0.129036  -8.3e-05  4.062705  0.0
C  C39  1  0.83131640  0.47216013  0.85339010  1  -0.004541  0.129361  -0.000101  4.06358  0.0
C  C40  1  0.33119288  0.38207010  0.85317080  1  -0.003624  0.12908  -8.3e-05  4.062785  0.0
C  C41  1  0.16868330  0.52783983  0.14661479  1  -0.004511  0.129417  -0.000101  4.06357  0.0
C  C42  1  0.78736685  0.60925181  0.24257721  1  -0.083659  -0.170915  -5.9e-05  3.953977  0.0
C  C43  1  0.71434514  0.36717682  0.75656533  1  -0.084325  -0.173563  -7.1e-05  3.95766  0.0
C  C44  1  0.21262879  0.39074697  0.75741940  1  -0.083727  -0.170946  -5.9e-05  3.953991  0.0
C  C45  1  0.28565582  0.63282303  0.24343559  1  -0.084312  -0.173594  -7.1e-05  3.957725  0.0
C  C46  1  0.89076957  0.71906413  0.33867016  1  0.037997  0.08067  -8.6e-05  3.931649  0.0
C  C47  1  0.61071262  0.38104418  0.66083816  1  0.037738  0.080448  -9.5e-05  3.932942  0.0
C  C48  1  0.10922349  0.28093471  0.66132863  1  0.037941  0.080567  -8.6e-05  3.931622  0.0
C  C49  1  0.38928976  0.61895666  0.33916335  1  0.037699  0.080493  -9.5e-05  3.932846  0.0
C  C50  1  0.62329776  0.03507526  0.50077064  1  0.09762  0.138858  0.00158  4.121365  0.002
C  C51  1  0.87671931  0.53448899  0.49935828  1  0.096974  0.138647  0.001497  4.124991  0.002
C  C52  1  0.37670214  0.96492654  0.49923020  1  0.097687  0.138942  0.001579  4.121406  0.002
C  C53  1  0.12328448  0.46551284  0.50064381  1  0.096989  0.138578  0.001497  4.125228  0.002
C  C54  1  0.55720885  0.94553237  0.54148256  1  0.103349  0.160117  -0.000439  4.133112  -0.001
C  C55  1  0.94288749  0.40396951  0.45853573  1  0.104849  0.161318  -0.000427  4.134714  -0.001
C  C56  1  0.44279224  0.05446846  0.45851880  1  0.103356  0.160108  -0.000439  4.133143  -0.001
C  C57  1  0.05711771  0.59603329  0.54146694  1  0.104721  0.161108  -0.000427  4.13485  -0.001
C  C58  1  0.55946309  0.50271828  0.04882721  1  -0.086219  -0.125796  -0.000121  3.990559  0.0
C  C59  1  0.94119459  0.45396956  0.95048117  1  -0.08716  -0.127395  -0.00014  3.994023  0.0
C  C60  1  0.44053254  0.49728044  0.95116692  1  -0.086301  -0.125957  -0.000121  3.990728  0.0
C  C61  1  0.05880332  0.54602646  0.04952183  1  -0.087119  -0.127328  -0.00014  3.993815  0.0
N  N62  1  0.88151902  0.84024435  0.34874589  1  -0.351764  -0.194975  -0.000126  3.596758  0.0
N  N63  1  0.61850894  0.49272777  0.65172883  1  -0.35255  -0.196421  -0.000145  3.594849  0.0
N  N64  1  0.11847663  0.15975447  0.65125236  1  -0.351733  -0.194927  -0.000126  3.596719  0.0
N  N65  1  0.38149357  0.50727407  0.34827394  1  -0.352533  -0.196446  -0.000145  3.594818  0.0
O  O66  1  0.96171611  0.92690395  0.62101229  1  -0.559454  -0.708991  -0.000231  2.217832  0.0
O  O67  1  0.53857877  0.30546759  0.37955056  1  -0.560686  -0.711635  -0.000239  2.219846  0.0
O  O68  1  0.03828083  0.07309486  0.37898529  1  -0.559482  -0.708959  -0.00023  2.217765  0.0
O  O69  1  0.46142490  0.69453325  0.62045109  1  -0.560682  -0.711598  -0.000239  2.219943  0.0
O  O70  1  0.76910208  0.08080353  0.50001892  1  -0.276758  -0.362439  -0.003629  2.478793  -0.005
O  O71  1  0.73077222  0.58093789  0.50001987  1  -0.275765  -0.361214  -0.003558  2.476937  -0.004
O  O72  1  0.23089887  0.91919628  0.49998035  1  -0.276811  -0.362506  -0.003629  2.478871  -0.005
O  O73  1  0.26923298  0.41906489  0.49998198  1  -0.275809  -0.36122  -0.003558  2.477063  -0.004
O  O74  1  0.62686015  0.88001259  0.59213433  1  -0.281318  -0.4055  0.000112  2.324087  0.0
O  O75  1  0.87329359  0.28772991  0.40800210  1  -0.282129  -0.406365  0.000116  2.326639  0.0
O  O76  1  0.37313821  0.11998724  0.40786548  1  -0.281392  -0.405594  0.000112  2.324057  0.0
O  O77  1  0.12671161  0.71227288  0.59199975  1  -0.282031  -0.406206  0.000116  2.326715  0.0
