# generated using pymatgen
data_CoH30C26(NO2)4
_symmetry_space_group_name_H-M   'P 1'
_cell_length_a   7.30818958
_cell_length_b   9.33841321
_cell_length_c   9.91020685
_cell_angle_alpha   112.88370884
_cell_angle_beta   92.80293412
_cell_angle_gamma   97.44076581
_symmetry_Int_Tables_number   1
_chemical_formula_structural   CoH30C26(NO2)4
_chemical_formula_sum   'Co1 H30 C26 N4 O8'
_cell_volume   614.20513932
_cell_formula_units_Z   1
loop_
 _symmetry_equiv_pos_site_id
 _symmetry_equiv_pos_as_xyz
  1  'x, y, z'
loop_
 _atom_site_type_symbol
 _atom_site_label
 _atom_site_symmetry_multiplicity
 _atom_site_fract_x
 _atom_site_fract_y
 _atom_site_fract_z
 _atom_site_occupancy
 _atom_site_hle17_ddec_charge
 _atom_site_hle17_ddec_spin_density
 _atom_site_hle17_ddec_sum_bond_order
 _atom_site_hle17_magmom
 _atom_site_hse06_10hf_ddec_charge
 _atom_site_hse06_10hf_ddec_spin_density
 _atom_site_hse06_10hf_ddec_sum_bond_order
 _atom_site_hse06_10hf_magmom
 _atom_site_hse06_ddec_charge
 _atom_site_hse06_ddec_spin_density
 _atom_site_hse06_ddec_sum_bond_order
 _atom_site_hse06_magmom
 _atom_site_pbe_cm5_charge
 _atom_site_pbe_ddec_charge
 _atom_site_pbe_ddec_spin_density
 _atom_site_pbe_ddec_sum_bond_order
 _atom_site_pbe_magmom
Co  Co0  1  0.49999895  0.50000117  0.00000309  1  0.730615  1.156096  2.395125  1.045  0.727512  1.0432  2.810679  0.974  0.795504  1.032406  2.735474  0.973  0.631169  0.690477  1.046101  2.854734  0.967
H  H1  1  0.89515982  0.54427894  0.07783227  1  0.095711  6.8e-05  0.960525  0.001  0.102054  -0.000175  1.026428  0.0  0.10511  -8.7e-05  1.02229  0.0  0.12445  0.099492  -0.0002  1.029987  0.0
H  H2  1  0.10484061  0.45571789  0.92216613  1  0.095724  6.8e-05  0.960516  0.001  0.102062  -0.000175  1.026438  0.0  0.105126  -8.7e-05  1.022279  0.0  0.124453  0.099499  -0.0002  1.029996  0.0
H  H3  1  0.37116783  0.66502563  0.27289580  1  0.403841  -0.00042  0.906786  -0.001  0.374355  4.4e-05  0.971906  0.0  0.385063  -0.000101  0.956136  0.0  0.283353  0.367752  0.000209  0.981513  0.0
H  H4  1  0.62883689  0.33497944  0.72710782  1  0.403814  -0.000419  0.90684  -0.001  0.374318  4.5e-05  0.971982  0.0  0.385028  -0.000101  0.956209  0.0  0.283322  0.367716  0.000209  0.981587  0.0
H  H5  1  0.41378671  0.75598635  0.16692742  1  0.395325  -0.000935  0.925794  -0.001  0.362365  -0.000377  0.995882  0.0  0.373774  -0.000452  0.979256  0.0  0.278318  0.354422  -0.00032  1.007321  0.0
H  H6  1  0.58621091  0.24401751  0.83307459  1  0.395259  -0.000935  0.925848  -0.001  0.362284  -0.000377  0.99597  0.0  0.373692  -0.000452  0.979345  0.0  0.278252  0.354342  -0.00032  1.007404  0.0
H  H7  1  0.48837839  0.08752929  0.25464635  1  0.300568  1.8e-05  0.920036  0.0  0.280425  1.1e-05  0.989449  0.0  0.288006  1.1e-05  0.983986  0.0  0.307144  0.275174  -2e-06  0.993052  0.0
H  H8  1  0.51162545  0.91247108  0.74535447  1  0.300517  1.7e-05  0.920097  0.0  0.28038  1.2e-05  0.989506  0.0  0.287959  1.1e-05  0.984049  0.0  0.307136  0.27513  -2e-06  0.993105  0.0
H  H9  1  0.10673672  0.48668089  0.24843409  1  0.128366  -0.000441  0.953894  -0.001  0.13678  -3.3e-05  1.012533  0.0  0.140588  -4e-05  1.011011  0.0  0.113969  0.133678  9e-06  1.014172  0.0
H  H10  1  0.89326436  0.51331245  0.75155998  1  0.128434  -0.000441  0.953837  -0.001  0.13682  -3.3e-05  1.012485  0.0  0.140627  -4e-05  1.010967  0.0  0.113996  0.133718  9e-06  1.014124  0.0
H  H11  1  0.96720450  0.36330228  0.41330209  1  0.097896  -7.1e-05  0.966  0.001  0.108824  -0.000247  1.029111  0.0  0.111529  -0.000124  1.026465  0.0  0.109996  0.10683  -0.000363  1.031253  0.0
H  H12  1  0.03279910  0.63668990  0.58669160  1  0.097845  -7.2e-05  0.965989  0.001  0.108855  -0.000247  1.029027  0.0  0.111563  -0.000124  1.026375  0.0  0.109991  0.106858  -0.000363  1.031177  0.0
H  H13  1  0.42831610  0.36887065  0.22055493  1  0.098833  7.9e-05  0.942997  0.001  0.104467  -0.000159  1.008927  0.0  0.107688  -8.4e-05  1.005267  0.0  0.125087  0.102055  -0.000195  1.011771  0.0
H  H14  1  0.57168502  0.63113671  0.77945251  1  0.098728  7.9e-05  0.943007  0.001  0.10437  -0.000159  1.008931  0.0  0.107588  -8.4e-05  1.005279  0.0  0.125051  0.101958  -0.000195  1.011773  0.0
H  H15  1  0.41670330  0.11455702  0.54864916  1  0.058304  -5e-06  0.941041  0.0  0.074326  1.2e-05  1.006091  0.0  0.075172  3e-06  1.005253  0.0  0.105526  0.073498  1.5e-05  1.006827  0.0
H  H16  1  0.58329892  0.88544920  0.45135585  1  0.058109  -5e-06  0.94106  0.0  0.07421  1.2e-05  1.006139  0.0  0.075062  3e-06  1.005306  0.0  0.105475  0.073379  1.5e-05  1.006878  0.0
H  H17  1  0.32238786  0.96242196  0.37637805  1  0.06205  0.000209  0.941401  0.0  0.080948  0.000359  1.001164  0.0  0.081751  0.000241  1.000422  0.0  0.108262  0.080161  0.000456  1.001826  0.0
H  H18  1  0.67761950  0.03758191  0.62362921  1  0.061967  0.000209  0.941392  0.0  0.080924  0.000359  1.001151  0.0  0.081733  0.000241  1.000414  0.0  0.108259  0.080132  0.000456  1.00182  0.0
H  H19  1  0.09745894  0.13098878  0.34584999  1  0.064526  -5.9e-05  0.945063  0.0  0.083636  -4.4e-05  1.006639  0.0  0.083419  -2.3e-05  1.008808  0.0  0.0872  0.083529  -6.6e-05  1.005372  0.0
H  H20  1  0.90254423  0.86900807  0.65414848  1  0.064533  -5.9e-05  0.945034  0.0  0.083633  -4.4e-05  1.00668  0.0  0.083416  -2.4e-05  1.008849  0.0  0.087179  0.083525  -6.6e-05  1.00541  0.0
H  H21  1  0.19872650  0.28500576  0.51454246  1  0.06651  -1.3e-05  0.95092  0.0  0.083448  -1.9e-05  1.014859  0.0  0.0831  -1.4e-05  1.01718  0.0  0.087757  0.083635  -1.9e-05  1.013314  0.0
H  H22  1  0.80127137  0.71499223  0.48545533  1  0.06648  -1.3e-05  0.950942  0.0  0.083464  -1.9e-05  1.014879  0.0  0.083118  -1.4e-05  1.017196  0.0  0.087751  0.083651  -1.9e-05  1.013334  0.0
H  H23  1  0.10560860  0.11248758  0.64953133  1  0.063488  -5.7e-05  0.93469  0.0  0.084752  -4.3e-05  0.991407  0.0  0.084833  -2.4e-05  0.992946  0.0  0.086719  0.084095  -5.5e-05  0.991141  0.0
H  H24  1  0.89439064  0.88751042  0.35046648  1  0.063473  -5.6e-05  0.934659  0.0  0.084742  -4.3e-05  0.991371  0.0  0.084824  -2.4e-05  0.992908  0.0  0.086702  0.084084  -5.5e-05  0.991108  0.0
H  H25  1  0.91655172  0.15338214  0.56191404  1  0.062617  7.7e-05  0.942646  0.0  0.082093  0.000126  1.001881  0.0  0.082483  8.7e-05  1.002929  0.0  0.086838  0.081701  0.000166  1.001173  0.0
H  H26  1  0.08344889  0.84661588  0.43808381  1  0.062585  7.6e-05  0.942642  0.0  0.082063  0.000126  1.001872  0.0  0.082452  8.7e-05  1.002921  0.0  0.086824  0.08167  0.000166  1.001165  0.0
H  H27  1  0.05506075  0.77987189  0.07074787  1  0.098993  -7.7e-05  0.96073  0.0  0.107414  -1.1e-05  1.026122  0.0  0.110575  -7e-06  1.024096  0.0  0.102287  0.10476  3.6e-05  1.028407  0.0
H  H28  1  0.94492862  0.22012489  0.92924727  1  0.099026  -7.7e-05  0.960751  0.0  0.107441  -1e-05  1.026118  0.0  0.11061  -7e-06  1.024082  0.0  0.102304  0.104786  3.6e-05  1.028403  0.0
H  H29  1  0.31671139  0.93185359  0.00952295  1  0.10138  -3.4e-05  0.984731  0.0  0.106598  -3.9e-05  1.054259  0.0  0.110232  -1.9e-05  1.052525  0.0  0.097667  0.103984  -3.9e-05  1.055503  0.0
H  H30  1  0.68327545  0.06814435  0.99047258  1  0.101467  -3.4e-05  0.984689  0.0  0.106773  -4e-05  1.05412  0.0  0.110419  -1.9e-05  1.052367  0.0  0.097753  0.104157  -3.9e-05  1.055366  0.0
C  C31  1  0.84094358  0.49053508  0.15011959  1  0.134513  -0.023094  3.6231  -0.015  0.103817  -0.008192  3.87583  -0.005  0.116496  -0.005404  3.888692  -0.003  0.052964  0.094427  -0.009559  3.868741  -0.006
C  C32  1  0.15905727  0.50946410  0.84987971  1  0.134486  -0.023091  3.622988  -0.015  0.103786  -0.008191  3.875708  -0.005  0.116467  -0.005404  3.888571  -0.003  0.052965  0.094396  -0.009558  3.868617  -0.006
C  C33  1  0.95731929  0.45817422  0.24612198  1  -0.110434  0.006487  3.718675  0.009  -0.122596  0.000893  3.973233  0.002  -0.130515  0.000835  3.99028  0.001  -0.077499  -0.117702  0.000447  3.963329  0.001
C  C34  1  0.04268340  0.54182029  0.75387358  1  -0.110515  0.006486  3.7186  0.009  -0.122634  0.000893  3.973186  0.002  -0.130554  0.000834  3.990232  0.001  -0.077506  -0.117742  0.000447  3.963283  0.001
C  C35  1  0.88006755  0.39013447  0.33697256  1  -0.029448  -0.025637  3.709559  -0.016  -0.059244  -0.009057  3.957818  -0.005  -0.049923  -0.00542  3.970181  -0.003  -0.065416  -0.066296  -0.011466  3.950565  -0.007
C  C36  1  0.11993718  0.60986357  0.66302538  1  -0.029369  -0.025634  3.709433  -0.016  -0.059249  -0.009057  3.957705  -0.005  -0.049926  -0.005421  3.970065  -0.003  -0.065445  -0.066303  -0.011465  3.950452  -0.007
C  C37  1  0.68697419  0.35545985  0.32728054  1  -0.096652  0.005771  3.774505  0.009  -0.072254  0.000775  4.014237  0.002  -0.083241  0.000725  4.034366  0.001  -0.006793  -0.065561  0.000409  4.000979  0.001
C  C38  1  0.31302809  0.64453932  0.67272080  1  -0.096672  0.005769  3.774516  0.009  -0.072287  0.000775  4.014277  0.002  -0.083266  0.000726  4.034415  0.001  -0.006731  -0.065596  0.000409  4.001009  0.001
C  C39  1  0.57886310  0.39070655  0.22808300  1  0.100977  -0.021516  3.645194  -0.014  0.060858  -0.007473  3.901167  -0.005  0.072998  -0.005395  3.915187  -0.003  0.048804  0.052359  -0.00846  3.893949  -0.005
C  C40  1  0.42113732  0.60929731  0.77192108  1  0.10109  -0.021513  3.645322  -0.014  0.060974  -0.007472  3.901293  -0.005  0.073118  -0.005394  3.915311  -0.003  0.048787  0.052471  -0.008459  3.894074  -0.005
C  C41  1  0.59228091  0.29261266  0.42805334  1  0.556  -0.000422  3.853001  -0.001  0.505495  0.00011  4.141176  0.0  0.535504  4.3e-05  4.140425  0.0  0.247461  0.486255  0.000104  4.139816  0.0
C  C42  1  0.40771887  0.70738766  0.57194940  1  0.555994  -0.00042  3.852838  -0.001  0.505556  0.00011  4.140919  0.0  0.535532  4.3e-05  4.140211  0.0  0.247519  0.486335  0.000104  4.139537  0.0
C  C43  1  0.34803380  0.09038443  0.43916914  1  0.065145  7.9e-05  3.650787  0.0  0.006354  0.000182  3.913926  0.0  0.012205  0.00012  3.923817  0.0  -0.061066  0.002547  0.000297  3.907216  0.0
C  C44  1  0.65197170  0.90961710  0.56083517  1  0.065553  8e-05  3.650379  0.0  0.006582  0.000183  3.913782  0.0  0.012402  0.000121  3.923713  0.0  -0.06099  0.002775  0.000297  3.907065  0.0
C  C45  1  0.16562483  0.15612619  0.45609267  1  -0.13455  2.9e-05  3.683202  0.0  -0.175441  1.5e-05  3.945284  0.0  -0.17721  8e-06  3.95998  0.0  -0.168451  -0.173861  -1.1e-05  3.934935  0.0
C  C46  1  0.83438148  0.84387304  0.54390575  1  -0.13457  2.8e-05  3.683039  0.0  -0.175556  1.5e-05  3.945378  0.0  -0.177319  8e-06  3.960085  0.0  -0.168436  -0.17397  -1.1e-05  3.935021  0.0
C  C47  1  0.03481639  0.08857837  0.54026585  1  -0.104258  -1.1e-05  3.682085  0.0  -0.1402  3.7e-05  3.939328  0.0  -0.141403  2.9e-05  3.954769  0.0  -0.166726  -0.139316  5.5e-05  3.928903  0.0
C  C48  1  0.96518578  0.91142085  0.45973147  1  -0.104171  -9e-06  3.681985  0.0  -0.140069  3.7e-05  3.939236  0.0  -0.14127  2.9e-05  3.954674  0.0  -0.166676  -0.139183  5.5e-05  3.928811  0.0
C  C49  1  0.68832989  0.81860203  0.06323970  1  0.63069  -0.005784  3.88022  -0.003  0.581244  -0.003082  4.187437  -0.002  0.619121  -0.001127  4.178003  0.0  0.214486  0.555023  -0.004645  4.193425  -0.003
C  C50  1  0.31166457  0.18139945  0.93676135  1  0.630665  -0.005785  3.88034  -0.003  0.581209  -0.003082  4.187548  -0.002  0.619081  -0.001127  4.178118  0.0  0.214434  0.554983  -0.004644  4.193538  -0.003
C  C51  1  0.85120467  0.91358804  0.03421993  1  -0.061831  -0.002382  3.765668  -0.001  -0.041943  -0.000977  4.00302  -0.001  -0.0482  -0.000531  4.024082  0.0  -0.019314  -0.037746  -0.001501  3.988598  -0.001
C  C52  1  0.14878976  0.08640642  0.96577443  1  -0.061869  -0.002379  3.765813  -0.001  -0.041971  -0.000977  4.003111  -0.001  -0.048225  -0.000531  4.024175  0.0  -0.019329  -0.037755  -0.001502  3.988659  -0.001
C  C53  1  0.03026904  0.87566683  0.03901754  1  -0.073646  -0.001071  3.735642  -0.001  -0.094775  -0.000379  3.983512  0.0  -0.095165  -0.000234  4.003709  0.0  -0.087401  -0.094484  -0.000599  3.970781  0.0
C  C54  1  0.96972168  0.12432998  0.96097663  1  -0.073601  -0.001077  3.735799  -0.001  -0.094742  -0.000378  3.983713  0.0  -0.095142  -0.000234  4.003913  0.0  -0.087404  -0.094455  -0.000599  3.970975  0.0
C  C55  1  0.17762755  0.96104598  0.00444433  1  -0.086101  -0.000955  3.734382  -0.001  -0.110455  -0.000484  3.98778  0.0  -0.112503  -0.00024  4.009092  0.0  -0.093227  -0.10883  -0.000711  3.973091  0.0
C  C56  1  0.82236403  0.03894851  0.99554595  1  -0.086242  -0.00095  3.734401  -0.001  -0.110668  -0.000484  3.987808  0.0  -0.112723  -0.00024  4.00912  0.0  -0.093311  -0.109038  -0.000711  3.973122  0.0
N  N57  1  0.65357819  0.45774555  0.14041690  1  -0.24336  -0.011532  3.342599  -0.005  -0.194333  -0.009042  3.622991  -0.006  -0.22022  -0.008136  3.638052  -0.005  -0.337484  -0.179467  -0.009351  3.612909  -0.006
N  N58  1  0.34642449  0.54225599  0.85958434  1  -0.24334  -0.011532  3.342535  -0.005  -0.194323  -0.009042  3.622943  -0.006  -0.220213  -0.008135  3.638004  -0.005  -0.337464  -0.179457  -0.00935  3.612858  -0.006
N  N59  1  0.47286055  0.15734059  0.36120939  1  -0.430002  0.000222  3.32446  0.0  -0.372641  0.000148  3.578478  0.0  -0.394822  8.6e-05  3.587756  0.0  -0.418338  -0.357207  0.000123  3.57101  0.0
N  N60  1  0.52714216  0.84266094  0.63879285  1  -0.430038  0.000222  3.324366  0.0  -0.37266  0.000148  3.578445  0.0  -0.394821  8.6e-05  3.587744  0.0  -0.418382  -0.357237  0.000123  3.570974  0.0
O  O61  1  0.69360069  0.66986184  0.01554571  1  -0.569778  -0.018965  2.205144  -0.015  -0.541142  -0.006619  2.492601  -0.005  -0.582522  -0.008814  2.484911  -0.008  -0.298074  -0.512718  -0.004875  2.496327  -0.004
O  O62  1  0.30639533  0.33013957  0.98446241  1  -0.569713  -0.018969  2.205188  -0.015  -0.541126  -0.006619  2.492577  -0.005  -0.582502  -0.008813  2.48488  -0.008  -0.298045  -0.512706  -0.004875  2.496311  -0.004
O  O63  1  0.33806702  0.66218377  0.17366228  1  -0.813426  0.025735  1.898838  0.044  -0.779668  0.024052  2.092755  0.039  -0.804906  0.019096  2.05947  0.032  -0.581999  -0.759914  0.029754  2.113037  0.048
O  O64  1  0.66193477  0.33782010  0.82634184  1  -0.813381  0.025734  1.898902  0.044  -0.779608  0.024051  2.0928  0.039  -0.804847  0.019095  2.059519  0.032  -0.581927  -0.759851  0.029754  2.113076  0.048
O  O65  1  0.55696865  0.88520119  0.12581214  1  -0.621022  -0.003409  2.012204  -0.003  -0.563485  -0.002027  2.238852  -0.002  -0.587764  -0.001293  2.228116  -0.001  -0.30763  -0.546917  -0.002736  2.245829  -0.002
O  O66  1  0.44302596  0.11480149  0.87418734  1  -0.621047  -0.003407  2.012252  -0.003  -0.563492  -0.002027  2.238953  -0.002  -0.587773  -0.001292  2.22822  -0.001  -0.307621  -0.546925  -0.002736  2.245934  -0.002
O  O67  1  0.62198207  0.36877778  0.56468605  1  -0.57651  6.4e-05  1.970091  0.0  -0.5258  0.000113  2.196854  0.0  -0.54898  8.1e-05  2.190117  0.0  -0.294427  -0.510567  3.9e-05  2.200244  0.0
O  O68  1  0.37802563  0.63122848  0.43531908  1  -0.576547  6.5e-05  1.970132  0.0  -0.525844  0.000113  2.196862  0.0  -0.549012  8.1e-05  2.19014  0.0  -0.294494  -0.510618  3.9e-05  2.200248  0.0
