# generated using pymatgen
data_ErH11C14(NO4)2
_symmetry_space_group_name_H-M   'P 1'
_cell_length_a   8.31447677
_cell_length_b   10.81897584
_cell_length_c   22.34678692
_cell_angle_alpha   94.02460442
_cell_angle_beta   90.01876436
_cell_angle_gamma   112.56337951
_symmetry_Int_Tables_number   1
_chemical_formula_structural   ErH11C14(NO4)2
_chemical_formula_sum   'Er4 H44 C56 N8 O32'
_cell_volume   1850.92875412
_cell_formula_units_Z   4
loop_
 _symmetry_equiv_pos_site_id
 _symmetry_equiv_pos_as_xyz
  1  'x, y, z'
loop_
 _atom_site_type_symbol
 _atom_site_label
 _atom_site_symmetry_multiplicity
 _atom_site_fract_x
 _atom_site_fract_y
 _atom_site_fract_z
 _atom_site_occupancy
 _atom_site_pbe_bader_charge
 _atom_site_pbe_bader_spin_density
 _atom_site_pbe_cm5_charge
 _atom_site_pbe_ddec_charge
 _atom_site_pbe_ddec_spin_density
 _atom_site_pbe_ddec_sum_bond_order
 _atom_site_pbe_magmom
Er  Er0  1  0.30867696  0.50086604  0.77373720  1  2.165867  0  1.523373  2.088425  0  2.136686  0
Er  Er1  1  0.80767077  0.49890453  0.72642183  1  2.16856  0  1.523398  2.088431  0  2.136154  0
Er  Er2  1  0.69131384  0.49912099  0.22626214  1  2.165847  0  1.52343  2.088459  0  2.13664  0
Er  Er3  1  0.19231965  0.50108894  0.27358281  1  2.168647  0  1.523442  2.088445  0  2.136129  0
H  H4  1  0.67903658  0.81864356  0.91615191  1  0.123949  0  0.112776  0.125564  0  0.996627  0
H  H5  1  0.86085804  0.18150519  0.58389429  1  0.128143  0  0.112891  0.126066  0  0.996227  0
H  H6  1  0.32095897  0.18136500  0.08385316  1  0.12383  0  0.112808  0.125562  0  0.996791  0
H  H7  1  0.13915257  0.81852389  0.41609941  1  0.127265  0  0.112936  0.126019  0  0.996275  0
H  H8  1  0.23801032  0.99939342  0.92540910  1  0.110824  0  0.105403  0.107276  0  1.00375  0
H  H9  1  0.23887042  0.00035002  0.57463343  1  0.101181  0  0.105898  0.108  0  1.003511  0
H  H10  1  0.76198283  0.00059830  0.07459321  1  0.110943  0  0.10541  0.107281  0  1.003784  0
H  H11  1  0.76112551  0.99965690  0.42535138  1  0.099399  0  0.105889  0.107981  0  1.003492  0
H  H12  1  0.24827717  0.88273882  0.82634779  1  0.096535  0  0.108238  0.133203  0  0.982609  0
H  H13  1  0.36614428  0.11709347  0.67364862  1  0.070497  0  0.108744  0.133116  0  0.981963  0
H  H14  1  0.75171494  0.11725802  0.17365391  1  0.096409  0  0.108203  0.133109  0  0.98261  0
H  H15  1  0.63384520  0.88291018  0.32633824  1  0.071328  0  0.108745  0.132949  0  0.982015  0
H  H16  1  0.37597479  0.22717191  0.45547901  1  0.085404  0  0.114687  0.135786  0  0.962597  0
H  H17  1  0.14841865  0.77301296  0.04467352  1  0.084105  0  0.11491  0.136273  0  0.962927  0
H  H18  1  0.62406097  0.77284492  0.54452429  1  0.08544  0  0.114737  0.135794  0  0.962675  0
H  H19  1  0.85158032  0.22696873  0.95532821  1  0.084151  0  0.11491  0.136182  0  0.963004  0
H  H20  1  0.14108578  0.29646628  0.42419907  1  0.065234  0  0.106204  0.097611  0  1.029691  0
H  H21  1  0.84428354  0.70355815  0.07583487  1  0.067964  0  0.10599  0.097373  0  1.03015  0
H  H22  1  0.85894549  0.70353673  0.57580164  1  0.065373  0  0.106206  0.097618  0  1.029671  0
H  H23  1  0.15571474  0.29642940  0.92416854  1  0.067998  0  0.105953  0.097357  0  1.030263  0
H  H24  1  0.21197158  0.54183708  0.59052393  1  0.079816  0  0.109307  0.110522  0  1.036867  0
H  H25  1  0.67061401  0.45807810  0.90948593  1  0.096952  0  0.109427  0.110741  0  1.035575  0
H  H26  1  0.78804355  0.45819142  0.40946615  1  0.079962  0  0.109288  0.110446  0  1.036742  0
H  H27  1  0.32937543  0.54191341  0.09051815  1  0.103482  0  0.109439  0.110764  0  1.03558  0
H  H28  1  0.61042964  0.35591202  0.59348876  1  0.64804  0  0.313915  0.363994  0  0.949312  0
H  H29  1  0.25491333  0.64440893  0.90679968  1  0.652101  0  0.314146  0.364197  0  0.94862  0
H  H30  1  0.38958986  0.64412281  0.40651603  1  0.648306  0  0.313943  0.363897  0  0.94929  0
H  H31  1  0.74507233  0.35556538  0.09320476  1  0.652111  0  0.314201  0.364234  0  0.948478  0
H  H32  1  0.40587810  0.41715256  0.89643107  1  0.647596  0  0.29682  0.358872  0  0.994324  0
H  H33  1  0.98814448  0.58261103  0.60371535  1  0.65125  0  0.296925  0.359089  0  0.994075  0
H  H34  1  0.59411514  0.58283452  0.10356783  1  0.647773  0  0.296802  0.35879  0  0.994416  0
H  H35  1  0.01188060  0.41740126  0.39629217  1  0.651042  0  0.296919  0.359038  0  0.99411  0
H  H36  1  0.31958806  0.28730330  0.85084453  1  0.591961  0  0.335476  0.416979  0  0.862752  0
H  H37  1  0.03173132  0.71246725  0.64929905  1  0.594788  0  0.335677  0.417153  0  0.863311  0
H  H38  1  0.68039437  0.71268141  0.14915737  1  0.592165  0  0.335446  0.416878  0  0.862446  0
H  H39  1  0.96826200  0.28753925  0.35070634  1  0.594677  0  0.335683  0.417203  0  0.863167  0
H  H40  1  0.17510839  0.71252957  0.75384367  1  0.647705  0  0.292052  0.383461  0  0.967546  0
H  H41  1  0.46288751  0.28730246  0.74622952  1  0.641577  0  0.29263  0.384236  0  0.966752  0
H  H42  1  0.82487158  0.28745261  0.24616257  1  0.64784  0  0.292078  0.383447  0  0.967594  0
H  H43  1  0.53711107  0.71268810  0.25376554  1  0.641563  0  0.29268  0.384258  0  0.966738  0
H  H44  1  0.29788920  0.69179682  0.70245020  1  0.599185  0  0.318101  0.408863  0  0.895385  0
H  H45  1  0.60612838  0.30808590  0.79772453  1  0.639356  0  0.3178  0.407671  0  0.896662  0
H  H46  1  0.70208569  0.30817760  0.29755335  1  0.598896  0  0.318107  0.408789  0  0.895478  0
H  H47  1  0.39385372  0.69188129  0.20227188  1  0.639088  0  0.317707  0.407423  0  0.897044  0
C  C48  1  0.63683838  0.66758874  0.81826223  1  1.454055  0  0.206358  0.639276  0  4.146231  0
C  C49  1  0.96951847  0.33228039  0.68185459  1  1.467977  0  0.205638  0.638118  0  4.148819  0
C  C50  1  0.36316458  0.33240335  0.18174547  1  1.45441  0  0.206344  0.639108  0  4.146307  0
C  C51  1  0.03047992  0.66772664  0.31814636  1  1.468758  0  0.205608  0.637998  0  4.148576  0
C  C52  1  0.80682676  0.76275271  0.84164576  1  0.055992  0  -0.038688  -0.185055  0  3.977364  0
C  C53  1  0.04452975  0.23720734  0.65841040  1  0.04098  0  -0.038449  -0.183501  0  3.977307  0
C  C54  1  0.19317173  0.23724487  0.15835823  1  0.056638  0  -0.038715  -0.185032  0  3.977223  0
C  C55  1  0.95545694  0.76280275  0.34158176  1  0.04039  0  -0.038149  -0.183049  0  3.977315  0
C  C56  1  0.80407072  0.83407618  0.89609779  1  -0.077093  0  -0.070565  -0.119782  0  3.944916  0
C  C57  1  0.97044981  0.16597668  0.60394090  1  -0.075674  0  -0.070757  -0.12066  0  3.944812  0
C  C58  1  0.19592769  0.16592847  0.10390615  1  -0.076761  0  -0.070597  -0.11973  0  3.944921  0
C  C59  1  0.02955129  0.83404781  0.39604895  1  -0.074123  0  -0.07096  -0.120944  0  3.94483  0
C  C60  1  0.95616320  0.91734985  0.92715547  1  0.414498  0  0.067236  0.128718  0  4.109313  0
C  C61  1  0.03919752  0.08264622  0.57287927  1  0.406729  0  0.067978  0.129607  0  4.106072  0
C  C62  1  0.04382792  0.08264984  0.07284774  1  0.414231  0  0.067274  0.128787  0  4.108969  0
C  C63  1  0.96080755  0.91738138  0.42710986  1  0.405922  0  0.067959  0.129636  0  4.106151  0
C  C64  1  0.11801486  0.93584347  0.90081801  1  -0.089106  0  -0.080759  -0.108317  0  3.974839  0
C  C65  1  0.18255629  0.06401026  0.59920522  1  -0.067314  0  -0.081338  -0.109498  0  3.973674  0
C  C66  1  0.88197499  0.06415126  0.09918447  1  -0.089326  0  -0.080797  -0.108465  0  3.974865  0
C  C67  1  0.81744548  0.93599872  0.40077926  1  -0.065463  0  -0.081324  -0.109492  0  3.973419  0
C  C68  1  0.12321048  0.87010611  0.84591999  1  -0.052974  0  -0.107215  -0.210415  0  3.94584  0
C  C69  1  0.25360653  0.12973664  0.65409494  1  -0.02834  0  -0.107785  -0.20978  0  3.944876  0
C  C70  1  0.87678716  0.12989459  0.15408328  1  -0.052747  0  -0.107182  -0.210164  0  3.945876  0
C  C71  1  0.74639208  0.87026601  0.34589186  1  -0.028939  0  -0.107725  -0.20943  0  3.944603  0
C  C72  1  0.96901032  0.77827748  0.81503668  1  0.597269  0  0.098198  0.364948  0  4.056036  0
C  C73  1  0.19120292  0.22161083  0.68500916  1  0.585868  0  0.097681  0.363762  0  4.057982  0
C  C74  1  0.03098055  0.22171688  0.18496891  1  0.596591  0  0.098156  0.364705  0  4.056245  0
C  C75  1  0.80879413  0.77838628  0.31498180  1  0.584785  0  0.097606  0.36354  0  4.058311  0
C  C76  1  0.46217069  0.48523173  0.63850235  1  1.533087  0  0.233808  0.660477  0  4.143364  0
C  C77  1  0.97739836  0.51479063  0.86167443  1  1.532662  0  0.233562  0.658772  0  4.145513  0
C  C78  1  0.53783319  0.51478147  0.36149761  1  1.532931  0  0.233946  0.660819  0  4.143199  0
C  C79  1  0.02259685  0.48519318  0.13832652  1  1.532685  0  0.233505  0.658523  0  4.145944  0
C  C80  1  0.38008913  0.43606985  0.57802406  1  0.061538  0  -0.032157  -0.191083  0  3.991786  0
C  C81  1  0.94428978  0.56394152  0.92212184  1  0.099119  0  -0.031735  -0.188936  0  3.992017  0
C  C82  1  0.61992781  0.56395264  0.42197419  1  0.060475  0  -0.032234  -0.191328  0  3.992106  0
C  C83  1  0.05570006  0.43604356  0.07787694  1  0.099068  0  -0.031706  -0.188799  0  3.992183  0
C  C84  1  0.43071367  0.34774210  0.53939007  1  0.570779  0  0.108488  0.33459  0  4.018997  0
C  C85  1  0.08304055  0.65238485  0.96077907  1  0.53091  0  0.107945  0.332547  0  4.023818  0
C  C86  1  0.56930742  0.65227906  0.46061080  1  0.57097  0  0.108532  0.334523  0  4.019156  0
C  C87  1  0.91695159  0.34760002  0.03922150  1  0.530923  0  0.107976  0.332552  0  4.023752  0
C  C88  1  0.34021922  0.29762729  0.48415491  1  -0.008109  0  -0.097216  -0.189727  0  3.964474  0
C  C89  1  0.04239372  0.70249005  0.01597433  1  0.086473  0  -0.09781  -0.1902  0  3.966027  0
C  C90  1  0.65980781  0.70239371  0.51584728  1  -0.008208  0  -0.097223  -0.189721  0  3.964616  0
C  C91  1  0.95760207  0.29749972  0.98402742  1  0.086418  0  -0.097846  -0.190057  0  3.966224  0
C  C92  1  0.20839140  0.33675079  0.46719629  1  -0.013826  0  -0.075123  -0.102652  0  3.966759  0
C  C93  1  0.87146276  0.66326204  0.03286814  1  -0.148289  0  -0.074832  -0.103148  0  3.965618  0
C  C94  1  0.79163217  0.66326330  0.53280462  1  -0.014784  0  -0.075226  -0.102745  0  3.966357  0
C  C95  1  0.12853135  0.33672678  0.96713310  1  -0.148935  0  -0.074735  -0.10318  0  3.96594  0
C  C96  1  0.15899072  0.42675666  0.50440693  1  0.381848  0  0.075733  0.135434  0  4.07142  0
C  C97  1  0.73218080  0.57318198  0.99562724  1  0.390162  0  0.075658  0.135456  0  4.069899  0
C  C98  1  0.84104110  0.57326191  0.49559020  1  0.382007  0  0.07571  0.135503  0  4.070523  0
C  C99  1  0.26781000  0.42680985  0.00437417  1  0.390598  0  0.075645  0.13551  0  4.069918  0
C  C100  1  0.24610705  0.47362682  0.56003365  1  -0.042065  0  -0.070117  -0.109115  0  3.926554  0
C  C101  1  0.77273146  0.52632724  0.94003872  1  -0.028858  0  -0.070468  -0.109188  0  3.924354  0
C  C102  1  0.75391466  0.52639799  0.43996204  1  -0.041151  0  -0.070035  -0.108935  0  3.926161  0
C  C103  1  0.22726150  0.47366169  0.05996163  1  -0.035152  0  -0.070488  -0.109278  0  3.924681  0
N  N104  1  0.93114033  0.97111851  0.98379713  1  -0.533804  0  -0.167597  -0.160238  0  3.346578  0
N  N105  1  0.96011488  0.02889287  0.51624397  1  -0.540511  0  -0.167834  -0.160618  0  3.346177  0
N  N106  1  0.06886052  0.02888139  0.01620430  1  -0.493039  0  -0.167616  -0.160314  0  3.346446  0
N  N107  1  0.03988927  0.97113532  0.48374027  1  -0.493183  0  -0.167765  -0.160385  0  3.346285  0
N  N108  1  0.02826219  0.46465261  0.48203351  1  -0.575176  0  -0.146918  -0.126375  0  3.316164  0
N  N109  1  0.56361792  0.53532932  0.01795886  1  -0.522488  0  -0.146378  -0.125796  0  3.317485  0
N  N110  1  0.97176665  0.53536480  0.51796490  1  -0.525334  0  -0.1469  -0.126277  0  3.31583  0
N  N111  1  0.43638396  0.46466061  0.98204155  1  -0.557194  0  -0.146468  -0.126004  0  3.317303  0
O  O112  1  0.49770521  0.66312470  0.84327861  1  -1.172076  0  -0.380301  -0.595456  0  2.191189  0
O  O113  1  0.83487825  0.33683294  0.65680289  1  -1.170832  0  -0.379765  -0.595192  0  2.192081  0
O  O114  1  0.50229112  0.33686375  0.15672574  1  -1.172132  0  -0.380233  -0.595293  0  2.191321  0
O  O115  1  0.16511959  0.66317778  0.34320096  1  -1.170968  0  -0.37979  -0.595183  0  2.191871  0
O  O116  1  0.62181417  0.58327737  0.77179267  1  -1.204591  0  -0.475123  -0.796418  0  2.448295  0
O  O117  1  0.03854806  0.41639430  0.72840716  1  -1.207764  0  -0.475095  -0.796369  0  2.449045  0
O  O118  1  0.37818871  0.41670733  0.22821774  1  -1.204741  0  -0.47519  -0.796467  0  2.448282  0
O  O119  1  0.96143540  0.58359727  0.27159648  1  -1.207802  0  -0.4751  -0.796404  0  2.448931  0
O  O120  1  0.37955460  0.38446209  0.85293068  1  -1.23747  0  -0.605901  -0.829439  0  2.159192  0
O  O121  1  0.99421007  0.61527650  0.64719238  1  -1.242933  0  -0.606172  -0.829431  0  2.160643  0
O  O122  1  0.62043957  0.61552204  0.14706760  1  -1.237851  0  -0.605856  -0.829222  0  2.158953  0
O  O123  1  0.00580828  0.38473194  0.35281357  1  -1.242566  0  -0.606209  -0.829457  0  2.160575  0
O  O124  1  0.60170346  0.46593167  0.65098653  1  -1.194893  0  -0.384605  -0.670622  0  2.32389  0
O  O125  1  0.13620794  0.53413495  0.84924369  1  -1.193771  0  -0.384804  -0.670573  0  2.324742  0
O  O126  1  0.39830490  0.53408327  0.34901577  1  -1.194776  0  -0.384749  -0.670683  0  2.323835  0
O  O127  1  0.86378294  0.46584981  0.15075776  1  -1.193916  0  -0.384776  -0.670473  0  2.324777  0
O  O128  1  0.28887142  0.70066433  0.74594764  1  -1.235241  0  -0.639684  -0.839505  0  2.058787  0
O  O129  1  0.58848143  0.29913095  0.75421452  1  -1.269461  0  -0.640158  -0.838739  0  2.057733  0
O  O130  1  0.71111106  0.29931806  0.25405682  1  -1.235055  0  -0.639681  -0.839392  0  2.058842  0
O  O131  1  0.41150378  0.70084727  0.24578252  1  -1.269251  0  -0.640168  -0.838576  0  2.058134  0
O  O132  1  0.98139418  0.70944660  0.76472993  1  -1.1999  0  -0.430744  -0.676162  0  2.319517  0
O  O133  1  0.27242805  0.29041275  0.73532428  1  -1.193727  0  -0.430263  -0.67652  0  2.320998  0
O  O134  1  0.01859821  0.29054359  0.23527676  1  -1.200122  0  -0.430725  -0.676052  0  2.319525  0
O  O135  1  0.72756783  0.70958203  0.26466924  1  -1.193375  0  -0.430282  -0.676459  0  2.320861  0
O  O136  1  0.38915362  0.54042507  0.67534094  1  -1.202313  0  -0.391408  -0.66199  0  2.323825  0
O  O137  1  0.84928662  0.45952732  0.82480009  1  -1.201754  0  -0.391159  -0.661264  0  2.323361  0
O  O138  1  0.61084191  0.45957863  0.32466250  1  -1.202338  0  -0.391384  -0.662133  0  2.323833  0
O  O139  1  0.15070716  0.54045121  0.17520280  1  -1.201768  0  -0.391105  -0.661118  0  2.323554  0
O  O140  1  0.55959173  0.30875213  0.55358549  1  -1.138114  0  -0.33225  -0.421995  0  2.286253  0
O  O141  1  0.25088981  0.69155825  0.94665714  1  -1.151195  0  -0.331882  -0.4209  0  2.288013  0
O  O142  1  0.44044289  0.69128406  0.44641624  1  -1.137903  0  -0.332212  -0.421761  0  2.286124  0
O  O143  1  0.74910111  0.30841938  0.05334480  1  -1.151301  0  -0.33209  -0.421075  0  2.287779  0
