# generated using pymatgen
data_CdH22C24(NO)4
_symmetry_space_group_name_H-M   'P 1'
_cell_length_a   10.29132775
_cell_length_b   11.45020880
_cell_length_c   11.46095969
_cell_angle_alpha   119.68707570
_cell_angle_beta   100.81729598
_cell_angle_gamma   98.15360147
_symmetry_Int_Tables_number   1
_chemical_formula_structural   CdH22C24(NO)4
_chemical_formula_sum   'Cd2 H44 C48 N8 O8'
_cell_volume   1107.94180887
_cell_formula_units_Z   2
loop_
 _symmetry_equiv_pos_site_id
 _symmetry_equiv_pos_as_xyz
  1  'x, y, z'
loop_
 _atom_site_type_symbol
 _atom_site_label
 _atom_site_symmetry_multiplicity
 _atom_site_fract_x
 _atom_site_fract_y
 _atom_site_fract_z
 _atom_site_occupancy
 _atom_site_hle17_bader_spin_density
 _atom_site_hle17_ddec_charge
 _atom_site_hle17_ddec_spin_density
 _atom_site_hle17_ddec_sum_bond_order
 _atom_site_hle17_magmom
 _atom_site_hse06_10hf_bader_spin_density
 _atom_site_hse06_10hf_ddec_charge
 _atom_site_hse06_10hf_ddec_spin_density
 _atom_site_hse06_10hf_ddec_sum_bond_order
 _atom_site_hse06_10hf_magmom
 _atom_site_hse06_bader_spin_density
 _atom_site_hse06_ddec_charge
 _atom_site_hse06_ddec_spin_density
 _atom_site_hse06_ddec_sum_bond_order
 _atom_site_hse06_magmom
 _atom_site_pbe_bader_spin_density
 _atom_site_pbe_cm5_charge
 _atom_site_pbe_ddec_charge
 _atom_site_pbe_ddec_spin_density
 _atom_site_pbe_ddec_sum_bond_order
 _atom_site_pbe_magmom
Cd  Cd0  1  0.10553854  0.05493439  0.41024116  1  0  1.121587  0  1.710343  0  0  0.925979  0  2.159791  0  0  0.985282  0  2.107676  0  0  0.771403  0.884827  0  2.194574  0
Cd  Cd1  1  0.89446160  0.94506491  0.58975695  1  0  1.121547  0  1.710413  0  0  0.925925  0  2.159852  0  0  0.985228  0  2.10774  0  0  0.771384  0.884772  0  2.194635  0
H  H2  1  0.14683530  0.45180462  0.89243628  1  0  0.10761  0  0.930952  0  0  0.122939  0  0.988492  0  0  0.124802  0  0.988213  0  0  0.098545  0.121592  0  0.988764  0
H  H3  1  0.85316285  0.54819469  0.10756323  1  0  0.107613  0  0.93094  0  0  0.122946  0  0.988483  0  0  0.124807  0  0.988203  0  0  0.098545  0.121598  0  0.988754  0
H  H4  1  0.17333203  0.38840841  0.72317724  1  0  0.121495  0  0.945738  0  0  0.132453  0  1.010585  0  0  0.135076  0  1.009377  0  0  0.098098  0.130594  0  1.01123  0
H  H5  1  0.82666978  0.61158987  0.27682416  1  0  0.121486  0  0.945744  0  0  0.132449  0  1.010595  0  0  0.135072  0  1.009387  0  0  0.098105  0.13059  0  1.01124  0
H  H6  1  0.99164419  0.36481110  0.52768716  1  0  0.103796  0  0.956379  0  0  0.112865  0  1.021233  0  0  0.116084  0  1.019778  0  0  0.100132  0.11045  0  1.022481  0
H  H7  1  0.00835524  0.63518925  0.47231134  1  0  0.103811  0  0.956339  0  0  0.112882  0  1.021189  0  0  0.116102  0  1.019732  0  0  0.100145  0.110465  0  1.022437  0
H  H8  1  0.80893130  0.46244443  0.46472407  1  0  0.092558  0  0.976948  0  0  0.10313  0  1.042411  0  0  0.105863  0  1.041204  0  0  0.097454  0.101266  0  1.043145  0
H  H9  1  0.19107221  0.53756012  0.53527982  1  0  0.092545  0  0.976934  0  0  0.10312  0  1.042391  0  0  0.105854  0  1.041182  0  0  0.097436  0.101255  0  1.043125  0
H  H10  1  0.78522460  0.66464652  0.88864723  1  0  0.085696  0  0.970755  0  0  0.094562  0  1.037745  0  0  0.097131  0  1.037609  0  0  0.092775  0.092717  0  1.037856  0
H  H11  1  0.21478160  0.33535699  0.11135662  1  0  0.0857  0  0.970758  0  0  0.094563  0  1.037745  0  0  0.097132  0  1.037611  0  0  0.092782  0.092724  0  1.037861  0
H  H12  1  0.96917709  0.57102671  0.95282782  1  0  0.098952  0  0.974804  0  0  0.107272  0  1.042514  0  0  0.111049  0  1.039674  0  0  0.096932  0.104536  0  1.044711  0
H  H13  1  0.03082632  0.42897363  0.04716876  1  0  0.099047  0  0.974803  0  0  0.107345  0  1.042534  0  0  0.11112  0  1.039699  0  0  0.096934  0.104609  0  1.044729  0
H  H14  1  0.59307316  0.54405034  0.53361961  1  0  0.094894  0  0.967686  0  0  0.112643  0  1.025387  0  0  0.114374  0  1.024056  0  0  0.095878  0.111272  0  1.026546  0
H  H15  1  0.40693019  0.45595005  0.46638483  1  0  0.094883  0  0.967639  0  0  0.112632  0  1.025353  0  0  0.114359  0  1.024032  0  0  0.095886  0.111271  0  1.0265  0
H  H16  1  0.62138665  0.66959105  0.71530725  1  0  0.09859  0  0.964269  0  0  0.111039  0  1.030401  0  0  0.113259  0  1.029214  0  0  0.094375  0.109351  0  1.031467  0
H  H17  1  0.37861431  0.33041141  0.28469517  1  0  0.098576  0  0.964272  0  0  0.111038  0  1.030407  0  0  0.11326  0  1.029218  0  0  0.094363  0.109349  0  1.031475  0
H  H18  1  0.02444062  0.21068305  0.21978078  1  0  0.090131  0  0.978282  0  0  0.098802  0  1.045331  0  0  0.099988  0  1.04475  0  0  0.130363  0.097874  0  1.045806  0
H  H19  1  0.97555724  0.78931522  0.78021904  1  0  0.090175  0  0.978255  0  0  0.098833  0  1.045311  0  0  0.100021  0  1.044726  0  0  0.130352  0.097903  0  1.045787  0
H  H20  1  0.77364460  0.86693503  0.19153305  1  0  0.103489  0  0.956495  0  0  0.114333  0  1.014314  0  0  0.116169  0  1.014261  0  0  0.115599  0.113036  0  1.014334  0
H  H21  1  0.22635383  0.13306532  0.80846702  1  0  0.103524  0  0.95649  0  0  0.114344  0  1.014331  0  0  0.116181  0  1.01428  0  0  0.1156  0.113047  0  1.014353  0
H  H22  1  0.64251574  0.90189072  0.97908777  1  0  0.116033  0  0.955974  0  0  0.126502  0  1.01644  0  0  0.128898  0  1.016103  0  0  0.121133  0.124704  0  1.016959  0
H  H23  1  0.35747845  0.09810858  0.02091104  1  0  0.116023  0  0.95597  0  0  0.126476  0  1.016459  0  0  0.128869  0  1.01613  0  0  0.121113  0.124678  0  1.01698  0
H  H24  1  0.75896609  0.04292741  0.87808580  1  0  0.112637  0  0.979867  0  0  0.124121  0  1.046267  0  0  0.12669  0  1.043295  0  0  0.115971  0.122235  0  1.048336  0
H  H25  1  0.24103333  0.95707294  0.12191444  1  0  0.112637  0  0.979862  0  0  0.124112  0  1.046273  0  0  0.126685  0  1.0433  0  0  0.115968  0.122225  0  1.048343  0
H  H26  1  0.89773356  0.19243090  0.99794333  1  0  0.107292  0  0.922681  0  0  0.123595  0  0.982359  0  0  0.124287  0  0.982549  0  0  0.119808  0.12315  0  0.9821  0
H  H27  1  0.10226813  0.80757051  0.00205783  1  0  0.10729  0  0.922679  0  0  0.123587  0  0.98236  0  0  0.124282  0  0.982551  0  0  0.119798  0.123141  0  0.982102  0
H  H28  1  0.74874131  0.26494628  0.23935906  1  0  0.092172  0  0.96688  0  0  0.102738  0  1.027976  0  0  0.105299  0  1.027602  0  0  0.102352  0.10091  0  1.028233  0
H  H29  1  0.25125641  0.73505512  0.76064227  1  0  0.092167  0  0.966849  0  0  0.102718  0  1.027968  0  0  0.105278  0  1.027595  0  0  0.102356  0.100891  0  1.028217  0
H  H30  1  0.59855617  0.42125826  0.31434919  1  0  0.084591  0  0.971801  0  0  0.095821  0  1.033276  0  0  0.097947  0  1.032378  0  0  0.099248  0.094189  0  1.034155  0
H  H31  1  0.40144271  0.57873999  0.68564644  1  0  0.084595  0  0.971799  0  0  0.095848  0  1.033242  0  0  0.097975  0  1.032344  0  0  0.099236  0.094215  0  1.034124  0
H  H32  1  0.45531248  0.46073167  0.14150886  1  0  0.082618  0  0.958644  0  0  0.094977  0  1.017341  0  0  0.097429  0  1.016802  0  0  0.097968  0.093218  0  1.017764  0
H  H33  1  0.54468398  0.53926868  0.85848999  1  0  0.08263  0  0.958626  0  0  0.094989  0  1.01733  0  0  0.09744  0  1.016792  0  0  0.097965  0.09323  0  1.017754  0
H  H34  1  0.47548525  0.35116701  0.89985568  1  0  0.081945  0  0.96888  0  0  0.09291  0  1.033551  0  0  0.09529  0  1.032877  0  0  0.097354  0.091203  0  1.034064  0
H  H35  1  0.52451263  0.64883124  0.10014152  1  0  0.081952  0  0.968875  0  0  0.09289  0  1.033577  0  0  0.095269  0  1.032904  0  0  0.097355  0.091184  0  1.03409  0
H  H36  1  0.66443254  0.26958465  0.76498515  1  0  0.090811  0  0.906235  0  0  0.107422  0  0.964692  0  0  0.108008  0  0.964729  0  0  0.117678  0.107005  0  0.964738  0
H  H37  1  0.33557282  0.73041572  0.23501701  1  0  0.09079  0  0.906236  0  0  0.107415  0  0.964652  0  0  0.108002  0  0.964688  0  0  0.117683  0.106999  0  0.964703  0
H  H38  1  0.70835204  0.12600931  0.76172360  1  0  0.106362  0  0.946388  0  0  0.116609  0  1.014935  0  0  0.118572  0  1.012793  0  0  0.118713  0.115321  0  1.01618  0
H  H39  1  0.29165244  0.87399525  0.23828221  1  0  0.10635  0  0.946431  0  0  0.116595  0  1.014967  0  0  0.118558  0  1.012826  0  0  0.118715  0.11531  0  1.016214  0
H  H40  1  0.42438570  0.23531537  0.62644308  1  0  0.094082  0  0.93441  0  0  0.105276  0  0.996049  0  0  0.107649  0  0.993206  0  0  0.134829  0.103595  0  0.99798  0
H  H41  1  0.57561415  0.76468290  0.37355622  1  0  0.09411  0  0.934443  0  0  0.105313  0  0.996062  0  0  0.10769  0  0.993219  0  0  0.134828  0.103631  0  0.997995  0
H  H42  1  0.49788929  0.90503363  0.67453330  1  0  0.126895  0  0.955534  0  0  0.137471  0  1.012487  0  0  0.140802  0  1.010496  0  0  0.121797  0.135025  0  1.01416  0
H  H43  1  0.50210728  0.09496360  0.32546841  1  0  0.126882  0  0.955579  0  0  0.13746  0  1.012519  0  0  0.14079  0  1.01053  0  0  0.121784  0.135016  0  1.014192  0
H  H44  1  0.23303715  0.82023317  0.49116288  1  0  0.10064  0  0.97175  0  0  0.109979  0  1.033923  0  0  0.111398  0  1.034775  0  0  0.113097  0.108873  0  1.033567  0
H  H45  1  0.76696000  0.17976614  0.50883733  1  0  0.100637  0  0.97178  0  0  0.109992  0  1.033931  0  0  0.111411  0  1.034784  0  0  0.113102  0.108891  0  1.03357  0
C  C46  1  0.02180591  0.24365479  0.73120579  1  0  0.700471  0  3.853753  0  0  0.656734  0  4.146748  0  0  0.690101  0  4.140388  0  0  0.200813  0.634044  0  4.150564  0
C  C47  1  0.97819494  0.75634347  0.26879193  1  0  0.700485  0  3.853746  0  0  0.656753  0  4.146761  0  0  0.690121  0  4.140398  0  0  0.200836  0.634062  0  4.150575  0
C  C48  1  0.09625333  0.39221342  0.77834638  1  0  -0.314998  0  3.69241  0  0  -0.358207  0  3.932507  0  0  -0.363955  0  3.939363  0  0  -0.165757  -0.354304  0  3.927828  0
C  C49  1  0.90374878  0.60778589  0.22165296  1  0  -0.314993  0  3.692464  0  0  -0.358219  0  3.932562  0  0  -0.363962  0  3.93941  0  0  -0.165771  -0.35431  0  3.927877  0
C  C50  1  0.99050194  0.45784229  0.74342287  1  0  0.120095  0  3.749888  0  0  0.139642  0  3.986171  0  0  0.140097  0  4.010958  0  0  -0.011329  0.139317  0  3.969608  0
C  C51  1  0.00949552  0.54215075  0.25657257  1  0  0.12015  0  3.749838  0  0  0.139719  0  3.986114  0  0  0.140176  0  4.010899  0  0  -0.011338  0.139394  0  3.969549  0
C  C52  1  0.94438757  0.42865769  0.60604322  1  0  -0.1263  0  3.739984  0  0  -0.143246  0  3.987031  0  0  -0.145729  0  4.007521  0  0  -0.096205  -0.141359  0  3.973122  0
C  C53  1  0.05561045  0.57133744  0.39395422  1  0  -0.126308  0  3.73994  0  0  -0.143256  0  3.986987  0  0  -0.145738  0  4.007471  0  0  -0.096194  -0.141369  0  3.973079  0
C  C54  1  0.84094001  0.48188856  0.57034300  1  0  -0.12786  0  3.7621  0  0  -0.14863  0  4.009808  0  0  -0.150705  0  4.030802  0  0  -0.100872  -0.147187  0  3.995417  0
C  C55  1  0.15905983  0.51810971  0.42965717  1  0  -0.127853  0  3.762065  0  0  -0.148626  0  4.009754  0  0  -0.150701  0  4.030746  0  0  -0.100855  -0.147182  0  3.995361  0
C  C56  1  0.78027519  0.56532424  0.67033601  1  0  0.097954  0  3.780409  0  0  0.118892  0  4.015683  0  0  0.118675  0  4.040486  0  0  -0.022365  0.11916  0  3.998861  0
C  C57  1  0.21972749  0.43467716  0.32966357  1  0  0.098008  0  3.780371  0  0  0.118984  0  4.015614  0  0  0.11877  0  4.040413  0  0  -0.022332  0.119252  0  3.998795  0
C  C58  1  0.82764812  0.59578297  0.80792730  1  0  -0.143364  0  3.782793  0  0  -0.161182  0  4.03209  0  0  -0.163649  0  4.052806  0  0  -0.105648  -0.159719  0  4.018309  0
C  C59  1  0.17235483  0.40421949  0.19207459  1  0  -0.143344  0  3.782854  0  0  -0.161159  0  4.032122  0  0  -0.163627  0  4.05284  0  0  -0.105679  -0.15971  0  4.018358  0
C  C60  1  0.93148682  0.54254631  0.84402147  1  0  -0.128318  0  3.754382  0  0  -0.149863  0  4.006022  0  0  -0.151586  0  4.0253  0  0  -0.099785  -0.14896  0  3.993435  0
C  C61  1  0.06851631  0.45745299  0.15597454  1  0  -0.128511  0  3.75448  0  0  -0.150056  0  4.006144  0  0  -0.15178  0  4.025423  0  0  -0.099785  -0.149153  0  3.993559  0
C  C62  1  0.67136641  0.62645570  0.63262234  1  0  -0.298917  0  3.711862  0  0  -0.343662  0  3.952923  0  0  -0.348107  0  3.959038  0  0  -0.16692  -0.340534  0  3.948825  0
C  C63  1  0.32863427  0.37354571  0.36737952  1  0  -0.298891  0  3.711818  0  0  -0.343697  0  3.952957  0  0  -0.348146  0  3.959071  0  0  -0.166917  -0.340574  0  3.948856  0
C  C64  1  0.72966358  0.74169447  0.61009703  1  0  0.672061  0  3.904078  0  0  0.632805  0  4.19452  0  0  0.664846  0  4.19005  0  0  0.188094  0.611035  0  4.196918  0
C  C65  1  0.27033881  0.25830589  0.38990461  1  0  0.672035  0  3.904062  0  0  0.632807  0  4.194496  0  0  0.66485  0  4.190024  0  0  0.188117  0.611037  0  4.196895  0
C  C66  1  0.94030702  0.12113576  0.18536623  1  0  0.162505  0  3.657831  0  0  0.103239  0  3.918205  0  0  0.117492  0  3.931845  0  0  0.139455  0.094049  0  3.908672  0
C  C67  1  0.05969184  0.87886250  0.81463290  1  0  0.162468  0  3.657855  0  0  0.10322  0  3.918219  0  0  0.117474  0  3.931858  0  0  0.139506  0.09403  0  3.908684  0
C  C68  1  0.80667044  0.94299704  0.16555115  1  0  0.007228  0  3.772617  0  0  -0.028327  0  4.043058  0  0  -0.025801  0  4.064467  0  0  -0.005413  -0.029962  0  4.028256  0
C  C69  1  0.19332845  0.05700119  0.83444273  1  0  0.007169  0  3.772563  0  0  -0.028364  0  4.043006  0  0  -0.02584  0  4.064418  0  0  -0.005388  -0.029999  0  4.028203  0
C  C70  1  0.74073200  0.95901307  0.06055087  1  0  -0.075308  0  3.678201  0  0  -0.116238  0  3.939063  0  0  -0.115385  0  3.958027  0  0  -0.003012  -0.116675  0  3.926267  0
C  C71  1  0.25926985  0.04098519  0.93944616  1  0  -0.075221  0  3.677987  0  0  -0.116135  0  3.938846  0  0  -0.115283  0  3.957806  0  0  -0.002989  -0.116574  0  3.926053  0
C  C72  1  0.79914800  0.13112136  0.98782607  1  0  -0.066505  0  3.637535  0  0  -0.133615  0  3.88339  0  0  -0.129743  0  3.892958  0  0  -0.051538  -0.135954  0  3.876654  0
C  C73  1  0.20085241  0.86887900  0.01217435  1  0  -0.066534  0  3.637518  0  0  -0.133612  0  3.883347  0  0  -0.129759  0  3.892942  0  0  -0.051546  -0.135951  0  3.876613  0
C  C74  1  0.70157960  0.22177221  0.02841377  1  0  0.044143  0  3.695859  0  0  0.059281  0  3.934042  0  0  0.058551  0  3.958342  0  0  -0.00431  0.059763  0  3.917613  0
C  C75  1  0.29842236  0.77823024  0.97158795  1  0  0.044233  0  3.69586  0  0  0.059321  0  3.934061  0  0  0.058596  0  3.958366  0  0  -0.004307  0.059804  0  3.91763  0
C  C76  1  0.68911579  0.28446014  0.16475928  1  0  -0.120008  0  3.759689  0  0  -0.14205  0  4.010573  0  0  -0.145083  0  4.032716  0  0  -0.093809  -0.139984  0  3.99585  0
C  C77  1  0.31088291  0.71554126  0.83524223  1  0  -0.119968  0  3.759598  0  0  -0.141993  0  4.010497  0  0  -0.145024  0  4.032638  0  0  -0.093807  -0.139925  0  3.995772  0
C  C78  1  0.60303484  0.37110144  0.20657680  1  0  -0.065259  0  3.79342  0  0  -0.079091  0  4.046355  0  0  -0.080124  0  4.067259  0  0  -0.09165  -0.078398  0  4.032359  0
C  C79  1  0.39696390  0.62889994  0.79342034  1  0  -0.065314  0  3.793383  0  0  -0.07916  0  4.046319  0  0  -0.080195  0  4.067221  0  0  -0.091609  -0.078468  0  4.032324  0
C  C80  1  0.52503014  0.39501384  0.11094843  1  0  -0.08122  0  3.804245  0  0  -0.094817  0  4.055442  0  0  -0.097619  0  4.07792  0  0  -0.097532  -0.092846  0  4.039993  0
C  C81  1  0.47496660  0.60498754  0.88905010  1  0  -0.081195  0  3.804223  0  0  -0.094805  0  4.055435  0  0  -0.097607  0  4.077912  0  0  -0.09755  -0.092835  0  4.039988  0
C  C82  1  0.53668408  0.33333319  0.97526471  1  0  -0.118165  0  3.772572  0  0  -0.13823  0  4.021099  0  0  -0.1406  0  4.04381  0  0  -0.094698  -0.136545  0  4.0058  0
C  C83  1  0.46331463  0.66666821  0.02473505  1  0  -0.118143  0  3.772589  0  0  -0.138198  0  4.021109  0  0  -0.140567  0  4.04382  0  0  -0.094683  -0.136513  0  4.005809  0
C  C84  1  0.62488161  0.24774664  0.93261849  1  0  0.025841  0  3.699441  0  0  0.041672  0  3.935031  0  0  0.039988  0  3.959478  0  0  -0.009928  0.042687  0  3.918652  0
C  C85  1  0.37512036  0.75225580  0.06738235  1  0  0.025733  0  3.699568  0  0  0.041607  0  3.935092  0  0  0.039924  0  3.959538  0  0  -0.009956  0.042626  0  3.918715  0
C  C86  1  0.63259776  0.18586500  0.78342129  1  0  -0.042663  0  3.633064  0  0  -0.107751  0  3.878321  0  0  -0.102994  0  3.888105  0  0  -0.045295  -0.110827  0  3.871536  0
C  C87  1  0.36740210  0.81413327  0.21657713  1  0  -0.042644  0  3.633158  0  0  -0.10771  0  3.878299  0  0  -0.102951  0  3.888082  0  0  -0.04531  -0.110802  0  3.871534  0
C  C88  1  0.40587900  0.13377534  0.61453786  1  0  0.14423  0  3.697144  0  0  0.081266  0  3.970425  0  0  0.094738  0  3.984152  0  0  0.135285  0.072688  0  3.960676  0
C  C89  1  0.59412083  0.86622294  0.38546406  1  0  0.144176  0  3.697081  0  0  0.081183  0  3.970353  0  0  0.094649  0  3.984086  0  0  0.135282  0.072607  0  3.960599  0
C  C90  1  0.44031327  0.95930531  0.63834576  1  0  -0.069165  0  3.659274  0  0  -0.10944  0  3.918592  0  0  -0.108378  0  3.937184  0  0  -0.001837  -0.11009  0  3.906226  0
C  C91  1  0.55968460  0.04069294  0.36165231  1  0  -0.069127  0  3.659169  0  0  -0.109405  0  3.918478  0  0  -0.108342  0  3.937069  0  0  -0.001836  -0.110056  0  3.906113  0
C  C92  1  0.31159581  0.91923622  0.54697223  1  0  0.005596  0  3.746884  0  0  -0.028599  0  4.016765  0  0  -0.0264  0  4.037489  0  0  -0.005764  -0.030042  0  4.002702  0
C  C93  1  0.68840314  0.08076626  0.45303508  1  0  0.005541  0  3.746863  0  0  -0.028679  0  4.016752  0  0  -0.026477  0  4.037473  0  0  -0.005774  -0.030131  0  4.002697  0
N  N94  1  0.93107893  0.04464628  0.24265959  1  0  -0.388445  0  3.24683  0  0  -0.311915  0  3.528593  0  0  -0.333861  0  3.545969  0  0  -0.355642  -0.296796  0  3.516164  0
N  N95  1  0.06891922  0.95535303  0.75733992  1  0  -0.388454  0  3.246876  0  0  -0.311923  0  3.528632  0  0  -0.333868  0  3.54601  0  0  -0.355701  -0.296804  0  3.516202  0
N  N96  1  0.82735301  0.07210272  0.07415939  1  0  -0.050133  0  3.584767  0  0  0.044825  0  3.800856  0  0  0.030592  0  3.825901  0  0  -0.240927  0.054231  0  3.783701  0
N  N97  1  0.17264557  0.92789450  0.92583830  1  0  -0.050159  0  3.584717  0  0  0.044793  0  3.8008  0  0  0.030566  0  3.825849  0  0  -0.240921  0.054199  0  3.783645  0
N  N98  1  0.49882988  0.09550222  0.67973152  1  0  -0.057121  0  3.583309  0  0  0.037014  0  3.801384  0  0  0.021939  0  3.829008  0  0  -0.24166  0.046964  0  3.782591  0
N  N99  1  0.50117194  0.90449606  0.32026813  1  0  -0.057131  0  3.583323  0  0  0.037016  0  3.801373  0  0  0.02194  0  3.828999  0  0  -0.241647  0.046971  0  3.782582  0
N  N100  1  0.29178979  0.02909964  0.53298744  1  0  -0.383696  0  3.266928  0  0  -0.310723  0  3.555642  0  0  -0.331555  0  3.572765  0  0  -0.358292  -0.29623  0  3.543191  0
N  N101  1  0.70820987  0.97090179  0.46701861  1  0  -0.383626  0  3.266979  0  0  -0.31062  0  3.555679  0  0  -0.331454  0  3.572809  0  0  -0.358275  -0.296128  0  3.543229  0
O  O102  1  0.02944415  0.14232074  0.61435109  1  0  -0.692778  0  2.080504  0  0  -0.606153  0  2.348958  0  0  -0.639612  0  2.337008  0  0  -0.34657  -0.583057  0  2.356289  0
O  O103  1  0.97055501  0.85767855  0.38564597  1  0  -0.692715  0  2.08048  0  0  -0.60611  0  2.348958  0  0  -0.639563  0  2.336997  0  0  -0.346538  -0.583014  0  2.356286  0
O  O104  1  0.95292322  0.22370804  0.80238178  1  0  -0.633199  0  1.897481  0  0  -0.581873  0  2.127104  0  0  -0.60725  0  2.119798  0  0  -0.326027  -0.564346  0  2.131338  0
O  O105  1  0.04707903  0.77629545  0.19761962  1  0  -0.633246  0  1.897476  0  0  -0.58191  0  2.127082  0  0  -0.607295  0  2.119787  0  0  -0.326069  -0.564384  0  2.131318  0
O  O106  1  0.78550469  0.70912163  0.51166727  1  0  -0.653997  0  1.9483  0  0  -0.591815  0  2.190809  0  0  -0.6207  0  2.183097  0  0  -0.336679  -0.571732  0  2.195351  0
O  O107  1  0.21449600  0.29087977  0.48833371  1  0  -0.653969  0  1.94824  0  0  -0.591802  0  2.190756  0  0  -0.620688  0  2.183043  0  0  -0.336691  -0.57172  0  2.195298  0
O  O108  1  0.72315507  0.86472832  0.69209135  1  0  -0.65759  0  1.959523  0  0  -0.6034  0  2.197729  0  0  -0.629548  0  2.188955  0  0  -0.33569  -0.585343  0  2.203075  0
O  O109  1  0.27684604  0.13527099  0.30790956  1  0  -0.657609  0  1.959519  0  0  -0.603419  0  2.197716  0  0  -0.629566  0  2.188942  0  0  -0.335702  -0.58536  0  2.203061  0
