# generated using pymatgen
data_CuH4C6SBrN2
_symmetry_space_group_name_H-M   'P 1'
_cell_length_a   3.77500729
_cell_length_b   8.43293630
_cell_length_c   23.97803457
_cell_angle_alpha   90.00022086
_cell_angle_beta   90.00046873
_cell_angle_gamma   91.92567979
_symmetry_Int_Tables_number   1
_chemical_formula_structural   CuH4C6SBrN2
_chemical_formula_sum   'Cu4 H16 C24 S4 Br4 N8'
_cell_volume   762.89516488
_cell_formula_units_Z   4
loop_
 _symmetry_equiv_pos_site_id
 _symmetry_equiv_pos_as_xyz
  1  'x, y, z'
loop_
 _atom_site_type_symbol
 _atom_site_label
 _atom_site_symmetry_multiplicity
 _atom_site_fract_x
 _atom_site_fract_y
 _atom_site_fract_z
 _atom_site_occupancy
 _atom_site_hle17_bader_spin_density
 _atom_site_hle17_ddec_charge
 _atom_site_hle17_ddec_spin_density
 _atom_site_hle17_ddec_sum_bond_order
 _atom_site_hle17_magmom
 _atom_site_hse06_10hf_bader_spin_density
 _atom_site_hse06_10hf_ddec_charge
 _atom_site_hse06_10hf_ddec_spin_density
 _atom_site_hse06_10hf_ddec_sum_bond_order
 _atom_site_hse06_10hf_magmom
 _atom_site_hse06_bader_spin_density
 _atom_site_hse06_ddec_charge
 _atom_site_hse06_ddec_spin_density
 _atom_site_hse06_ddec_sum_bond_order
 _atom_site_hse06_magmom
 _atom_site_pbe_bader_spin_density
 _atom_site_pbe_cm5_charge
 _atom_site_pbe_ddec_charge
 _atom_site_pbe_ddec_spin_density
 _atom_site_pbe_ddec_sum_bond_order
 _atom_site_pbe_magmom
Cu  Cu0  1  0.93646970  0.95087648  0.18736273  1  0  0.424981  0  2.176145  0  0  0.343593  0  2.683015  0  0  0.331883  0  2.645172  0  0  0.473613  0.354588  0  2.706841  0
Cu  Cu1  1  0.56352644  0.54912062  0.68736567  1  0  0.424976  0  2.176092  0  0  0.343617  0  2.682962  0  0  0.33189  0  2.645087  0  0  0.473674  0.35462  0  2.706813  0
Cu  Cu2  1  0.06352600  0.04912127  0.81263632  1  0  0.425049  0  2.176075  0  0  0.343669  0  2.682954  0  0  0.331942  0  2.645092  0  0  0.473668  0.354665  0  2.706762  0
Cu  Cu3  1  0.43647473  0.45087951  0.31263464  1  0  0.424958  0  2.176098  0  0  0.343569  0  2.682987  0  0  0.331868  0  2.645122  0  0  0.473648  0.354576  0  2.70683  0
H  H4  1  0.17860845  0.00694186  0.06880643  1  0  0.072825  0  0.992768  0  0  0.075459  0  1.073826  0  0  0.079335  0  1.069444  0  0  0.09176  0.072476  0  1.077256  0
H  H5  1  0.32138499  0.49305723  0.56880780  1  0  0.072917  0  0.992666  0  0  0.075512  0  1.073738  0  0  0.079386  0  1.069359  0  0  0.091762  0.072525  0  1.077172  0
H  H6  1  0.82138486  0.99305946  0.93119429  1  0  0.072963  0  0.992724  0  0  0.075529  0  1.073813  0  0  0.079402  0  1.069432  0  0  0.091777  0.072546  0  1.07724  0
H  H7  1  0.67861344  0.50694171  0.43119418  1  0  0.072869  0  0.99272  0  0  0.075476  0  1.073771  0  0  0.079348  0  1.06939  0  0  0.091749  0.072491  0  1.077201  0
H  H8  1  0.14984944  0.51325835  0.04229540  1  0  0.090807  0  0.998247  0  0  0.095941  0  1.074311  0  0  0.09973  0  1.070252  0  0  0.08819  0.093137  0  1.07737  0
H  H9  1  0.35015263  0.98674122  0.54229472  1  0  0.090791  0  0.998233  0  0  0.095939  0  1.074287  0  0  0.09973  0  1.070222  0  0  0.08818  0.093126  0  1.077353  0
H  H10  1  0.85013840  0.48674058  0.95770448  1  0  0.09078  0  0.998266  0  0  0.095889  0  1.074344  0  0  0.099677  0  1.070285  0  0  0.088191  0.093083  0  1.077403  0
H  H11  1  0.64986725  0.01326131  0.45770475  1  0  0.090767  0  0.998202  0  0  0.095891  0  1.074267  0  0  0.09968  0  1.070207  0  0  0.088196  0.093088  0  1.077325  0
H  H12  1  0.88018846  0.53603464  0.13693585  1  0  0.104446  0  0.975841  0  0  0.113909  0  1.036745  0  0  0.115446  0  1.038751  0  0  0.099337  0.112562  0  1.035861  0
H  H13  1  0.61981325  0.96396544  0.63693566  1  0  0.104487  0  0.975769  0  0  0.113957  0  1.036663  0  0  0.115496  0  1.038668  0  0  0.099342  0.112613  0  1.035777  0
H  H14  1  0.11981287  0.46396787  0.86306529  1  0  0.104455  0  0.975843  0  0  0.113953  0  1.036703  0  0  0.115491  0  1.038708  0  0  0.099334  0.112605  0  1.035821  0
H  H15  1  0.38020646  0.03603471  0.36306381  1  0  0.104467  0  0.975844  0  0  0.113984  0  1.03668  0  0  0.115506  0  1.038702  0  0  0.099363  0.112639  0  1.035795  0
H  H16  1  0.78494470  0.29174192  0.19465887  1  0  0.088706  0  0.946014  0  0  0.096714  0  1.011147  0  0  0.099303  0  1.008597  0  0  0.116926  0.094601  0  1.013297  0
H  H17  1  0.71505787  0.20825686  0.69466013  1  0  0.088671  0  0.94606  0  0  0.096671  0  1.011205  0  0  0.09926  0  1.008655  0  0  0.116901  0.094567  0  1.013351  0
H  H18  1  0.21505133  0.70826058  0.80534185  1  0  0.088668  0  0.946002  0  0  0.096678  0  1.01116  0  0  0.099267  0  1.008613  0  0  0.116887  0.094565  0  1.013312  0
H  H19  1  0.28496441  0.79174210  0.30534017  1  0  0.088686  0  0.945973  0  0  0.096692  0  1.011135  0  0  0.09928  0  1.008586  0  0  0.116893  0.094588  0  1.013283  0
C  C20  1  0.42908035  0.65407149  0.20827008  1  0  0.282472  0  3.905463  0  0  0.279059  0  4.196332  0  0  0.294361  0  4.208078  0  0  0.146935  0.268637  0  4.188542  0
C  C21  1  0.07090643  0.84592883  0.70827218  1  0  0.282667  0  3.90538  0  0  0.279265  0  4.196225  0  0  0.294563  0  4.207973  0  0  0.14703  0.268839  0  4.188428  0
C  C22  1  0.57090766  0.34592981  0.79172980  1  0  0.282509  0  3.905343  0  0  0.279096  0  4.196217  0  0  0.294392  0  4.207965  0  0  0.146934  0.268674  0  4.188429  0
C  C23  1  0.92908663  0.15406892  0.29172687  1  0  0.282623  0  3.905512  0  0  0.279207  0  4.196374  0  0  0.294509  0  4.208119  0  0  0.146987  0.26878  0  4.188584  0
C  C24  1  0.11823117  0.12582050  0.08289019  1  0  0.058899  0  3.712431  0  0  0.018903  0  3.971218  0  0  0.024903  0  3.985915  0  0  0.021312  0.015042  0  3.961575  0
C  C25  1  0.38176317  0.37418113  0.58289106  1  0  0.058723  0  3.712352  0  0  0.018768  0  3.971192  0  0  0.024774  0  3.985873  0  0  0.021225  0.014907  0  3.961554  0
C  C26  1  0.88175427  0.87418200  0.91711011  1  0  0.058685  0  3.712515  0  0  0.018748  0  3.971351  0  0  0.024748  0  3.986056  0  0  0.021227  0.014888  0  3.961705  0
C  C27  1  0.61824330  0.62581900  0.41710966  1  0  0.058777  0  3.712482  0  0  0.018841  0  3.97129  0  0  0.024835  0  3.986016  0  0  0.02127  0.014985  0  3.961646  0
C  C28  1  0.17698795  0.25743967  0.04874282  1  0  0.033886  0  3.728365  0  0  0.053656  0  3.990542  0  0  0.051953  0  4.013965  0  0  -0.023257  0.054423  0  3.974781  0
C  C29  1  0.32301247  0.24256038  0.54874302  1  0  0.033868  0  3.72834  0  0  0.053639  0  3.990494  0  0  0.051936  0  4.013921  0  0  -0.023264  0.054405  0  3.974735  0
C  C30  1  0.82299202  0.74256044  0.95125665  1  0  0.03373  0  3.72844  0  0  0.053494  0  3.99062  0  0  0.051789  0  4.014042  0  0  -0.023313  0.054262  0  3.974857  0
C  C31  1  0.67700459  0.75743977  0.45125687  1  0  0.03381  0  3.728404  0  0  0.05354  0  3.990642  0  0  0.051834  0  4.014063  0  0  -0.023301  0.054301  0  3.974891  0
C  C32  1  0.09808642  0.40821169  0.06773567  1  0  -0.073885  0  3.744843  0  0  -0.10148  0  3.995212  0  0  -0.098386  0  4.013004  0  0  -0.087654  -0.103364  0  3.983279  0
C  C33  1  0.40191508  0.09178977  0.56773576  1  0  -0.073806  0  3.744852  0  0  -0.101407  0  3.995229  0  0  -0.098316  0  4.013023  0  0  -0.087625  -0.103287  0  3.983309  0
C  C34  1  0.90190159  0.59178962  0.93226464  1  0  -0.073646  0  3.744709  0  0  -0.101197  0  3.99511  0  0  -0.098101  0  4.012898  0  0  -0.087593  -0.103087  0  3.983179  0
C  C35  1  0.59810199  0.90821038  0.43226412  1  0  -0.073615  0  3.744672  0  0  -0.101147  0  3.995028  0  0  -0.098051  0  4.012812  0  0  -0.087548  -0.103035  0  3.983102  0
C  C36  1  0.95138259  0.42084713  0.12075768  1  0  -0.085795  0  3.711497  0  0  -0.092547  0  3.953317  0  0  -0.100346  0  3.978335  0  0  -0.080633  -0.087681  0  3.936949  0
C  C37  1  0.54861639  0.07915434  0.62075771  1  0  -0.085888  0  3.711678  0  0  -0.09267  0  3.953519  0  0  -0.100469  0  3.978539  0  0  -0.080681  -0.087802  0  3.937151  0
C  C38  1  0.04861072  0.57915418  0.87924304  1  0  -0.085933  0  3.711439  0  0  -0.092734  0  3.953289  0  0  -0.100532  0  3.978305  0  0  -0.080664  -0.087863  0  3.936922  0
C  C39  1  0.45140059  0.92084462  0.37924259  1  0  -0.086013  0  3.711654  0  0  -0.09283  0  3.953512  0  0  -0.100614  0  3.978535  0  0  -0.080741  -0.087957  0  3.937146  0
C  C40  1  0.89766779  0.28503965  0.15294910  1  0  0.131488  0  3.640982  0  0  0.101037  0  3.885086  0  0  0.107344  0  3.902106  0  0  0.045333  0.096769  0  3.874174  0
C  C41  1  0.60233261  0.21495864  0.65295022  1  0  0.1315  0  3.641109  0  0  0.101084  0  3.885201  0  0  0.107389  0  3.902222  0  0  0.045342  0.096815  0  3.874292  0
C  C42  1  0.10232824  0.71496285  0.84705121  1  0  0.131628  0  3.640833  0  0  0.101172  0  3.884954  0  0  0.107476  0  3.901974  0  0  0.045417  0.096901  0  3.874045  0
C  C43  1  0.39768172  0.78504032  0.34704967  1  0  0.13155  0  3.640805  0  0  0.101082  0  3.884951  0  0  0.107391  0  3.901965  0  0  0.045357  0.096808  0  3.874048  0
S  S44  1  0.42729103  0.80396066  0.16408224  1  0  -0.339912  0  2.787234  0  0  -0.325681  0  3.27639  0  0  -0.32331  0  3.244704  0  0  -0.197291  -0.327577  0  3.298404  0
S  S45  1  0.07269866  0.69603796  0.66408580  1  0  -0.33998  0  2.787199  0  0  -0.32577  0  3.276358  0  0  -0.323386  0  3.244655  0  0  -0.19735  -0.327674  0  3.298389  0
S  S46  1  0.57270211  0.19603828  0.83591681  1  0  -0.339984  0  2.78713  0  0  -0.325766  0  3.276276  0  0  -0.323382  0  3.244576  0  0  -0.197335  -0.327665  0  3.298278  0
S  S47  1  0.92729969  0.30395979  0.33591325  1  0  -0.339939  0  2.787157  0  0  -0.325721  0  3.276325  0  0  -0.323351  0  3.244632  0  0  -0.197332  -0.327624  0  3.298352  0
Br  Br48  1  0.35326549  0.23045646  0.97498730  1  0  -0.052743  0  1.461228  0  0  -0.037603  0  1.763204  0  0  -0.044224  0  1.75878  0  0  0.069702  -0.033023  0  1.766599  0
Br  Br49  1  0.14673574  0.26954624  0.47498750  1  0  -0.052715  0  1.461206  0  0  -0.037592  0  1.763188  0  0  -0.044206  0  1.758751  0  0  0.06971  -0.033011  0  1.766584  0
Br  Br50  1  0.64668774  0.76954008  0.02501091  1  0  -0.052691  0  1.461159  0  0  -0.037581  0  1.763253  0  0  -0.044185  0  1.758791  0  0  0.069723  -0.033004  0  1.766647  0
Br  Br51  1  0.85329209  0.73045629  0.52501197  1  0  -0.052742  0  1.461228  0  0  -0.037613  0  1.763272  0  0  -0.044224  0  1.758828  0  0  0.069712  -0.033026  0  1.766664  0
N  N52  1  0.43231380  0.54523958  0.23937682  1  0  -0.468902  0  3.061036  0  0  -0.426885  0  3.378117  0  0  -0.434647  0  3.378719  0  0  -0.41522  -0.422039  0  3.377071  0
N  N53  1  0.06767476  0.95476348  0.73937864  1  0  -0.469081  0  3.061125  0  0  -0.427069  0  3.378205  0  0  -0.434826  0  3.378797  0  0  -0.415298  -0.422214  0  3.37713  0
N  N54  1  0.56767942  0.45476054  0.76062390  1  0  -0.468908  0  3.061019  0  0  -0.426891  0  3.378094  0  0  -0.434646  0  3.378687  0  0  -0.415215  -0.422045  0  3.377051  0
N  N55  1  0.93231573  0.04523545  0.26062083  1  0  -0.46904  0  3.061244  0  0  -0.427026  0  3.378336  0  0  -0.434789  0  3.37894  0  0  -0.41525  -0.422171  0  3.377274  0
N  N56  1  0.98266009  0.13971757  0.13466524  1  0  -0.267283  0  3.335691  0  0  -0.194068  0  3.62257  0  0  -0.203345  0  3.631124  0  0  -0.349068  -0.188546  0  3.616872  0
N  N57  1  0.51733688  0.36028288  0.63466686  1  0  -0.267146  0  3.335588  0  0  -0.193972  0  3.622482  0  0  -0.203243  0  3.631029  0  0  -0.348948  -0.188452  0  3.616797  0
N  N58  1  0.01733587  0.86028375  0.86533548  1  0  -0.267266  0  3.335584  0  0  -0.194035  0  3.622435  0  0  -0.203307  0  3.630975  0  0  -0.349046  -0.188515  0  3.616735  0
N  N59  1  0.48266685  0.63971607  0.36533428  1  0  -0.267172  0  3.335473  0  0  -0.19395  0  3.622343  0  0  -0.20323  0  3.630894  0  0  -0.34898  -0.188433  0  3.616659  0
