# generated using pymatgen
data_HgH4C4N3ClO2
_symmetry_space_group_name_H-M   'P 1'
_cell_length_a   6.84494435
_cell_length_b   8.14886285
_cell_length_c   13.39966046
_cell_angle_alpha   90.00024087
_cell_angle_beta   89.99975318
_cell_angle_gamma   110.62827789
_symmetry_Int_Tables_number   1
_chemical_formula_structural   HgH4C4N3ClO2
_chemical_formula_sum   'Hg4 H16 C16 N12 Cl4 O8'
_cell_volume   699.49331566
_cell_formula_units_Z   4
loop_
 _symmetry_equiv_pos_site_id
 _symmetry_equiv_pos_as_xyz
  1  'x, y, z'
loop_
 _atom_site_type_symbol
 _atom_site_label
 _atom_site_symmetry_multiplicity
 _atom_site_fract_x
 _atom_site_fract_y
 _atom_site_fract_z
 _atom_site_occupancy
 _atom_site_hle17_bader_spin_density
 _atom_site_hle17_ddec_charge
 _atom_site_hle17_ddec_spin_density
 _atom_site_hle17_ddec_sum_bond_order
 _atom_site_hle17_magmom
 _atom_site_hse06_10hf_bader_spin_density
 _atom_site_hse06_10hf_ddec_charge
 _atom_site_hse06_10hf_ddec_spin_density
 _atom_site_hse06_10hf_ddec_sum_bond_order
 _atom_site_hse06_10hf_magmom
 _atom_site_hse06_bader_spin_density
 _atom_site_hse06_ddec_charge
 _atom_site_hse06_ddec_spin_density
 _atom_site_hse06_ddec_sum_bond_order
 _atom_site_hse06_magmom
 _atom_site_pbe_bader_spin_density
 _atom_site_pbe_cm5_charge
 _atom_site_pbe_ddec_charge
 _atom_site_pbe_ddec_spin_density
 _atom_site_pbe_ddec_sum_bond_order
 _atom_site_pbe_magmom
Hg  Hg0  1  0.99999806  0.49999633  0.50000028  1  0  0.907134  0  1.88804  0  0  0.73505  0  2.334433  0  0  0.794652  0  2.295499  0  0  0.658388  0.693231  0  2.360592  0
Hg  Hg1  1  0.00000369  0.00000524  0.00000224  1  0  0.907133  0  1.888073  0  0  0.735026  0  2.334481  0  0  0.794626  0  2.295551  0  0  0.658383  0.693202  0  2.360643  0
Hg  Hg2  1  0.99999690  0.50000547  0.99999877  1  0  0.851521  0  2.062203  0  0  0.697772  0  2.571311  0  0  0.751628  0  2.529703  0  0  0.540589  0.660292  0  2.599488  0
Hg  Hg3  1  0.99999860  0.99999893  0.50000091  1  0  0.851462  0  2.062199  0  0  0.697709  0  2.571305  0  0  0.751569  0  2.529699  0  0  0.54055  0.660227  0  2.59948  0
H  H4  1  0.92260939  0.61263161  0.73086158  1  0  0.110222  0  0.936016  0  0  0.120033  0  0.997327  0  0  0.122077  0  0.994656  0  0  0.134371  0.118432  0  0.999363  0
H  H5  1  0.07738625  0.88736979  0.23086660  1  0  0.110181  0  0.936013  0  0  0.119967  0  0.99738  0  0  0.122022  0  0.994682  0  0  0.13433  0.118367  0  0.999418  0
H  H6  1  0.07738885  0.38736463  0.26913783  1  0  0.110227  0  0.936011  0  0  0.120032  0  0.997339  0  0  0.122078  0  0.994665  0  0  0.134367  0.118433  0  0.999371  0
H  H7  1  0.92261186  0.11263302  0.76913952  1  0  0.110189  0  0.935977  0  0  0.120013  0  0.997291  0  0  0.122058  0  0.994619  0  0  0.134342  0.118413  0  0.999329  0
H  H8  1  0.41805551  0.45563105  0.63422142  1  0  0.13375  0  0.962468  0  0  0.138296  0  1.031845  0  0  0.141707  0  1.027533  0  0  0.136608  0.135669  0  1.035085  0
H  H9  1  0.58194046  0.04436990  0.13422745  1  0  0.1338  0  0.962403  0  0  0.138273  0  1.031848  0  0  0.14172  0  1.027497  0  0  0.136612  0.135648  0  1.035085  0
H  H10  1  0.58194475  0.54436649  0.36577873  1  0  0.133758  0  0.962385  0  0  0.13824  0  1.031841  0  0  0.141689  0  1.027482  0  0  0.136606  0.135613  0  1.035079  0
H  H11  1  0.41805732  0.95563555  0.86577643  1  0  0.133783  0  0.962371  0  0  0.138289  0  1.031794  0  0  0.141723  0  1.027457  0  0  0.136605  0.135662  0  1.035034  0
H  H12  1  0.57694744  0.44231795  0.80502780  1  0  0.135382  0  0.94406  0  0  0.143497  0  1.014489  0  0  0.146855  0  1.012051  0  0  0.118061  0.141115  0  1.016288  0
H  H13  1  0.42305507  0.05768119  0.30503495  1  0  0.135338  0  0.944102  0  0  0.143455  0  1.014558  0  0  0.146809  0  1.012123  0  0  0.118006  0.141071  0  1.016356  0
H  H14  1  0.42305205  0.55767435  0.19496937  1  0  0.135398  0  0.944078  0  0  0.143509  0  1.014492  0  0  0.146862  0  1.012054  0  0  0.118059  0.141127  0  1.016287  0
H  H15  1  0.57694339  0.94231899  0.69496968  1  0  0.135379  0  0.944091  0  0  0.143505  0  1.014526  0  0  0.146858  0  1.012091  0  0  0.11803  0.14112  0  1.016324  0
H  H16  1  0.41357236  0.43647325  0.90967838  1  0  0.130064  0  0.945286  0  0  0.139079  0  1.014306  0  0  0.14185  0  1.012631  0  0  0.114039  0.137039  0  1.015632  0
H  H17  1  0.58642755  0.06353563  0.40967773  1  0  0.130034  0  0.945353  0  0  0.139061  0  1.014387  0  0  0.141831  0  1.012711  0  0  0.114024  0.13702  0  1.015713  0
H  H18  1  0.58643674  0.56353476  0.09032326  1  0  0.130024  0  0.945397  0  0  0.139052  0  1.014392  0  0  0.141819  0  1.012718  0  0  0.114025  0.137005  0  1.015725  0
H  H19  1  0.41356597  0.93646327  0.59032615  1  0  0.130015  0  0.945419  0  0  0.139082  0  1.014388  0  0  0.14185  0  1.012712  0  0  0.114021  0.137031  0  1.01572  0
C  C20  1  0.06278197  0.57991658  0.73113263  1  0  0.214256  0  3.688411  0  0  0.149789  0  3.977585  0  0  0.164762  0  3.99103  0  0  0.149759  0.139908  0  3.968527  0
C  C21  1  0.93721748  0.92008349  0.23113586  1  0  0.214435  0  3.68842  0  0  0.149952  0  3.97762  0  0  0.164929  0  3.991064  0  0  0.149799  0.14007  0  3.968559  0
C  C22  1  0.93721571  0.42007835  0.26886677  1  0  0.214308  0  3.688555  0  0  0.149823  0  3.977735  0  0  0.164797  0  3.991176  0  0  0.149788  0.139942  0  3.968674  0
C  C23  1  0.06278668  0.07992324  0.76886802  1  0  0.214391  0  3.688455  0  0  0.149886  0  3.977644  0  0  0.16486  0  3.991088  0  0  0.149835  0.140003  0  3.968588  0
C  C24  1  0.31394081  0.50126159  0.67814509  1  0  0.187865  0  3.576459  0  0  0.100823  0  3.842081  0  0  0.118023  0  3.852061  0  0  0.171007  0.089649  0  3.835387  0
C  C25  1  0.68606448  0.99874081  0.17814683  1  0  0.187926  0  3.576279  0  0  0.100904  0  3.841952  0  0  0.118077  0  3.851903  0  0  0.171003  0.089728  0  3.835255  0
C  C26  1  0.68606752  0.49874117  0.32185282  1  0  0.18798  0  3.576274  0  0  0.101  0  3.841925  0  0  0.118172  0  3.851878  0  0  0.171085  0.089826  0  3.835224  0
C  C27  1  0.31393287  0.00125676  0.82185332  1  0  0.187935  0  3.576329  0  0  0.100918  0  3.841962  0  0  0.118099  0  3.851927  0  0  0.171053  0.089743  0  3.83527  0
C  C28  1  0.49109817  0.51400900  0.84450659  1  0  -0.194463  0  3.585751  0  0  -0.268895  0  3.82932  0  0  -0.271479  0  3.834925  0  0  -0.06296  -0.267099  0  3.825837  0
C  C29  1  0.50890313  0.98599425  0.34451167  1  0  -0.194376  0  3.585814  0  0  -0.268851  0  3.829425  0  0  -0.271423  0  3.835007  0  0  -0.062925  -0.267045  0  3.825945  0
C  C30  1  0.50890869  0.48599377  0.15548983  1  0  -0.194549  0  3.585811  0  0  -0.268942  0  3.829358  0  0  -0.271507  0  3.834943  0  0  -0.062984  -0.267135  0  3.825882  0
C  C31  1  0.49109533  0.01400593  0.65549072  1  0  -0.194479  0  3.585802  0  0  -0.268957  0  3.829366  0  0  -0.271525  0  3.834946  0  0  -0.062979  -0.267147  0  3.825891  0
C  C32  1  0.64170372  0.69406295  0.87996875  1  0  0.681693  0  3.889854  0  0  0.634882  0  4.198986  0  0  0.668541  0  4.192811  0  0  0.194194  0.611983  0  4.202033  0
C  C33  1  0.35830477  0.80593387  0.37997370  1  0  0.68199  0  3.889512  0  0  0.635171  0  4.198693  0  0  0.668829  0  4.192515  0  0  0.194367  0.612247  0  4.201766  0
C  C34  1  0.35830438  0.30593587  0.12002319  1  0  0.681946  0  3.889505  0  0  0.635114  0  4.198664  0  0  0.668767  0  4.19249  0  0  0.194341  0.612201  0  4.201721  0
C  C35  1  0.64169369  0.19406631  0.62002944  1  0  0.681842  0  3.88981  0  0  0.635007  0  4.199007  0  0  0.668662  0  4.192831  0  0  0.194274  0.612093  0  4.202069  0
N  N36  1  0.33153715  0.52755311  0.77687671  1  0  0.087943  0  3.550875  0  0  0.209001  0  3.730525  0  0  0.201487  0  3.750691  0  0  -0.125755  0.213558  0  3.717098  0
N  N37  1  0.66846235  0.97244455  0.27688066  1  0  0.087765  0  3.550831  0  0  0.208917  0  3.730372  0  0  0.201401  0  3.750538  0  0  -0.125766  0.213476  0  3.716944  0
N  N38  1  0.66846255  0.47244312  0.22312120  1  0  0.087955  0  3.550713  0  0  0.208966  0  3.730363  0  0  0.201447  0  3.750535  0  0  -0.12577  0.213526  0  3.716934  0
N  N39  1  0.33153499  0.02755301  0.72312098  1  0  0.087931  0  3.550763  0  0  0.209007  0  3.730395  0  0  0.201488  0  3.750564  0  0  -0.125741  0.213565  0  3.716965  0
N  N40  1  0.17383407  0.57819584  0.81152111  1  0  -0.284587  0  2.964595  0  0  -0.264408  0  3.241225  0  0  -0.279468  0  3.256895  0  0  -0.216768  -0.254264  0  3.230687  0
N  N41  1  0.82616285  0.92180332  0.31152608  1  0  -0.284682  0  2.964653  0  0  -0.264511  0  3.241268  0  0  -0.279575  0  3.256943  0  0  -0.216784  -0.254367  0  3.230733  0
N  N42  1  0.82616507  0.42179908  0.18847755  1  0  -0.2847  0  2.964676  0  0  -0.264503  0  3.241317  0  0  -0.279564  0  3.256994  0  0  -0.21682  -0.254361  0  3.230784  0
N  N43  1  0.17383728  0.07820079  0.68847706  1  0  -0.284696  0  2.964612  0  0  -0.264512  0  3.241242  0  0  -0.279575  0  3.256921  0  0  -0.216805  -0.254365  0  3.230702  0
N  N44  1  0.14450995  0.53390356  0.64736543  1  0  -0.347523  0  3.281833  0  0  -0.254452  0  3.569527  0  0  -0.282573  0  3.587202  0  0  -0.321666  -0.23576  0  3.557082  0
N  N45  1  0.85549296  0.96609607  0.14736896  1  0  -0.347533  0  3.281922  0  0  -0.254435  0  3.569598  0  0  -0.282558  0  3.587282  0  0  -0.321628  -0.235743  0  3.557163  0
N  N46  1  0.85548997  0.46609661  0.35263248  1  0  -0.347582  0  3.281993  0  0  -0.254506  0  3.56968  0  0  -0.282627  0  3.58736  0  0  -0.321678  -0.235816  0  3.557248  0
N  N47  1  0.14450898  0.03390541  0.85263268  1  0  -0.347587  0  3.282055  0  0  -0.254509  0  3.56976  0  0  -0.282628  0  3.587436  0  0  -0.321701  -0.235809  0  3.557307  0
Cl  Cl48  1  0.76177030  0.23008861  0.93762546  1  0  -0.431908  0  1.080481  0  0  -0.370218  0  1.383736  0  0  -0.391564  0  1.362851  0  0  -0.225283  -0.355864  0  1.398079  0
Cl  Cl49  1  0.23823158  0.26991514  0.43762311  1  0  -0.431874  0  1.080455  0  0  -0.370188  0  1.38372  0  0  -0.391536  0  1.362837  0  0  -0.225266  -0.355833  0  1.398059  0
Cl  Cl50  1  0.23822580  0.76991290  0.06237618  1  0  -0.431903  0  1.080529  0  0  -0.370209  0  1.383785  0  0  -0.391556  0  1.362902  0  0  -0.225265  -0.355854  0  1.398126  0
Cl  Cl51  1  0.76176577  0.73008242  0.56237778  1  0  -0.431896  0  1.080497  0  0  -0.370216  0  1.383781  0  0  -0.391564  0  1.362896  0  0  -0.225274  -0.35586  0  1.398118  0
O  O52  1  0.76269101  0.68626647  0.95158386  1  0  -0.672288  0  2.042925  0  0  -0.604632  0  2.305681  0  0  -0.638636  0  2.297286  0  0  -0.336737  -0.580236  0  2.310011  0
O  O53  1  0.23730524  0.81373735  0.45159133  1  0  -0.672537  0  2.042722  0  0  -0.604861  0  2.305472  0  0  -0.638869  0  2.297076  0  0  -0.336861  -0.58048  0  2.30988  0
O  O54  1  0.23730363  0.31373505  0.04841107  1  0  -0.672472  0  2.042834  0  0  -0.60478  0  2.305556  0  0  -0.638781  0  2.297158  0  0  -0.336812  -0.580408  0  2.309971  0
O  O55  1  0.76269211  0.18626022  0.54841181  1  0  -0.672465  0  2.042769  0  0  -0.604766  0  2.3055  0  0  -0.638775  0  2.297108  0  0  -0.336796  -0.580373  0  2.309869  0
O  O56  1  0.63897830  0.83118225  0.83898058  1  0  -0.629771  0  1.969471  0  0  -0.589218  0  2.212016  0  0  -0.614737  0  2.20539  0  0  -0.328381  -0.570888  0  2.215658  0
O  O57  1  0.36102394  0.66881966  0.33899487  1  0  -0.629707  0  1.969518  0  0  -0.589191  0  2.212111  0  0  -0.614717  0  2.205502  0  0  -0.328373  -0.570855  0  2.215765  0
O  O58  1  0.36103440  0.16882049  0.16100390  1  0  -0.629759  0  1.969412  0  0  -0.589216  0  2.211967  0  0  -0.614752  0  2.205379  0  0  -0.32841  -0.570879  0  2.215616  0
O  O59  1  0.63897452  0.33118053  0.66100677  1  0  -0.62962  0  1.96969  0  0  -0.589127  0  2.212321  0  0  -0.614638  0  2.20569  0  0  -0.328333  -0.570794  0  2.21597  0
