# generated using pymatgen
data_CuH10C12(N3O)4
_symmetry_space_group_name_H-M   'P 1'
_cell_length_a   8.20729701
_cell_length_b   8.20726987
_cell_length_c   13.28778421
_cell_angle_alpha   99.43498754
_cell_angle_beta   99.43538489
_cell_angle_gamma   104.49773283
_symmetry_Int_Tables_number   1
_chemical_formula_structural   CuH10C12(N3O)4
_chemical_formula_sum   'Cu2 H20 C24 N24 O8'
_cell_volume   834.91574162
_cell_formula_units_Z   2
loop_
 _symmetry_equiv_pos_site_id
 _symmetry_equiv_pos_as_xyz
  1  'x, y, z'
loop_
 _atom_site_type_symbol
 _atom_site_label
 _atom_site_symmetry_multiplicity
 _atom_site_fract_x
 _atom_site_fract_y
 _atom_site_fract_z
 _atom_site_occupancy
 _atom_site_hle17_ddec_charge
 _atom_site_hle17_ddec_spin_density
 _atom_site_hle17_ddec_sum_bond_order
 _atom_site_hle17_magmom
 _atom_site_hse06_10hf_ddec_charge
 _atom_site_hse06_10hf_ddec_spin_density
 _atom_site_hse06_10hf_ddec_sum_bond_order
 _atom_site_hse06_10hf_magmom
 _atom_site_hse06_ddec_charge
 _atom_site_hse06_ddec_spin_density
 _atom_site_hse06_ddec_sum_bond_order
 _atom_site_hse06_magmom
 _atom_site_pbe_cm5_charge
 _atom_site_pbe_ddec_charge
 _atom_site_pbe_ddec_spin_density
 _atom_site_pbe_ddec_sum_bond_order
 _atom_site_pbe_magmom
Cu  Cu0  1  0.00000345  0.00000404  0.49999908  1  0.833173  -0.717666  1.930327  -0.553  0.796308  -0.791421  2.31416  -0.651  0.872095  -0.847413  2.260496  -0.725  0.797206  0.74896  -0.75063  2.350998  -0.601
Cu  Cu1  1  0.00000022  0.00000515  0.99999978  1  0.833155  -0.717665  1.930373  -0.553  0.796319  -0.79143  2.314198  -0.651  0.872073  -0.847418  2.260507  -0.725  0.797203  0.748947  -0.750632  2.35105  -0.601
H  H2  1  0.60191993  0.98507857  0.41802450  1  0.116637  6e-05  0.969232  0.0  0.118594  -0.000103  1.044049  0.0  0.121564  -6.4e-05  1.039829  0.0  0.141007  0.116216  -0.00014  1.047251  0.0
H  H3  1  0.01492587  0.39808015  0.08197547  1  0.116584  5.7e-05  0.969204  0.0  0.118524  -0.000103  1.044063  0.0  0.121494  -6.4e-05  1.039843  0.0  0.140976  0.116147  -0.00014  1.047265  0.0
H  H4  1  0.39809082  0.01492370  0.58196875  1  0.116739  6.1e-05  0.969133  0.0  0.118606  -0.000103  1.044014  0.0  0.121576  -6.4e-05  1.039796  0.0  0.141002  0.116231  -0.00014  1.047211  0.0
H  H5  1  0.98506896  0.60190927  0.91803221  1  0.11675  5.8e-05  0.96909  0.0  0.118612  -0.000103  1.043975  0.0  0.121583  -6.4e-05  1.039757  0.0  0.14101  0.116236  -0.00014  1.04717  0.0
H  H6  1  0.05691061  0.35328575  0.40778460  1  0.109402  0.000135  0.928618  0.0  0.11656  -5.1e-05  0.988906  0.0  0.118687  -3.4e-05  0.986391  0.0  0.137822  0.114871  -6.7e-05  0.99086  0.0
H  H7  1  0.64671864  0.94308954  0.09221632  1  0.109399  0.000136  0.928598  0.0  0.116551  -5.1e-05  0.988898  0.0  0.118679  -3.4e-05  0.986382  0.0  0.13781  0.114858  -6.6e-05  0.990855  0.0
H  H8  1  0.94309828  0.64672298  0.59221664  1  0.109456  0.000135  0.92856  0.0  0.116603  -5.1e-05  0.988861  0.0  0.118732  -3.4e-05  0.986342  0.0  0.137844  0.114904  -6.7e-05  0.990823  0.0
H  H9  1  0.35327403  0.05690112  0.90777998  1  0.109463  0.000139  0.928527  0.0  0.116607  -5.1e-05  0.988835  0.0  0.118737  -3.4e-05  0.986315  0.0  0.137848  0.114916  -6.6e-05  0.990793  0.0
H  H10  1  0.49964635  0.40228730  0.36438540  1  0.115823  -0.00015  0.883804  0.0  0.124732  -0.000161  0.940559  0.0  0.127267  -0.000103  0.93812  0.0  0.149839  0.122933  -0.000214  0.94246  0.0
H  H11  1  0.59771792  0.50035426  0.13562031  1  0.115811  -0.000148  0.883825  0.0  0.124761  -0.000161  0.940507  0.0  0.127297  -0.000104  0.938064  0.0  0.149843  0.122964  -0.000214  0.942408  0.0
H  H12  1  0.50035789  0.59771369  0.63561459  1  0.115777  -0.000148  0.883778  0.0  0.124651  -0.000161  0.940558  0.0  0.127185  -0.000103  0.93812  0.0  0.149818  0.122854  -0.000214  0.942459  0.0
H  H13  1  0.40227941  0.49964414  0.86437949  1  0.115837  -0.000144  0.883786  0.0  0.124745  -0.000161  0.940484  0.0  0.127279  -0.000103  0.938043  0.0  0.149842  0.12295  -0.000214  0.942382  0.0
H  H14  1  0.24806181  0.31403683  0.19428993  1  0.120795  0.000185  0.916804  0.0  0.129096  2e-05  0.979867  0.0  0.132037  2.1e-05  0.975014  0.0  0.148861  0.126829  2e-05  0.983524  0.0
H  H15  1  0.68596328  0.75193983  0.30570899  1  0.12071  0.000189  0.916792  0.0  0.129049  2e-05  0.979822  0.0  0.13199  2.1e-05  0.974971  0.0  0.148843  0.126782  2e-05  0.983476  0.0
H  H16  1  0.75193625  0.68596415  0.80570945  1  0.120691  0.000185  0.91685  0.0  0.129026  2e-05  0.97988  0.0  0.131967  2.1e-05  0.975027  0.0  0.148839  0.126755  2e-05  0.983533  0.0
H  H17  1  0.31403071  0.24805986  0.69429136  1  0.120722  0.000181  0.916866  0.0  0.129034  2e-05  0.979922  0.0  0.131975  2.1e-05  0.975069  0.0  0.148827  0.126771  2e-05  0.983578  0.0
H  H18  1  0.22569926  0.78728545  0.12341403  1  0.106743  0.000176  0.935653  0.0  0.110683  9e-06  1.002448  0.0  0.112887  2.3e-05  0.999306  0.0  0.136226  0.108953  -1e-05  1.004838  0.0
H  H19  1  0.21271791  0.77430301  0.37658489  1  0.106755  0.000169  0.935633  0.0  0.1107  9e-06  1.002416  0.0  0.112904  2.3e-05  0.999273  0.0  0.136242  0.108971  -1.1e-05  1.004806  0.0
H  H20  1  0.77429067  0.21271295  0.87658803  1  0.106732  0.00017  0.935729  0.0  0.110682  9e-06  1.002512  0.0  0.112876  2.3e-05  0.999393  0.0  0.136264  0.108958  -1e-05  1.004885  0.0
H  H21  1  0.78727890  0.22569796  0.62341361  1  0.106716  0.00017  0.935663  0.0  0.110668  9e-06  1.002433  0.0  0.112874  2.3e-05  0.999292  0.0  0.13625  0.108935  -1e-05  1.004833  0.0
C  C22  1  0.69348915  0.10167916  0.41062978  1  0.185436  0.005558  3.615485  0.003  0.116801  0.001113  3.896685  0.0  0.134418  0.002343  3.905933  0.001  0.168679  0.105273  0.000122  3.890636  -0.001
C  C23  1  0.89832234  0.30651526  0.08937030  1  0.185476  0.005593  3.615366  0.003  0.116872  0.001114  3.896547  0.0  0.134487  0.00234  3.905794  0.001  0.168727  0.105339  0.000123  3.890507  -0.001
C  C24  1  0.30652234  0.89832569  0.58936531  1  0.185394  0.005567  3.615496  0.003  0.116911  0.001112  3.896587  0.0  0.134528  0.002343  3.905834  0.001  0.168701  0.105379  0.000122  3.890548  -0.001
C  C25  1  0.10167109  0.69347801  0.91063613  1  0.185495  0.005568  3.61541  0.003  0.11702  0.001113  3.896471  0.0  0.134635  0.002341  3.905717  0.001  0.168722  0.105494  0.000123  3.890423  -0.001
C  C26  1  0.92199970  0.29176074  0.40325068  1  0.215245  0.002923  3.655439  0.001  0.165631  0.000255  3.946614  -0.001  0.179251  0.001098  3.958031  0.0  0.148738  0.156707  -0.000425  3.93894  -0.001
C  C27  1  0.70824446  0.07800183  0.09675408  1  0.215242  0.002935  3.655398  0.001  0.165638  0.000254  3.946579  -0.001  0.179257  0.001098  3.957995  0.0  0.148744  0.156723  -0.000425  3.938901  -0.001
C  C28  1  0.07800561  0.70824409  0.59674454  1  0.215213  0.002931  3.655437  0.001  0.165604  0.000254  3.946617  -0.001  0.179223  0.001099  3.958035  0.0  0.148812  0.156702  -0.000425  3.938937  -0.001
C  C29  1  0.29174860  0.92199014  0.90324916  1  0.215214  0.002904  3.655355  0.001  0.165597  0.000256  3.946533  -0.001  0.179213  0.001098  3.957951  0.0  0.148683  0.156682  -0.000424  3.93886  -0.001
C  C30  1  0.48439106  0.26712900  0.36946491  1  0.054148  -0.001427  3.566358  -0.002  0.004013  -0.001029  3.810925  -0.001  0.009314  -0.000766  3.818492  -0.001  0.13669  -5.9e-05  -0.001281  3.80642  -0.001
C  C31  1  0.73287190  0.51561085  0.13053852  1  0.054124  -0.00143  3.566309  -0.002  0.003995  -0.001029  3.810822  -0.001  0.009294  -0.000767  3.81839  -0.001  0.136678  -8.4e-05  -0.001281  3.806316  -0.001
C  C32  1  0.51561405  0.73287070  0.63053429  1  0.054223  -0.001437  3.566398  -0.002  0.004203  -0.001029  3.810887  -0.001  0.009506  -0.000771  3.818453  -0.001  0.136698  0.000124  -0.001281  3.806382  -0.001
C  C33  1  0.26712471  0.48438498  0.86946321  1  0.054133  -0.001443  3.566402  -0.002  0.004145  -0.001027  3.810783  -0.001  0.009446  -0.000775  3.818348  -0.001  0.136673  6.7e-05  -0.001281  3.806275  -0.001
C  C34  1  0.39688700  0.23251067  0.46526652  1  0.610669  0.000383  3.963724  0.0  0.568626  0.000356  4.271983  0.0  0.600967  0.000276  4.265458  0.0  0.194362  0.546867  0.000387  4.275327  0.0
C  C35  1  0.76748459  0.60312003  0.03473598  1  0.6107  0.000383  3.963538  0.0  0.568599  0.000355  4.271881  0.0  0.600938  0.000274  4.265359  0.0  0.194389  0.546841  0.000387  4.275224  0.0
C  C36  1  0.60312481  0.76748648  0.53473535  1  0.610785  0.000389  3.963392  0.0  0.568613  0.000354  4.271857  0.0  0.600953  0.000279  4.265336  0.0  0.194408  0.546859  0.000387  4.275191  0.0
C  C37  1  0.23250976  0.39688094  0.96526302  1  0.610782  0.000389  3.963397  0.0  0.568557  0.000353  4.271923  0.0  0.600896  0.000281  4.265403  0.0  0.194316  0.546807  0.000387  4.275254  0.0
C  C38  1  0.26623246  0.18843540  0.19799873  1  0.202876  0.007362  3.595402  0.004  0.131069  0.002142  3.880516  0.0  0.150328  0.003295  3.887534  0.001  0.174801  0.118086  0.001331  3.876081  0.0
C  C39  1  0.81156866  0.73377072  0.30200332  1  0.203148  0.007334  3.595376  0.004  0.131281  0.002142  3.880448  0.0  0.150541  0.003295  3.887468  0.001  0.174955  0.118294  0.001331  3.87601  0.0
C  C40  1  0.73376560  0.81156558  0.80200140  1  0.203097  0.007351  3.595424  0.004  0.131264  0.002142  3.880505  0.0  0.150523  0.003293  3.887523  0.001  0.174881  0.118286  0.00133  3.876064  0.0
C  C41  1  0.18842779  0.26622897  0.69799577  1  0.203158  0.007394  3.595638  0.004  0.131289  0.002141  3.880698  0.0  0.15055  0.003297  3.887717  0.001  0.174935  0.118304  0.001331  3.87627  0.0
C  C42  1  0.25860667  0.92189760  0.16243213  1  0.217298  0.00561  3.671336  0.002  0.170746  0.001616  3.958585  0.0  0.184916  0.002423  3.970478  0.001  0.153411  0.161551  0.001073  3.950699  0.0
C  C43  1  0.07810653  0.74139298  0.33756713  1  0.217246  0.005637  3.671345  0.003  0.170701  0.001616  3.9586  0.0  0.184874  0.002421  3.970493  0.001  0.153382  0.161499  0.001073  3.950717  0.0
C  C44  1  0.74138943  0.07810081  0.83756981  1  0.217395  0.005634  3.671296  0.003  0.170825  0.001616  3.958553  0.0  0.184994  0.002422  3.970441  0.001  0.1534  0.16163  0.001074  3.950673  0.0
C  C45  1  0.92189240  0.25860671  0.66243145  1  0.217375  0.005635  3.67113  0.003  0.170819  0.001615  3.958382  0.0  0.18499  0.002421  3.970272  0.001  0.153386  0.161628  0.001073  3.95049  0.0
N  N46  1  0.65304854  0.24072489  0.38507174  1  0.013689  -0.002908  3.595237  -0.004  0.094835  -0.001891  3.827831  -0.003  0.082563  -0.00134  3.851298  -0.002  -0.130827  0.102743  -0.002358  3.812246  -0.003
N  N47  1  0.75927995  0.34695483  0.11493117  1  0.01366  -0.002925  3.595365  -0.004  0.094755  -0.001891  3.827984  -0.003  0.082487  -0.001339  3.851447  -0.002  -0.130914  0.10267  -0.002358  3.812394  -0.003
N  N48  1  0.34695691  0.75927608  0.61492161  1  0.01344  -0.002916  3.595557  -0.004  0.094511  -0.001891  3.828139  -0.003  0.082241  -0.001342  3.851599  -0.002  -0.130869  0.102429  -0.002358  3.812547  -0.003
N  N49  1  0.24071507  0.65303972  0.88507252  1  0.013415  -0.002919  3.595381  -0.004  0.094456  -0.001893  3.827976  -0.003  0.082183  -0.001339  3.851438  -0.002  -0.13088  0.102368  -0.002358  3.81239  -0.003
N  N50  1  0.86337686  0.13041646  0.42252978  1  -0.365916  -0.069104  3.268581  -0.093  -0.321415  -0.049003  3.578721  -0.069  -0.352803  -0.039069  3.595518  -0.059  -0.35912  -0.301598  -0.055445  3.568017  -0.074
N  N51  1  0.86958590  0.13662697  0.07747215  1  -0.365847  -0.069117  3.268492  -0.093  -0.321379  -0.049003  3.578637  -0.069  -0.352756  -0.039069  3.595417  -0.059  -0.359099  -0.301559  -0.055446  3.567936  -0.074
N  N52  1  0.13663180  0.86958710  0.57746715  1  -0.365945  -0.069111  3.268691  -0.093  -0.321489  -0.049004  3.578783  -0.069  -0.352877  -0.039069  3.595582  -0.059  -0.359188  -0.301678  -0.055446  3.568091  -0.074
N  N53  1  0.13040629  0.86336629  0.92253264  1  -0.366053  -0.069102  3.268809  -0.093  -0.321565  -0.049002  3.578888  -0.069  -0.352943  -0.039069  3.595667  -0.059  -0.359139  -0.301748  -0.055444  3.568193  -0.074
N  N54  1  0.79674454  0.36314682  0.37979687  1  -0.249281  -0.007704  2.837042  -0.009  -0.252962  -0.003633  3.125036  -0.005  -0.2605  -0.002475  3.138637  -0.003  -0.218506  -0.247666  -0.004922  3.115717  -0.006
N  N55  1  0.63686051  0.20325920  0.12020713  1  -0.249331  -0.007708  2.837189  -0.009  -0.25301  -0.003635  3.125196  -0.005  -0.260551  -0.002473  3.138798  -0.003  -0.218511  -0.247717  -0.004923  3.115876  -0.006
N  N56  1  0.20326348  0.63686320  0.62020441  1  -0.249139  -0.007705  2.837133  -0.009  -0.25282  -0.003634  3.125145  -0.005  -0.260359  -0.002475  3.138746  -0.003  -0.218508  -0.247531  -0.004923  3.115824  -0.006
N  N57  1  0.36313289  0.79673404  0.87979176  1  -0.249126  -0.007691  2.836979  -0.009  -0.25281  -0.003633  3.125006  -0.005  -0.260348  -0.002472  3.138609  -0.003  -0.218459  -0.247518  -0.004921  3.115689  -0.006
N  N58  1  0.37889363  0.15584248  0.27170855  1  0.015875  -0.001785  3.5999  -0.003  0.095746  -0.001264  3.834023  -0.002  0.083737  -0.000908  3.858327  -0.001  -0.127613  0.103941  -0.001567  3.817634  -0.002
N  N59  1  0.84415938  0.62110994  0.22829365  1  0.015801  -0.001775  3.600098  -0.003  0.095779  -0.001263  3.834061  -0.002  0.08377  -0.000905  3.858366  -0.001  -0.127622  0.103974  -0.001567  3.817672  -0.002
N  N60  1  0.62110407  0.84415722  0.72829292  1  0.015732  -0.001789  3.600133  -0.003  0.095601  -0.001263  3.834223  -0.002  0.083592  -0.000906  3.858525  -0.001  -0.127711  0.103798  -0.001567  3.817836  -0.002
N  N61  1  0.15583621  0.37889103  0.77170548  1  0.01567  -0.001795  3.60022  -0.003  0.095657  -0.001264  3.834137  -0.002  0.083644  -0.000907  3.858442  -0.001  -0.127662  0.103851  -0.001567  3.817751  -0.002
N  N62  1  0.37510701  0.98689342  0.25082015  1  -0.26076  -0.008843  2.864607  -0.011  -0.253208  -0.004017  3.140936  -0.005  -0.263248  -0.002755  3.155022  -0.004  -0.215519  -0.2465  -0.005493  3.131355  -0.007
N  N63  1  0.01310529  0.62489183  0.24918011  1  -0.260755  -0.008852  2.864721  -0.011  -0.253245  -0.004017  3.141026  -0.005  -0.263285  -0.002756  3.155113  -0.004  -0.215546  -0.246537  -0.005493  3.131449  -0.007
N  N64  1  0.62488698  0.01310626  0.74918095  1  -0.260747  -0.008842  2.864574  -0.011  -0.253195  -0.004017  3.140892  -0.005  -0.263234  -0.002754  3.154977  -0.004  -0.215458  -0.246488  -0.005493  3.131315  -0.007
N  N65  1  0.98688978  0.37511170  0.75081772  1  -0.260747  -0.008843  2.864654  -0.011  -0.253259  -0.004016  3.14097  -0.005  -0.263296  -0.002755  3.155055  -0.004  -0.215503  -0.24655  -0.005492  3.13139  -0.007
N  N66  1  0.18718759  0.04150633  0.12767746  1  -0.365828  -0.072689  3.27717  -0.098  -0.327424  -0.050443  3.597001  -0.071  -0.359199  -0.040365  3.613413  -0.061  -0.358108  -0.307249  -0.056981  3.586614  -0.076
N  N67  1  0.95850035  0.81281447  0.37232188  1  -0.365839  -0.072683  3.277165  -0.098  -0.327459  -0.050445  3.597019  -0.071  -0.359244  -0.040366  3.613449  -0.061  -0.358117  -0.307284  -0.056983  3.586631  -0.076
N  N68  1  0.81280815  0.95849079  0.87232506  1  -0.365945  -0.072681  3.277144  -0.098  -0.327534  -0.050441  3.596989  -0.071  -0.359307  -0.040364  3.613392  -0.061  -0.358159  -0.307362  -0.056979  3.586608  -0.076
N  N69  1  0.04150141  0.18718650  0.62767486  1  -0.365924  -0.072692  3.277193  -0.098  -0.327504  -0.050442  3.597028  -0.071  -0.359287  -0.040365  3.61345  -0.061  -0.358134  -0.307335  -0.056978  3.586649  -0.076
O  O70  1  0.23576362  0.17324793  0.44035967  1  -0.632409  0.001396  2.022492  0.0  -0.601384  0.001798  2.27736  0.0  -0.626683  0.002067  2.267635  0.0  -0.333229  -0.58374  0.001376  2.283579  0.0
O  O71  1  0.82675346  0.76424286  0.05964466  1  -0.632485  0.001396  2.022461  0.0  -0.601448  0.001797  2.277356  0.0  -0.626739  0.002063  2.267624  0.0  -0.333277  -0.583796  0.001376  2.283562  0.0
O  O72  1  0.76424487  0.82677241  0.55964871  1  -0.632445  0.001399  2.022452  0.0  -0.601364  0.001796  2.277364  0.0  -0.626664  0.002071  2.267639  0.0  -0.333243  -0.583733  0.001376  2.283595  0.0
O  O73  1  0.17322890  0.23575937  0.94035628  1  -0.632502  0.001395  2.022413  0.0  -0.601436  0.001797  2.277391  0.0  -0.626727  0.002065  2.267658  0.0  -0.333226  -0.583801  0.001376  2.283623  0.0
O  O74  1  0.49813631  0.27012939  0.55307325  1  -0.626997  -0.00036  1.885266  0.0  -0.588854  2e-06  2.100254  0.0  -0.611505  4.4e-05  2.091682  0.0  -0.346102  -0.572596  -9.3e-05  2.105378  0.0
O  O75  1  0.72987000  0.50187444  0.94692834  1  -0.626956  -0.00036  1.885196  0.0  -0.588806  3e-06  2.100213  0.0  -0.611454  4.4e-05  2.091646  0.0  -0.346094  -0.572552  -9.3e-05  2.105334  0.0
O  O76  1  0.50187875  0.72985746  0.44692491  1  -0.627057  -0.000363  1.884977  0.0  -0.588892  2e-06  2.100041  0.0  -0.611544  4.1e-05  2.091471  0.0  -0.346155  -0.572628  -9.3e-05  2.10515  0.0
O  O77  1  0.27014609  0.49812915  0.05307235  1  -0.626989  -0.000357  1.885027  0.0  -0.58881  2e-06  2.10011  0.0  -0.61146  4.6e-05  2.091543  0.0  -0.346094  -0.57255  -9.3e-05  2.105224  0.0
