# generated using pymatgen
data_NaH6C6SNO3
_symmetry_space_group_name_H-M   'P 1'
_cell_length_a   4.89385747
_cell_length_b   11.33653018
_cell_length_c   14.06019610
_cell_angle_alpha   97.84265502
_cell_angle_beta   90.00031483
_cell_angle_gamma   89.99949060
_symmetry_Int_Tables_number   1
_chemical_formula_structural   NaH6C6SNO3
_chemical_formula_sum   'Na4 H24 C24 S4 N4 O12'
_cell_volume   772.75454024
_cell_formula_units_Z   4
loop_
 _symmetry_equiv_pos_site_id
 _symmetry_equiv_pos_as_xyz
  1  'x, y, z'
loop_
 _atom_site_type_symbol
 _atom_site_label
 _atom_site_symmetry_multiplicity
 _atom_site_fract_x
 _atom_site_fract_y
 _atom_site_fract_z
 _atom_site_occupancy
 _atom_site_hle17_bader_spin_density
 _atom_site_hle17_ddec_charge
 _atom_site_hle17_ddec_spin_density
 _atom_site_hle17_ddec_sum_bond_order
 _atom_site_hle17_magmom
 _atom_site_hse06_10hf_bader_spin_density
 _atom_site_hse06_10hf_ddec_charge
 _atom_site_hse06_10hf_ddec_spin_density
 _atom_site_hse06_10hf_ddec_sum_bond_order
 _atom_site_hse06_10hf_magmom
 _atom_site_hse06_bader_spin_density
 _atom_site_hse06_ddec_charge
 _atom_site_hse06_ddec_spin_density
 _atom_site_hse06_ddec_sum_bond_order
 _atom_site_hse06_magmom
 _atom_site_pbe_bader_spin_density
 _atom_site_pbe_cm5_charge
 _atom_site_pbe_ddec_charge
 _atom_site_pbe_ddec_spin_density
 _atom_site_pbe_ddec_sum_bond_order
 _atom_site_pbe_magmom
Na  Na0  1  0.98507048  0.13344208  0.55347146  1  0  0.90836  0  0.382504  0  0  0.867133  0  0.532587  0  0  0.876055  0  0.513139  0  0  0.716471  0.860682  0  0.54634  0
Na  Na1  1  0.48506699  0.36656148  0.44652735  1  0  0.90834  0  0.382523  0  0  0.86716  0  0.532535  0  0  0.876081  0  0.513085  0  0  0.716468  0.860689  0  0.546326  0
Na  Na2  1  0.01495622  0.86656315  0.44653717  1  0  0.908335  0  0.382544  0  0  0.867127  0  0.532629  0  0  0.876051  0  0.513171  0  0  0.716506  0.860658  0  0.546452  0
Na  Na3  1  0.51494949  0.63344099  0.55346463  1  0  0.90834  0  0.382556  0  0  0.867121  0  0.532657  0  0  0.876044  0  0.513203  0  0  0.71651  0.860671  0  0.546463  0
H  H4  1  0.70318434  0.17824303  0.85684611  1  0  0.100812  0  0.95185  0  0  0.114346  0  1.008009  0  0  0.11706  0  1.007891  0  0  0.102838  0.112403  0  1.008237  0
H  H5  1  0.20317701  0.32175888  0.14315270  1  0  0.100804  0  0.951875  0  0  0.114338  0  1.008034  0  0  0.117052  0  1.007917  0  0  0.102833  0.112397  0  1.008263  0
H  H6  1  0.29680149  0.82176835  0.14314824  1  0  0.100773  0  0.951905  0  0  0.114315  0  1.008058  0  0  0.117033  0  1.007947  0  0  0.102825  0.11238  0  1.008283  0
H  H7  1  0.79679861  0.67823121  0.85685147  1  0  0.10081  0  0.951906  0  0  0.114356  0  1.008053  0  0  0.117071  0  1.007945  0  0  0.102845  0.112421  0  1.008278  0
H  H8  1  0.99543645  0.27551962  0.98857911  1  0  0.079795  0  0.973524  0  0  0.090458  0  1.038386  0  0  0.092489  0  1.037415  0  0  0.097293  0.089006  0  1.039049  0
H  H9  1  0.49543518  0.22448035  0.01142004  1  0  0.079778  0  0.973512  0  0  0.090437  0  1.03838  0  0  0.092467  0  1.03741  0  0  0.097281  0.088983  0  1.039043  0
H  H10  1  0.00454939  0.72448021  0.01141756  1  0  0.07974  0  0.973571  0  0  0.090418  0  1.038427  0  0  0.092452  0  1.037449  0  0  0.097261  0.08897  0  1.039087  0
H  H11  1  0.50454248  0.77551683  0.98858133  1  0  0.079718  0  0.973606  0  0  0.090403  0  1.038453  0  0  0.092437  0  1.037477  0  0  0.097258  0.088956  0  1.039114  0
H  H12  1  0.28686663  0.45024921  0.96411733  1  0  0.086786  0  0.961329  0  0  0.10025  0  1.01805  0  0  0.102908  0  1.017967  0  0  0.096613  0.098348  0  1.018256  0
H  H13  1  0.78687393  0.04975240  0.03588303  1  0  0.086794  0  0.9613  0  0  0.100277  0  1.018007  0  0  0.102918  0  1.017943  0  0  0.096619  0.098376  0  1.018214  0
H  H14  1  0.71314373  0.54974795  0.03588119  1  0  0.086787  0  0.961376  0  0  0.100268  0  1.018077  0  0  0.102914  0  1.018008  0  0  0.096653  0.098364  0  1.018276  0
H  H15  1  0.21313234  0.95025190  0.96411839  1  0  0.08677  0  0.961325  0  0  0.100244  0  1.018034  0  0  0.102896  0  1.017956  0  0  0.096676  0.098343  0  1.01823  0
H  H16  1  0.29199761  0.52094905  0.80322330  1  0  0.10285  0  0.951449  0  0  0.11257  0  1.012797  0  0  0.115643  0  1.01099  0  0  0.106078  0.11035  0  1.014129  0
H  H17  1  0.79200679  0.97905053  0.19677782  1  0  0.10282  0  0.95139  0  0  0.112568  0  1.01271  0  0  0.115643  0  1.010902  0  0  0.106076  0.110331  0  1.014056  0
H  H18  1  0.70800662  0.47905258  0.19677783  1  0  0.102865  0  0.95139  0  0  0.112606  0  1.012712  0  0  0.115682  0  1.010899  0  0  0.106089  0.110375  0  1.014039  0
H  H19  1  0.20801173  0.02095466  0.80322298  1  0  0.102815  0  0.951374  0  0  0.112568  0  1.012692  0  0  0.115644  0  1.010881  0  0  0.106081  0.110335  0  1.014018  0
H  H20  1  0.53093452  0.17734185  0.69691921  1  0  0.321587  0  0.922081  0  0  0.311423  0  0.976192  0  0  0.317643  0  0.971591  0  0  0.300352  0.307025  0  0.979425  0
H  H21  1  0.03092968  0.32265978  0.30307853  1  0  0.321584  0  0.922022  0  0  0.311409  0  0.976154  0  0  0.317632  0  0.971556  0  0  0.300334  0.307013  0  0.97939  0
H  H22  1  0.46906358  0.82266510  0.30307822  1  0  0.321556  0  0.922046  0  0  0.311401  0  0.976161  0  0  0.317618  0  0.971556  0  0  0.30033  0.307011  0  0.979392  0
H  H23  1  0.96906638  0.67733473  0.69692256  1  0  0.321541  0  0.922041  0  0  0.311385  0  0.976161  0  0  0.317599  0  0.971561  0  0  0.300328  0.306995  0  0.9794  0
H  H24  1  0.58323106  0.29502872  0.63779858  1  0  0.316177  0  0.930523  0  0  0.299781  0  0.998876  0  0  0.307078  0  0.992382  0  0  0.299623  0.294587  0  1.003471  0
H  H25  1  0.08323160  0.20497272  0.36219924  1  0  0.316194  0  0.930491  0  0  0.29981  0  0.998822  0  0  0.307107  0  0.99233  0  0  0.299654  0.294617  0  1.00342  0
H  H26  1  0.41675069  0.70497376  0.36219553  1  0  0.316137  0  0.930358  0  0  0.299753  0  0.998712  0  0  0.307048  0  0.992217  0  0  0.299602  0.294565  0  1.00331  0
H  H27  1  0.91675219  0.79503072  0.63780706  1  0  0.316134  0  0.930332  0  0  0.299745  0  0.998693  0  0  0.307043  0  0.992194  0  0  0.2996  0.294561  0  1.003285  0
C  C28  1  0.99823275  0.39156216  0.74221729  1  0  -0.254339  0  3.705047  0  0  -0.228282  0  3.949785  0  0  -0.239761  0  3.970672  0  0  -0.034024  -0.220854  0  3.935874  0
C  C29  1  0.49823160  0.10843869  0.25778267  1  0  -0.254298  0  3.704999  0  0  -0.228231  0  3.949721  0  0  -0.239706  0  3.970606  0  0  -0.033991  -0.220801  0  3.9358  0
C  C30  1  0.00175104  0.60844568  0.25778094  1  0  -0.254409  0  3.704661  0  0  -0.228346  0  3.949456  0  0  -0.239823  0  3.970309  0  0  -0.033959  -0.220926  0  3.935553  0
C  C31  1  0.50175219  0.89155762  0.74222073  1  0  -0.25446  0  3.704932  0  0  -0.228366  0  3.94968  0  0  -0.239847  0  3.970543  0  0  -0.033922  -0.22094  0  3.935771  0
C  C32  1  0.82569716  0.29498230  0.75573652  1  0  0.323281  0  3.838307  0  0  0.311679  0  4.084827  0  0  0.323973  0  4.104342  0  0  0.100947  0.303418  0  4.071485  0
C  C33  1  0.32569381  0.20501828  0.24426309  1  0  0.323225  0  3.838431  0  0  0.311633  0  4.08493  0  0  0.323925  0  4.104448  0  0  0.10092  0.303368  0  4.071593  0
C  C34  1  0.17429685  0.70503178  0.24426238  1  0  0.323496  0  3.837923  0  0  0.311866  0  4.084487  0  0  0.3242  0  4.103943  0  0  0.1011  0.303607  0  4.071149  0
C  C35  1  0.67429407  0.79496912  0.75573937  1  0  0.323422  0  3.838076  0  0  0.311788  0  4.084631  0  0  0.324125  0  4.104083  0  0  0.101089  0.303529  0  4.071295  0
C  C36  1  0.83271933  0.25362393  0.84568239  1  0  -0.191318  0  3.726344  0  0  -0.204254  0  3.971809  0  0  -0.212085  0  3.992549  0  0  -0.101743  -0.199178  0  3.957859  0
C  C37  1  0.33271577  0.24637663  0.15431723  1  0  -0.191354  0  3.726382  0  0  -0.204292  0  3.971842  0  0  -0.212123  0  3.992582  0  0  -0.101768  -0.199216  0  3.957896  0
C  C38  1  0.16725424  0.74638477  0.15430954  1  0  -0.191503  0  3.726605  0  0  -0.204447  0  3.972104  0  0  -0.212305  0  3.992845  0  0  -0.101931  -0.199368  0  3.958157  0
C  C39  1  0.66725168  0.75361436  0.84568988  1  0  -0.191514  0  3.726613  0  0  -0.204474  0  3.972139  0  0  -0.212329  0  3.992874  0  0  -0.101958  -0.199398  0  3.958195  0
C  C40  1  0.99763424  0.30865892  0.91932816  1  0  -0.049984  0  3.811791  0  0  -0.06641  0  4.064224  0  0  -0.063319  0  4.084294  0  0  -0.093118  -0.068129  0  4.050387  0
C  C41  1  0.49763270  0.19134194  0.08067181  1  0  -0.049923  0  3.811753  0  0  -0.066348  0  4.064192  0  0  -0.063254  0  4.084257  0  0  -0.093086  -0.068069  0  4.050359  0
C  C42  1  0.00235364  0.69134625  0.08066837  1  0  -0.049777  0  3.811967  0  0  -0.066204  0  4.064366  0  0  -0.06311  0  4.084436  0  0  -0.092975  -0.067926  0  4.05053  0
C  C43  1  0.50234701  0.80865258  0.91933070  1  0  -0.049897  0  3.81199  0  0  -0.066337  0  4.064418  0  0  -0.063243  0  4.084487  0  0  -0.09304  -0.068057  0  4.050583  0
C  C44  1  0.16103950  0.40637394  0.90589962  1  0  -0.113151  0  3.814253  0  0  -0.128971  0  4.073091  0  0  -0.135742  0  4.096668  0  0  -0.111806  -0.124596  0  4.057077  0
C  C45  1  0.66104273  0.09362635  0.09410036  1  0  -0.113137  0  3.81417  0  0  -0.128976  0  4.073019  0  0  -0.135733  0  4.096603  0  0  -0.111803  -0.124603  0  4.057002  0
C  C46  1  0.83895451  0.59362678  0.09409715  1  0  -0.113234  0  3.81418  0  0  -0.129067  0  4.073032  0  0  -0.13583  0  4.096613  0  0  -0.111849  -0.124676  0  4.056987  0
C  C47  1  0.33894923  0.90637351  0.90590201  1  0  -0.113051  0  3.814001  0  0  -0.128871  0  4.072851  0  0  -0.13564  0  4.096429  0  0  -0.111839  -0.124486  0  4.056805  0
C  C48  1  0.16181078  0.44706771  0.81677207  1  0  -0.045984  0  3.789452  0  0  -0.072431  0  4.041219  0  0  -0.068441  0  4.060331  0  0  -0.090448  -0.074794  0  4.028138  0
C  C49  1  0.66181216  0.05293258  0.18322791  1  0  -0.04601  0  3.789357  0  0  -0.072481  0  4.041126  0  0  -0.068492  0  4.060232  0  0  -0.090468  -0.074825  0  4.028041  0
C  C50  1  0.83818732  0.55293747  0.18322660  1  0  -0.045987  0  3.789377  0  0  -0.072458  0  4.041171  0  0  -0.068469  0  4.060276  0  0  -0.090498  -0.074794  0  4.028053  0
C  C51  1  0.33818798  0.94706550  0.81677356  1  0  -0.045931  0  3.789433  0  0  -0.072424  0  4.04121  0  0  -0.068435  0  4.060321  0  0  -0.090477  -0.07476  0  4.028088  0
S  S52  1  0.03268020  0.43369655  0.62589587  1  0  1.360244  0  5.63062  0  0  1.268908  0  6.145975  0  0  1.316255  0  6.11972  0  0  0.517114  1.23625  0  6.163329  0
S  S53  1  0.53267612  0.06630420  0.37410391  1  0  1.360306  0  5.630445  0  0  1.268963  0  6.145796  0  0  1.316312  0  6.119548  0  0  0.517108  1.236297  0  6.163164  0
S  S54  1  0.96735059  0.56633091  0.37410872  1  0  1.360744  0  5.629782  0  0  1.269462  0  6.145069  0  0  1.316808  0  6.118821  0  0  0.517263  1.236799  0  6.162425  0
S  S55  1  0.46735875  0.93367605  0.62589210  1  0  1.360666  0  5.629886  0  0  1.269325  0  6.145218  0  0  1.316669  0  6.118971  0  0  0.517185  1.236656  0  6.162585  0
N  N56  1  0.66803419  0.23960806  0.68110942  1  0  -0.717009  0  3.142066  0  0  -0.686871  0  3.376863  0  0  -0.704692  0  3.373763  0  0  -0.654189  -0.674323  0  3.378747  0
N  N57  1  0.16803088  0.26039308  0.31888853  1  0  -0.716977  0  3.142108  0  0  -0.686841  0  3.376893  0  0  -0.704669  0  3.373796  0  0  -0.654179  -0.674293  0  3.378783  0
N  N58  1  0.33195165  0.76039887  0.31888516  1  0  -0.716997  0  3.142086  0  0  -0.686849  0  3.376895  0  0  -0.704676  0  3.373782  0  0  -0.654138  -0.674292  0  3.378783  0
N  N59  1  0.83195292  0.73960234  0.68111550  1  0  -0.716915  0  3.142017  0  0  -0.686775  0  3.376838  0  0  -0.704605  0  3.373723  0  0  -0.654109  -0.674223  0  3.378731  0
O  O60  1  0.19795985  0.54246148  0.63872953  1  0  -0.713494  0  2.001172  0  0  -0.663671  0  2.256472  0  0  -0.682735  0  2.240199  0  0  -0.39832  -0.650307  0  2.267325  0
O  O61  1  0.69795162  0.95753756  0.36127349  1  0  -0.713486  0  2.001134  0  0  -0.663672  0  2.256446  0  0  -0.682751  0  2.240179  0  0  -0.3983  -0.650299  0  2.267295  0
O  O62  1  0.80204438  0.45754909  0.36127824  1  0  -0.713782  0  2.000407  0  0  -0.663959  0  2.255648  0  0  -0.683047  0  2.239399  0  0  -0.398442  -0.650574  0  2.266477  0
O  O63  1  0.30204852  0.04245782  0.63872271  1  0  -0.713733  0  2.000255  0  0  -0.663896  0  2.255502  0  0  -0.682977  0  2.239251  0  0  -0.398461  -0.65052  0  2.266338  0
O  O64  1  0.17246213  0.33234918  0.56770558  1  0  -0.760612  0  1.931025  0  0  -0.713336  0  2.193528  0  0  -0.731534  0  2.175312  0  0  -0.441692  -0.700534  0  2.20577  0
O  O65  1  0.67245485  0.16765018  0.43229432  1  0  -0.760608  0  1.93088  0  0  -0.713355  0  2.193442  0  0  -0.731524  0  2.175163  0  0  -0.441696  -0.700553  0  2.205689  0
O  O66  1  0.82758092  0.66766848  0.43229726  1  0  -0.760646  0  1.930992  0  0  -0.713427  0  2.193539  0  0  -0.731622  0  2.175318  0  0  -0.44171  -0.700623  0  2.205798  0
O  O67  1  0.32759638  0.83233897  0.56770193  1  0  -0.760655  0  1.931083  0  0  -0.713395  0  2.19359  0  0  -0.731599  0  2.175396  0  0  -0.44169  -0.700587  0  2.205853  0
O  O68  1  0.75681809  0.45173996  0.58820106  1  0  -0.753978  0  1.983342  0  0  -0.712308  0  2.253751  0  0  -0.730781  0  2.236335  0  0  -0.412012  -0.699374  0  2.265473  0
O  O69  1  0.25681038  0.04826441  0.41179527  1  0  -0.754022  0  1.983284  0  0  -0.712373  0  2.253751  0  0  -0.730846  0  2.236331  0  0  -0.412028  -0.699435  0  2.265474  0
O  O70  1  0.24321269  0.54827229  0.41178911  1  0  -0.754114  0  1.983328  0  0  -0.712499  0  2.253792  0  0  -0.730958  0  2.236351  0  0  -0.4121  -0.699553  0  2.265508  0
O  O71  1  0.74322450  0.95173461  0.58821696  1  0  -0.754095  0  1.983497  0  0  -0.7124  0  2.253861  0  0  -0.730871  0  2.236448  0  0  -0.412052  -0.699451  0  2.265575  0
