# generated using pymatgen
data_Zn4H30C36Cl2O13
_symmetry_space_group_name_H-M   'P 1'
_cell_length_a   17.82335038
_cell_length_b   18.58134669
_cell_length_c   23.46677027
_cell_angle_alpha   66.54325789
_cell_angle_beta   69.41875388
_cell_angle_gamma   90.21911115
_symmetry_Int_Tables_number   1
_chemical_formula_structural   Zn4H30C36Cl2O13
_chemical_formula_sum   'Zn8 H60 C72 Cl4 O26'
_cell_volume   6580.30205115
_cell_formula_units_Z   2
loop_
 _symmetry_equiv_pos_site_id
 _symmetry_equiv_pos_as_xyz
  1  'x, y, z'
loop_
 _atom_site_type_symbol
 _atom_site_label
 _atom_site_symmetry_multiplicity
 _atom_site_fract_x
 _atom_site_fract_y
 _atom_site_fract_z
 _atom_site_occupancy
 _atom_site_pbe_bader_charge
 _atom_site_pbe_bader_spin_density
 _atom_site_pbe_cm5_charge
 _atom_site_pbe_ddec_charge
 _atom_site_pbe_ddec_spin_density
 _atom_site_pbe_ddec_sum_bond_order
 _atom_site_pbe_magmom
Zn  Zn0  1  0.11849855  0.53090465  0.94345482  1  1.312161  0  0.669428  0.959318  0  2.396469  0
Zn  Zn1  1  0.96979145  0.55740055  0.05288869  1  1.314695  0  0.667463  0.957363  0  2.384113  0
Zn  Zn2  1  0.97816239  0.38812130  0.04872310  1  1.311749  0  0.669178  0.956654  0  2.409202  0
Zn  Zn3  1  0.94133708  0.53142717  0.93296241  1  1.307931  0  0.669185  0.968364  0  2.327736  0
Zn  Zn4  1  0.38544384  0.97966612  0.04808395  1  1.314208  0  0.670089  0.961898  0  2.386362  0
Zn  Zn5  1  0.52981288  0.11602059  0.93832233  1  1.312174  0  0.66948  0.956072  0  2.412435  0
Zn  Zn6  1  0.52519526  0.94634577  0.93574821  1  1.313008  0  0.668752  0.959173  0  2.382346  0
Zn  Zn7  1  0.56550970  0.96980463  0.05174463  1  1.316555  0  0.668815  0.967168  0  2.331985  0
H  H8  1  0.49175288  0.87546609  0.25828272  1  0.095161  0  0.113467  0.121181  0  0.986215  0
H  H9  1  0.43416389  0.81285638  0.38390980  1  0.078613  0  0.110175  0.115535  0  0.983976  0
H  H10  1  0.19322011  0.80037032  0.38203110  1  0.110381  0  0.10988  0.127448  0  0.986978  0
H  H11  1  0.32165653  0.70107339  0.60628298  1  0.085472  0  0.109385  0.126843  0  0.98804  0
H  H12  1  0.02274872  0.63166235  0.72763451  1  0.102446  0  0.112986  0.121402  0  0.989215  0
H  H13  1  0.08172432  0.69463130  0.60204849  1  0.070571  0  0.109405  0.114148  0  0.985647  0
H  H14  1  0.62146415  0.02591483  0.73117563  1  0.106389  0  0.113145  0.120564  0  0.988691  0
H  H15  1  0.68904153  0.08536373  0.60580252  1  0.062359  0  0.110109  0.115155  0  0.985204  0
H  H16  1  0.70796360  0.31799077  0.60377542  1  0.103854  0  0.10982  0.127281  0  0.987215  0
H  H17  1  0.80117005  0.18919329  0.38959276  1  0.080051  0  0.109727  0.126989  0  0.987236  0
H  H18  1  0.87593389  0.48099082  0.25378437  1  0.089601  0  0.113111  0.120889  0  0.988637  0
H  H19  1  0.81683031  0.42611880  0.37923257  1  0.062461  0  0.109803  0.114423  0  0.985727  0
H  H20  1  0.20096692  0.30299754  0.90897690  1  0.032474  0  0.091469  0.086683  0  0.978439  0
H  H21  1  0.12967444  0.23010024  0.98576574  1  0.033857  0  0.09271  0.092197  0  0.985353  0
H  H22  1  0.22024185  0.13982928  0.98159939  1  0.072295  0  0.093018  0.092618  0  0.985581  0
H  H23  1  0.29189616  0.21398577  0.90583901  1  0.001665  0  0.091642  0.086965  0  0.977022  0
H  H24  1  0.21735001  0.12572334  0.09327631  1  0.045858  0  0.093343  0.094045  0  0.985326  0
H  H25  1  0.28907021  0.18700495  0.09768618  1  0.013119  0  0.090275  0.084874  0  0.97864  0
H  H26  1  0.12926544  0.21859533  0.09673817  1  0.056834  0  0.093425  0.094922  0  0.986567  0
H  H27  1  0.20307568  0.28074244  0.09825154  1  -0.002186  0  0.090263  0.084762  0  0.979001  0
H  H28  1  0.30576803  0.39426155  0.91122604  1  0.004747  0  0.090308  0.089251  0  0.984567  0
H  H29  1  0.30546227  0.38633011  0.98845322  1  0.015065  0  0.089365  0.086166  0  0.982729  0
H  H30  1  0.39375124  0.29372901  0.98884954  1  0.017222  0  0.089137  0.086735  0  0.984023  0
H  H31  1  0.39606287  0.30354536  0.91064671  1  0.032024  0  0.090889  0.089935  0  0.983855  0
H  H32  1  0.89068600  0.80068826  0.90586916  1  0.000644  0  0.091069  0.085763  0  0.979016  0
H  H33  1  0.88540401  0.78751666  0.98622525  1  0.030274  0  0.092235  0.091172  0  0.985174  0
H  H34  1  0.79580615  0.87904594  0.98668274  1  0.033575  0  0.092584  0.091513  0  0.984789  0
H  H35  1  0.80053540  0.89062883  0.90683082  1  0.013204  0  0.09097  0.085655  0  0.978451  0
H  H36  1  0.69228299  0.77364118  0.09215412  1  0.029309  0  0.092497  0.093059  0  0.986072  0
H  H37  1  0.62102368  0.71105458  0.08853316  1  0.019693  0  0.089929  0.08414  0  0.979889  0
H  H38  1  0.78046233  0.68063674  0.09131262  1  0.027133  0  0.092184  0.093558  0  0.98816  0
H  H39  1  0.70962742  0.61987623  0.08558784  1  0.003421  0  0.090081  0.084602  0  0.97913  0
H  H40  1  0.79054869  0.71195644  0.89700198  1  0.038999  0  0.090239  0.088935  0  0.984318  0
H  H41  1  0.71745465  0.63729195  0.97010279  1  0.008475  0  0.089089  0.086108  0  0.982334  0
H  H42  1  0.62648181  0.72702580  0.97349065  1  0.027719  0  0.089007  0.086159  0  0.982461  0
H  H43  1  0.69890054  0.80120827  0.89964902  1  -0.004317  0  0.090029  0.0885  0  0.984655  0
H  H44  1  0.16135475  0.79493230  0.93791557  1  0.032637  0  0.090778  0.084762  0  0.979403  0
H  H45  1  0.24486731  0.75785844  0.89738320  1  0.054186  0  0.093439  0.093292  0  0.985395  0
H  H46  1  0.33368695  0.85358898  0.89424538  1  0.055152  0  0.093327  0.093116  0  0.984407  0
H  H47  1  0.24959777  0.88945712  0.93554905  1  0.025273  0  0.091001  0.085029  0  0.978124  0
H  H48  1  0.39216961  0.74397754  0.96144455  1  0.052315  0  0.092929  0.093045  0  0.985703  0
H  H49  1  0.35064965  0.70280688  0.05029510  1  0.016299  0  0.089954  0.083664  0  0.980346  0
H  H50  1  0.30245196  0.64793726  0.96550339  1  0.025222  0  0.093535  0.094435  0  0.985112  0
H  H51  1  0.26083588  0.60819393  0.05430387  1  0.016861  0  0.089869  0.083839  0  0.978954  0
H  H52  1  0.09994225  0.73671777  0.06601377  1  0.03714  0  0.089701  0.088218  0  0.984606  0
H  H53  1  0.14029487  0.66023620  0.11342259  1  0.026355  0  0.089457  0.08672  0  0.981169  0
H  H54  1  0.23013095  0.75491309  0.11040605  1  0.05556  0  0.089064  0.086578  0  0.985963  0
H  H55  1  0.18941359  0.83128949  0.06337535  1  0.03371  0  0.089931  0.08886  0  0.983413  0
H  H56  1  0.89938169  0.26914002  0.92915207  1  0.015696  0  0.091146  0.086028  0  0.980006  0
H  H57  1  0.85374038  0.34417262  0.88492333  1  0.044102  0  0.093009  0.091662  0  0.982453  0
H  H58  1  0.76973410  0.24587194  0.88650371  1  0.02339  0  0.093172  0.093449  0  0.987542  0
H  H59  1  0.81303281  0.17120889  0.93364617  1  0.006943  0  0.090806  0.085716  0  0.978067  0
H  H60  1  0.65004618  0.29664789  0.94544573  1  0.045892  0  0.093004  0.094065  0  0.984452  0
H  H61  1  0.60510343  0.25505386  0.03419100  1  0.009194  0  0.089754  0.084091  0  0.980521  0
H  H62  1  0.73493050  0.39205400  0.94678672  1  0.042063  0  0.092485  0.09318  0  0.986477  0
H  H63  1  0.69153275  0.34780254  0.03563350  1  0.033391  0  0.08963  0.084044  0  0.980172  0
H  H64  1  0.83838265  0.20471187  0.05731609  1  0.026361  0  0.090149  0.090253  0  0.986111  0
H  H65  1  0.75556046  0.23811525  0.10137403  1  0.021614  0  0.088996  0.086115  0  0.983124  0
H  H66  1  0.66515429  0.14558040  0.10261891  1  0.037219  0  0.089193  0.086283  0  0.981778  0
H  H67  1  0.74825405  0.10941449  0.06177182  1  0.018416  0  0.089847  0.088246  0  0.984656  0
C  C68  1  0.13911808  0.63556445  0.00466608  1  1.542705  0  0.234942  0.603725  0  4.09618  0
C  C69  1  0.91064947  0.40748481  0.17536988  1  1.546955  0  0.22344  0.612126  0  4.166187  0
C  C70  1  0.14687135  0.36519506  0.99911997  1  1.53034  0  0.234054  0.601463  0  4.098818  0
C  C71  1  0.85971134  0.36635917  0.99090448  1  1.554749  0  0.237212  0.606955  0  4.089391  0
C  C72  1  0.09489585  0.59114398  0.81346320  1  1.620818  0  0.225089  0.615668  0  4.164745  0
C  C73  1  0.86131953  0.64266254  0.98907308  1  1.527948  0  0.235766  0.605402  0  4.090307  0
C  C74  1  0.36360112  0.14475270  0.99516217  1  1.523448  0  0.235996  0.604884  0  4.090862  0
C  C75  1  0.58287372  0.09493947  0.81317403  1  1.599156  0  0.223508  0.611938  0  4.165481  0
C  C76  1  0.35597532  0.86411778  0.99815836  1  1.539924  0  0.235536  0.605711  0  4.088124  0
C  C77  1  0.64196598  0.86227045  0.99267712  1  1.531517  0  0.234052  0.602441  0  4.093328  0
C  C78  1  0.41717797  0.91545246  0.17385023  1  1.576194  0  0.224389  0.614938  0  4.16261  0
C  C79  1  0.64715927  0.13752989  0.99274340  1  1.562664  0  0.23449  0.602938  0  4.086856  0
C  C80  1  0.37659778  0.87498867  0.24902570  1  0.066152  0  -0.018857  -0.099784  0  3.919993  0
C  C81  1  0.42626488  0.85899115  0.28642350  1  -0.132291  0  -0.07713  -0.071037  0  3.988101  0
C  C82  1  0.39441523  0.82417552  0.35615661  1  0.07005  0  -0.0837  -0.137648  0  3.953751  0
C  C83  1  0.30938333  0.80310963  0.39173969  1  0.152059  0  0.006639  0.164411  0  4.117304  0
C  C84  1  0.25884336  0.81730290  0.35523361  1  -0.017555  0  -0.087707  -0.199273  0  3.917071  0
C  C85  1  0.29156407  0.85253327  0.28508444  1  0.063244  0  0.02538  0.149348  0  4.017911  0
C  C86  1  0.27416861  0.76785809  0.46287717  1  -0.208889  0  -0.036853  -0.095842  0  4.097021  0
C  C87  1  0.24202715  0.73736976  0.52422745  1  -0.188171  0  -0.03828  -0.099425  0  4.097374  0
C  C88  1  0.20614856  0.70191447  0.59534331  1  0.11605  0  0.006564  0.164581  0  4.118452  0
C  C89  1  0.25589852  0.68576177  0.63256355  1  0.068491  0  -0.087472  -0.19814  0  3.917423  0
C  C90  1  0.22244523  0.65047525  0.70275397  1  0.039408  0  0.024715  0.149443  0  4.010284  0
C  C91  1  0.13713114  0.62994153  0.73827790  1  -0.027482  0  -0.018845  -0.100881  0  3.915163  0
C  C92  1  0.08834860  0.64714082  0.70001234  1  -0.019584  0  -0.077927  -0.071952  0  3.988391  0
C  C93  1  0.12096367  0.68215460  0.63029469  1  -0.016377  0  -0.083402  -0.135925  0  3.954381  0
C  C94  1  0.62486986  0.13697575  0.73830814  1  -0.029268  0  -0.01934  -0.10053  0  3.921739  0
C  C95  1  0.64040929  0.08999841  0.70217993  1  0.026947  0  -0.076899  -0.069673  0  3.990597  0
C  C96  1  0.67795933  0.12277489  0.63275773  1  -0.017988  0  -0.083744  -0.136603  0  3.957495  0
C  C97  1  0.70230643  0.20597384  0.59622520  1  0.053596  0  0.007657  0.166053  0  4.121902  0
C  C98  1  0.68852111  0.25385137  0.63139792  1  -0.002388  0  -0.087678  -0.199244  0  3.918476  0
C  C99  1  0.65033405  0.22019268  0.70137071  1  0.089094  0  0.026088  0.149911  0  4.017552  0
C  C100  1  0.73975513  0.24100913  0.52527794  1  -0.098952  0  -0.037572  -0.097734  0  4.101779  0
C  C101  1  0.77091297  0.27054847  0.46394109  1  -0.20133  0  -0.037821  -0.098194  0  4.102516  0
C  C102  1  0.80544288  0.30369249  0.39293345  1  0.084851  0  0.006737  0.164307  0  4.123988  0
C  C103  1  0.81801261  0.25332169  0.36003021  1  0.028918  0  -0.087127  -0.198155  0  3.91756  0
C  C104  1  0.85126785  0.28444711  0.28998751  1  0.031104  0  0.025488  0.150008  0  4.017226  0
C  C105  1  0.87311629  0.36761976  0.25062000  1  0.082272  0  -0.018648  -0.099717  0  3.919832  0
C  C106  1  0.85945571  0.41703510  0.28457536  1  0.047592  0  -0.076904  -0.070315  0  3.987387  0
C  C107  1  0.82672996  0.38676267  0.35407036  1  -0.057745  0  -0.083263  -0.135514  0  3.957869  0
C  C108  1  0.19299573  0.26082129  0.96025309  1  -0.035108  0  -0.155902  -0.171161  0  3.853589  0
C  C109  1  0.25297619  0.20098925  0.95813914  1  -0.04201  0  -0.156795  -0.170444  0  3.853718  0
C  C110  1  0.30712650  0.20575605  0.99599004  1  0.056099  0  -0.015688  0.022142  0  3.811907  0
C  C111  1  0.25129874  0.18640959  0.06947508  1  -0.027264  0  -0.156865  -0.171436  0  3.857621  0
C  C112  1  0.19305660  0.24795321  0.07078906  1  -0.026171  0  -0.157302  -0.171642  0  3.85868  0
C  C113  1  0.20740443  0.30779876  0.99819247  1  0.068141  0  -0.016143  0.021938  0  3.813784  0
C  C114  1  0.29570802  0.35130466  0.96264840  1  0.006258  0  -0.163838  -0.174822  0  3.887374  0
C  C115  1  0.35482835  0.29064499  0.96224232  1  -0.000537  0  -0.164854  -0.17835  0  3.888939  0
C  C116  1  0.84847525  0.78599352  0.95769778  1  -0.017686  0  -0.155754  -0.170184  0  3.849925  0
C  C117  1  0.78863861  0.84636209  0.95837355  1  -0.011351  0  -0.155876  -0.169399  0  3.851867  0
C  C118  1  0.69997254  0.80226125  0.99116087  1  0.049298  0  -0.016793  0.019516  0  3.809451  0
C  C119  1  0.68456083  0.74147488  0.06365887  1  -0.016062  0  -0.158337  -0.171404  0  3.862571  0
C  C120  1  0.74360522  0.68061933  0.06241667  1  -0.010317  0  -0.15831  -0.173015  0  3.859818  0
C  C121  1  0.80091938  0.70060125  0.98916901  1  0.067846  0  -0.017053  0.021761  0  3.806664  0
C  C122  1  0.74990093  0.69820073  0.94895561  1  -0.013017  0  -0.164527  -0.177104  0  3.888057  0
C  C123  1  0.68961649  0.75775892  0.95074087  1  0.019747  0  -0.164557  -0.175063  0  3.883975  0
C  C124  1  0.21766860  0.77247734  0.94046871  1  -0.054294  0  -0.155594  -0.169386  0  3.852691  0
C  C125  1  0.27660341  0.83554359  0.93860056  1  -0.045871  0  -0.155447  -0.167404  0  3.85448  0
C  C126  1  0.29599880  0.80151052  0.00272994  1  0.054321  0  -0.017038  0.018983  0  3.81225  0
C  C127  1  0.33498987  0.72662757  0.00560689  1  -0.037937  0  -0.157583  -0.169987  0  3.857476  0
C  C128  1  0.27546654  0.66343616  0.00808147  1  -0.011958  0  -0.157818  -0.170862  0  3.856782  0
C  C129  1  0.19605426  0.69538212  0.00620053  1  0.053873  0  -0.016616  0.021841  0  3.811626  0
C  C130  1  0.15703106  0.71511902  0.06672040  1  -0.024781  0  -0.164584  -0.176425  0  3.88608  0
C  C131  1  0.21644141  0.77788611  0.06480480  1  -0.057597  0  -0.164586  -0.177796  0  3.886222  0
C  C132  1  0.84076857  0.28834661  0.93024087  1  -0.033776  0  -0.155119  -0.169697  0  3.851458  0
C  C133  1  0.78377381  0.22366193  0.93190000  1  0.002681  0  -0.155429  -0.170035  0  3.850285  0
C  C134  1  0.70333296  0.19791229  0.99447302  1  0.042356  0  -0.016914  0.022438  0  3.810025  0
C  C135  1  0.66359260  0.27263170  0.99105236  1  -0.012071  0  -0.157484  -0.171752  0  3.852478  0
C  C136  1  0.72077742  0.33537154  0.99148333  1  -0.054752  0  -0.158972  -0.17259  0  3.86419  0
C  C137  1  0.80063003  0.30471031  0.99314414  1  0.044045  0  -0.015862  0.022028  0  3.805052  0
C  C138  1  0.78136015  0.22630939  0.05659126  1  0.002095  0  -0.165157  -0.177895  0  3.885864  0
C  C139  1  0.72224107  0.16379187  0.05818201  1  -0.022535  0  -0.164877  -0.176581  0  3.893254  0
Cl  Cl140  1  0.22219345  0.86327595  0.24720020  1  -0.183782  0  -0.012352  -0.075315  0  1.476757  0
Cl  Cl141  1  0.29204293  0.63597783  0.74066537  1  -0.178576  0  -0.013518  -0.075667  0  1.479742  0
Cl  Cl142  1  0.63966359  0.28597011  0.73794102  1  -0.182823  0  -0.012537  -0.075004  0  1.476697  0
Cl  Cl143  1  0.86080802  0.21558159  0.25653953  1  -0.181198  0  -0.013196  -0.07572  0  1.472551  0
O  O144  1  0.00049599  0.50326085  0.99345192  1  -1.229814  0  -0.573895  -1.027733  0  2.543824  0
O  O145  1  0.16859822  0.61253467  0.95791683  1  -1.169924  0  -0.31704  -0.552026  0  2.349593  0
O  O146  1  0.91038350  0.48231133  0.14796831  1  -1.168083  0  -0.31671  -0.546918  0  2.323166  0
O  O147  1  0.07177278  0.33400787  0.03116105  1  -1.177986  0  -0.316444  -0.549622  0  2.348291  0
O  O148  1  0.06660172  0.61401214  0.04866618  1  -1.187787  0  -0.313912  -0.548599  0  2.350577  0
O  O149  1  0.17478815  0.43950830  0.96738754  1  -1.173761  0  -0.312234  -0.544444  0  2.355074  0
O  O150  1  0.94081455  0.36502721  0.14459458  1  -1.174086  0  -0.314476  -0.544681  0  2.405425  0
O  O151  1  0.89353190  0.34093626  0.03323104  1  -1.187343  0  -0.315353  -0.550183  0  2.38354  0
O  O152  1  0.01729313  0.58413919  0.83729917  1  -1.185805  0  -0.316471  -0.549847  0  2.313594  0
O  O153  1  0.87202177  0.43793684  0.94655910  1  -1.178512  0  -0.317418  -0.553994  0  2.316747  0
O  O154  1  0.13889175  0.56764295  0.84765860  1  -1.182929  0  -0.317731  -0.549729  0  2.422686  0
O  O155  1  0.89974825  0.63467858  0.02752120  1  -1.181325  0  -0.319592  -0.556406  0  2.353323  0
O  O156  1  0.86952334  0.60731790  0.95103079  1  -1.169782  0  -0.313224  -0.548215  0  2.337251  0
O  O157  1  0.50248003  0.00115111  0.99440461  1  -1.23475  0  -0.575154  -1.028405  0  2.548699  0
O  O158  1  0.33032769  0.07166182  0.02374229  1  -1.171696  0  -0.318282  -0.553207  0  2.332907  0
O  O159  1  0.55107436  0.13614085  0.84482698  1  -1.168792  0  -0.318375  -0.550438  0  2.403265  0
O  O160  1  0.42549556  0.88460738  0.94975193  1  -1.188823  0  -0.318756  -0.556747  0  2.342194  0
O  O161  1  0.43981114  0.17067295  0.96603853  1  -1.169274  0  -0.312576  -0.543272  0  2.358874  0
O  O162  1  0.33246862  0.89167367  0.04224434  1  -1.165546  0  -0.312156  -0.545078  0  2.35302  0
O  O163  1  0.58132275  0.01969055  0.83962479  1  -1.176498  0  -0.31555  -0.544175  0  2.315346  0
O  O164  1  0.59974309  0.87205284  0.95701569  1  -1.161988  0  -0.312555  -0.545096  0  2.364858  0
O  O165  1  0.49289587  0.91279294  0.14824341  1  -1.171487  0  -0.315908  -0.546641  0  2.299712  0
O  O166  1  0.64025546  0.89827101  0.02949430  1  -1.178609  0  -0.318153  -0.555703  0  2.325913  0
O  O167  1  0.37392874  0.95050122  0.14147760  1  -1.172295  0  -0.318623  -0.551907  0  2.402561  0
O  O168  1  0.62396002  0.16301072  0.94346240  1  -1.183729  0  -0.319273  -0.554439  0  2.351232  0
O  O169  1  0.62771533  0.06694579  0.03947173  1  -1.188821  0  -0.312771  -0.548543  0  2.336161  0
