# generated using pymatgen
data_MnH12C6O5
_symmetry_space_group_name_H-M   'P 1'
_cell_length_a   6.46450558
_cell_length_b   11.72152111
_cell_length_c   13.81685192
_cell_angle_alpha   112.34311448
_cell_angle_beta   90.02614162
_cell_angle_gamma   105.99117559
_symmetry_Int_Tables_number   1
_chemical_formula_structural   MnH12C6O5
_chemical_formula_sum   'Mn4 H48 C24 O20'
_cell_volume   924.34653090
_cell_formula_units_Z   4
loop_
 _symmetry_equiv_pos_site_id
 _symmetry_equiv_pos_as_xyz
  1  'x, y, z'
loop_
 _atom_site_type_symbol
 _atom_site_label
 _atom_site_symmetry_multiplicity
 _atom_site_fract_x
 _atom_site_fract_y
 _atom_site_fract_z
 _atom_site_occupancy
 _atom_site_hle17_ddec_charge
 _atom_site_hle17_ddec_spin_density
 _atom_site_hle17_ddec_sum_bond_order
 _atom_site_hle17_magmom
 _atom_site_hse06_10hf_ddec_charge
 _atom_site_hse06_10hf_ddec_spin_density
 _atom_site_hse06_10hf_ddec_sum_bond_order
 _atom_site_hse06_10hf_magmom
 _atom_site_hse06_ddec_charge
 _atom_site_hse06_ddec_spin_density
 _atom_site_hse06_ddec_sum_bond_order
 _atom_site_hse06_magmom
 _atom_site_pbe_cm5_charge
 _atom_site_pbe_ddec_charge
 _atom_site_pbe_ddec_spin_density
 _atom_site_pbe_ddec_sum_bond_order
 _atom_site_pbe_magmom
Mn  Mn0  1  0.74464222  0.52714661  0.76380543  1  1.24369  4.78907  1.716279  4.682  1.091811  4.720205  2.211125  4.551  1.152935  4.757213  2.1355  4.608  0.593754  1.043444  4.684128  2.26661  4.498
Mn  Mn1  1  0.21750786  0.47301370  0.73637140  1  1.242825  4.7983  1.71777  4.682  1.090953  4.729503  2.212479  4.551  1.151927  4.766665  2.1371  4.608  0.593114  1.042846  4.693246  2.26756  4.497
Mn  Mn2  1  0.25535062  0.47284720  0.23619221  1  1.243733  4.789043  1.716241  4.682  1.091889  4.720178  2.211083  4.551  1.153006  4.757186  2.135464  4.608  0.593791  1.043527  4.684101  2.266566  4.498
Mn  Mn3  1  0.78248970  0.52699262  0.26363398  1  1.24279  4.798296  1.717849  4.682  1.090925  4.729494  2.21261  4.551  1.151915  4.766656  2.137197  4.608  0.593087  1.042814  4.693231  2.267688  4.497
H  H4  1  0.48785840  0.30052657  0.62338362  1  0.426324  -0.000109  0.887227  0.001  0.389248  0.000799  0.959416  0.002  0.402808  0.000449  0.940406  0.002  0.29283  0.379609  0.001124  0.9729  0.002
H  H5  1  0.18761312  0.69971892  0.87671146  1  0.426422  -0.000116  0.886992  0.001  0.389725  0.000794  0.958634  0.002  0.403291  0.000446  0.939611  0.002  0.293003  0.380085  0.001116  0.972122  0.002
H  H6  1  0.51214035  0.69947596  0.37661472  1  0.426309  -0.000108  0.887236  0.001  0.389192  0.000798  0.959489  0.002  0.402752  0.000449  0.94048  0.002  0.292798  0.379553  0.001124  0.972972  0.002
H  H7  1  0.81237806  0.30027776  0.12328929  1  0.426391  -0.000116  0.887026  0.001  0.389701  0.000794  0.958661  0.002  0.403267  0.000446  0.939638  0.002  0.292998  0.38006  0.001116  0.972149  0.002
H  H8  1  0.46001761  0.40133904  0.56870827  1  0.443359  -0.000362  0.7938  0.001  0.426831  0.001142  0.843307  0.003  0.436105  0.000465  0.833037  0.002  0.338208  0.419715  0.001848  0.851379  0.003
H  H9  1  0.05914482  0.59895557  0.93149977  1  0.444349  -0.000363  0.79281  0.001  0.427952  0.001139  0.84197  0.003  0.437231  0.000464  0.831683  0.002  0.338751  0.420843  0.001838  0.850037  0.003
H  H10  1  0.53998103  0.59866637  0.43129174  1  0.443363  -0.000363  0.793748  0.001  0.426833  0.001143  0.843264  0.003  0.436106  0.000465  0.832994  0.002  0.3382  0.419717  0.001848  0.851337  0.003
H  H11  1  0.94085496  0.40104593  0.06850330  1  0.444378  -0.000364  0.792751  0.001  0.427975  0.001139  0.841924  0.003  0.437253  0.000464  0.83164  0.002  0.338747  0.420866  0.001838  0.849988  0.003
H  H12  1  0.27479495  0.29828599  0.98042863  1  0.08887  -7.8e-05  0.93968  0.0  0.102363  0.000387  1.003971  0.0  0.104359  0.000143  1.00284  0.0  0.095595  0.100886  0.000655  1.005003  0.0
H  H13  1  0.97635260  0.70191939  0.51979191  1  0.089159  -8.2e-05  0.939981  0.0  0.102488  0.000389  1.00451  0.0  0.104465  0.000145  1.003402  0.0  0.095511  0.101029  0.000658  1.005539  0.0
H  H14  1  0.72520408  0.70170782  0.01956829  1  0.088805  -9.1e-05  0.939667  0.0  0.10232  0.000387  1.003975  0.0  0.104314  0.000143  1.002853  0.0  0.095596  0.100843  0.000655  1.005006  0.0
H  H15  1  0.02364776  0.29808017  0.48021124  1  0.089218  -8.1e-05  0.939896  0.0  0.102543  0.000389  1.00441  0.0  0.104525  0.000145  1.003303  0.0  0.095548  0.101088  0.000657  1.005438  0.0
H  H16  1  0.55775341  0.31866442  0.98680661  1  0.088742  -0.000259  0.949184  0.0  0.102725  6e-06  1.010347  0.0  0.104782  -0.000202  1.009536  0.0  0.094545  0.101169  0.000243  1.011225  0.001
H  H17  1  0.23860268  0.68108878  0.51309853  1  0.089152  -0.00027  0.948561  0.0  0.103102  7e-06  1.00976  0.0  0.105151  -0.0002  1.008929  0.0  0.094668  0.101576  0.000244  1.010629  0.001
H  H18  1  0.44224620  0.68132745  0.01319039  1  0.088695  -0.000274  0.949105  0.0  0.102689  6e-06  1.010309  0.0  0.104752  -0.000202  1.009496  0.0  0.094552  0.101135  0.000244  1.011185  0.001
H  H19  1  0.76140019  0.31891271  0.48690598  1  0.08916  -0.000266  0.948524  0.0  0.103097  7e-06  1.009731  0.0  0.105149  -0.0002  1.0089  0.0  0.094671  0.101574  0.000244  1.010601  0.001
H  H20  1  0.98738077  0.18120705  0.72555185  1  0.107605  -0.000365  0.938822  0.0  0.122376  -0.000214  0.997681  0.0  0.125045  -0.000302  0.996477  0.0  0.104417  0.120388  -0.000108  0.998675  0.0
H  H21  1  0.80620496  0.81892563  0.77448601  1  0.107743  -0.000361  0.938337  0.0  0.122829  -0.000201  0.997202  0.0  0.125565  -0.000293  0.995889  0.0  0.104547  0.12079  -9.1e-05  0.998261  0.0
H  H22  1  0.01262842  0.81879163  0.27444305  1  0.107651  -0.000365  0.938851  0.0  0.122405  -0.000214  0.997717  0.0  0.125074  -0.000302  0.996513  0.0  0.104401  0.120416  -0.000107  0.998713  0.0
H  H23  1  0.19379194  0.18107010  0.22551226  1  0.107752  -0.000369  0.938397  0.0  0.122862  -0.000201  0.997247  0.0  0.125601  -0.000293  0.995935  0.0  0.104568  0.120824  -9.1e-05  0.998307  0.0
H  H24  1  0.03861652  0.16909360  0.59892530  1  0.098141  0.000223  0.928072  0.0  0.116119  0.000791  0.985984  0.0  0.117773  0.000527  0.985731  0.0  0.104754  0.11485  0.001071  0.986375  0.001
H  H25  1  0.86958960  0.83109132  0.90109530  1  0.097679  0.00022  0.928517  0.0  0.115702  0.000786  0.986624  0.0  0.117326  0.000523  0.986391  0.0  0.104789  0.114446  0.001063  0.986974  0.001
H  H26  1  0.96137518  0.83090413  0.40106856  1  0.098183  0.000225  0.928042  0.0  0.116124  0.000792  0.985983  0.0  0.117775  0.000527  0.985731  0.0  0.104767  0.114854  0.001071  0.986375  0.001
H  H27  1  0.13041067  0.16891116  0.09890664  1  0.09759  0.000219  0.928493  0.0  0.115638  0.000787  0.986594  0.0  0.11726  0.000523  0.986367  0.0  0.104781  0.114383  0.001064  0.986944  0.001
H  H28  1  0.49897197  0.14010878  0.80363528  1  0.097458  -6.9e-05  0.958259  0.0  0.119762  -4.6e-05  1.017342  0.0  0.120842  -6e-05  1.017947  0.0  0.088156  0.118917  -2.1e-05  1.017013  0.0
H  H29  1  0.35956714  0.85962357  0.69622917  1  0.096914  -6.9e-05  0.957963  0.0  0.119466  -4.1e-05  1.01696  0.0  0.120549  -5.6e-05  1.01757  0.0  0.087924  0.118628  -2.1e-05  1.016604  0.0
H  H30  1  0.50102146  0.85988312  0.19635956  1  0.097464  -6.8e-05  0.958218  0.0  0.11979  -4.6e-05  1.017279  0.0  0.120869  -6e-05  1.017882  0.0  0.088186  0.118944  -2.1e-05  1.01695  0.0
H  H31  1  0.64043352  0.14038279  0.30377332  1  0.096921  -6.5e-05  0.95798  0.0  0.119476  -4.1e-05  1.016957  0.0  0.120558  -5.6e-05  1.017569  0.0  0.08794  0.118641  -2.1e-05  1.016602  0.0
H  H32  1  0.21711706  0.11868201  0.80068906  1  0.091245  -5.6e-05  0.96848  0.0  0.114064  -3.5e-05  1.029355  0.0  0.114896  -4.6e-05  1.030117  0.0  0.087277  0.113382  -2.1e-05  1.028902  0.0
H  H33  1  0.09944886  0.88145902  0.69949380  1  0.091017  -5.7e-05  0.968769  0.0  0.113122  -3.1e-05  1.030462  0.0  0.11395  -4.4e-05  1.031238  0.0  0.086926  0.112479  -2.1e-05  1.029955  0.0
H  H34  1  0.78287317  0.88131276  0.19930890  1  0.091142  -6.1e-05  0.968527  0.0  0.113963  -3.5e-05  1.029411  0.0  0.114795  -4.6e-05  1.030171  0.0  0.087239  0.11328  -2.1e-05  1.028956  0.0
H  H35  1  0.90055346  0.11854446  0.30050557  1  0.091019  -5.7e-05  0.96875  0.0  0.11313  -3.1e-05  1.03043  0.0  0.113958  -4.4e-05  1.031206  0.0  0.08691  0.112485  -2.1e-05  1.029928  0.0
H  H36  1  0.35197266  0.08357324  0.89339019  1  0.102251  0.000153  0.955458  0.0  0.124893  0.000241  1.015388  0.0  0.125822  0.000174  1.01632  0.0  0.091434  0.124199  0.000318  1.014751  0.0
H  H37  1  0.26896734  0.91635682  0.60661425  1  0.102085  0.000138  0.955124  0.0  0.124881  0.000211  1.014795  0.0  0.125825  0.000152  1.015724  0.0  0.091351  0.124189  0.000279  1.014153  0.0
H  H38  1  0.64801874  0.91641768  0.10660433  1  0.102249  0.000155  0.955446  0.0  0.124906  0.000242  1.01537  0.0  0.125832  0.000174  1.016306  0.0  0.09147  0.124212  0.000318  1.014734  0.0
H  H39  1  0.73103199  0.08364378  0.39338273  1  0.102052  0.00014  0.955161  0.0  0.12485  0.000211  1.014819  0.0  0.125798  0.000152  1.015757  0.0  0.091345  0.124156  0.000279  1.014173  0.0
H  H40  1  0.88815630  0.94782699  0.59379554  1  0.09174  4.6e-05  0.961685  0.0  0.115457  0.000119  1.021065  0.0  0.116115  7.6e-05  1.02208  0.0  0.085201  0.114914  0.000173  1.020417  0.0
H  H41  1  0.94036833  0.05223538  0.90618898  1  0.091129  4.8e-05  0.962625  0.0  0.115402  0.000124  1.02162  0.0  0.11609  7.8e-05  1.022608  0.0  0.085198  0.114842  0.000177  1.020971  0.0
H  H42  1  0.11184612  0.05217359  0.40620288  1  0.091739  5.2e-05  0.961702  0.0  0.115457  0.00012  1.021082  0.0  0.116114  7.6e-05  1.022098  0.0  0.085208  0.114915  0.000173  1.020434  0.0
H  H43  1  0.05964133  0.94776424  0.09380912  1  0.091147  4.9e-05  0.962649  0.0  0.115438  0.000124  1.021611  0.0  0.116131  7.8e-05  1.022596  0.0  0.08522  0.114879  0.000177  1.02096  0.0
H  H44  1  0.69095651  0.97582848  0.52251578  1  0.107009  -3.8e-05  0.96967  0.0  0.123487  2.5e-05  1.038592  0.0  0.125783  -1e-06  1.037403  0.0  0.087177  0.121774  5.9e-05  1.039513  0.0
H  H45  1  0.71524590  0.02435953  0.97743491  1  0.107103  -3.3e-05  0.969714  0.0  0.124175  4.1e-05  1.037617  0.0  0.126464  1e-05  1.036428  0.0  0.087668  0.12245  8e-05  1.038574  0.0
H  H46  1  0.30904173  0.02417305  0.47748512  1  0.107031  -3.3e-05  0.969627  0.0  0.123505  2.5e-05  1.038562  0.0  0.125801  -1e-06  1.037372  0.0  0.087185  0.121792  5.9e-05  1.039484  0.0
H  H47  1  0.28476404  0.97564684  0.02256686  1  0.107074  -2.9e-05  0.969782  0.0  0.124151  4.1e-05  1.037676  0.0  0.126443  1e-05  1.036489  0.0  0.087659  0.122429  8e-05  1.038628  0.0
H  H48  1  0.65715635  0.98484022  0.65160284  1  0.08954  -3e-05  0.976046  0.0  0.109667  2.7e-05  1.042466  0.0  0.110561  1.2e-05  1.043092  0.0  0.084965  0.108946  4.6e-05  1.042099  0.0
H  H49  1  0.67237340  0.01530737  0.84826335  1  0.090485  -3.3e-05  0.975288  0.0  0.110318  3e-05  1.042061  0.0  0.111243  1.4e-05  1.042667  0.0  0.085068  0.109569  5e-05  1.041722  0.0
H  H50  1  0.34284973  0.01515841  0.34839711  1  0.089494  -2.1e-05  0.976109  0.0  0.109631  2.7e-05  1.042523  0.0  0.110525  1.2e-05  1.04315  0.0  0.084933  0.108911  4.6e-05  1.042155  0.0
H  H51  1  0.32763713  0.98469708  0.15173634  1  0.090481  -2.6e-05  0.975276  0.0  0.11034  3e-05  1.042031  0.0  0.111268  1.4e-05  1.042631  0.0  0.085066  0.109593  5e-05  1.041693  0.0
C  C52  1  0.43762180  0.37962450  0.87674835  1  0.741726  0.008658  3.788912  0.009  0.69703  0.01528  4.080524  0.014  0.732468  0.011778  4.073854  0.012  0.230701  0.672177  0.018847  4.084096  0.017
C  C53  1  0.05799962  0.62040376  0.62331539  1  0.741035  0.00865  3.790673  0.009  0.696325  0.015262  4.082253  0.014  0.731731  0.01177  4.075647  0.012  0.230109  0.671509  0.018834  4.085781  0.017
C  C54  1  0.56237055  0.62036833  0.12324969  1  0.741614  0.008645  3.789006  0.009  0.696985  0.015285  4.080545  0.014  0.732431  0.011781  4.073873  0.012  0.230691  0.672129  0.018852  4.08412  0.017
C  C55  1  0.94200364  0.37960162  0.37668822  1  0.740787  0.008655  3.790936  0.009  0.696137  0.015265  4.082414  0.014  0.731544  0.011771  4.075815  0.012  0.230077  0.671324  0.018837  4.085942  0.017
C  C56  1  0.41043684  0.28927118  0.93315703  1  -0.222066  0.001619  3.699065  0.002  -0.257428  0.001899  3.953997  0.002  -0.263189  0.001184  3.962954  0.002  -0.169644  -0.253452  0.002702  3.94795  0.002
C  C57  1  0.12113017  0.71072007  0.56691073  1  -0.223644  0.001667  3.699884  0.002  -0.258873  0.001925  3.95471  0.002  -0.264602  0.001199  3.963669  0.002  -0.170078  -0.254968  0.002728  3.948713  0.003
C  C58  1  0.58956372  0.71072260  0.06684278  1  -0.221798  0.001689  3.698736  0.002  -0.257256  0.001897  3.953795  0.002  -0.263039  0.001186  3.962795  0.002  -0.169609  -0.253278  0.002702  3.947744  0.002
C  C59  1  0.87887464  0.28928531  0.43309288  1  -0.223699  0.001659  3.699946  0.002  -0.258931  0.001924  3.954765  0.002  -0.264663  0.0012  3.963721  0.002  -0.170154  -0.25504  0.002728  3.948784  0.003
C  C60  1  0.36701906  0.14972722  0.85324646  1  -0.267979  0.00035  3.704812  0.0  -0.343915  0.000839  3.948013  0.001  -0.345873  0.000582  3.959412  0.001  -0.243134  -0.342222  0.001124  3.940076  0.001
C  C61  1  0.21789684  0.85024061  0.64677447  1  -0.266118  0.000359  3.704025  0.0  -0.341697  0.000849  3.946896  0.001  -0.343676  0.000592  3.95834  0.001  -0.242008  -0.340007  0.001131  3.938944  0.001
C  C62  1  0.63297532  0.85026659  0.14675046  1  -0.267936  0.000336  3.704602  0.0  -0.343886  0.00084  3.947867  0.001  -0.345835  0.000581  3.95927  0.001  -0.243183  -0.342191  0.001125  3.939928  0.001
C  C63  1  0.78210644  0.14976480  0.35322626  1  -0.266082  0.000352  3.704125  0.0  -0.341668  0.000849  3.947013  0.001  -0.343653  0.000591  3.958467  0.001  -0.241974  -0.339972  0.001131  3.939064  0.001
C  C64  1  0.77575458  0.24091506  0.65309395  1  0.728403  0.004032  3.763802  0.005  0.675777  0.008734  4.064685  0.009  0.710915  0.006092  4.057924  0.007  0.236805  0.651206  0.01151  4.068652  0.011
C  C65  1  0.53499036  0.75924027  0.84691970  1  0.729866  0.004028  3.762776  0.005  0.678904  0.008756  4.06155  0.009  0.713976  0.006105  4.054817  0.007  0.238116  0.654354  0.011544  4.065508  0.011
C  C66  1  0.22424522  0.75908649  0.34690479  1  0.72853  0.004032  3.763609  0.005  0.67588  0.008734  4.064507  0.009  0.711017  0.006092  4.057744  0.007  0.236851  0.651309  0.01151  4.068473  0.011
C  C67  1  0.46502142  0.24075738  0.15308066  1  0.729736  0.004023  3.762993  0.005  0.678951  0.008758  4.061565  0.009  0.714029  0.006105  4.054838  0.007  0.238157  0.654403  0.011545  4.065523  0.011
C  C68  1  0.90558545  0.14919969  0.64567735  1  -0.233562  0.001392  3.711044  0.001  -0.266506  0.002629  3.965582  0.002  -0.272891  0.00197  3.975328  0.001  -0.162736  -0.26199  0.003278  3.958891  0.002
C  C69  1  0.75635659  0.85097904  0.85432674  1  -0.231987  0.00139  3.709217  0.001  -0.266223  0.002622  3.964342  0.002  -0.272606  0.001964  3.974089  0.001  -0.162553  -0.261648  0.003273  3.957594  0.002
C  C70  1  0.09441185  0.85079994  0.35432003  1  -0.233724  0.001398  3.711166  0.001  -0.266618  0.002629  3.965694  0.002  -0.273003  0.00197  3.975435  0.001  -0.162717  -0.262101  0.003279  3.959001  0.002
C  C71  1  0.24364629  0.14902247  0.14567560  1  -0.231972  0.00141  3.709267  0.001  -0.266275  0.002622  3.964357  0.002  -0.272669  0.00197  3.974122  0.001  -0.16262  -0.261701  0.003273  3.957613  0.002
C  C72  1  0.77826453  0.00647646  0.60053690  1  -0.265214  0.000425  3.723632  0.0  -0.342693  0.000711  3.969467  0.001  -0.344036  0.000513  3.979839  0.0  -0.251056  -0.341463  0.000932  3.962318  0.001
C  C73  1  0.77177045  0.99368875  0.89941524  1  -0.266075  0.000431  3.72356  0.0  -0.343888  0.000714  3.969507  0.001  -0.345299  0.000515  3.979856  0.0  -0.251562  -0.342609  0.000938  3.962377  0.001
C  C74  1  0.22173586  0.99352317  0.39946048  1  -0.265178  0.000402  3.723721  0.0  -0.342668  0.000711  3.969553  0.001  -0.344009  0.000514  3.979926  0.0  -0.251063  -0.341437  0.000932  3.962405  0.001
C  C75  1  0.22823709  0.00631279  0.10058421  1  -0.266007  0.000415  3.723649  0.0  -0.343868  0.000715  3.969621  0.001  -0.345288  0.000514  3.979975  0.0  -0.251539  -0.342592  0.000938  3.962488  0.001
O  O76  1  0.44069851  0.38391016  0.63221418  1  -0.871388  0.053075  1.92159  0.03  -0.807482  0.074252  2.163415  0.045  -0.833573  0.066637  2.124207  0.039  -0.535964  -0.787683  0.081133  2.191455  0.05
O  O77  1  0.05738239  0.61617976  0.86788021  1  -0.871874  0.053107  1.920411  0.03  -0.808332  0.074265  2.161951  0.045  -0.834416  0.066647  2.122631  0.039  -0.536002  -0.788524  0.081141  2.190063  0.05
O  O78  1  0.55929559  0.61609236  0.36778415  1  -0.871366  0.053075  1.921542  0.03  -0.807445  0.07425  2.163415  0.045  -0.83354  0.066636  2.124208  0.039  -0.535934  -0.787646  0.081131  2.191451  0.05
O  O79  1  0.94261122  0.38382177  0.13212069  1  -0.871917  0.053107  1.920377  0.03  -0.808352  0.074265  2.161932  0.045  -0.83444  0.066649  2.122618  0.039  -0.535967  -0.788546  0.081142  2.190045  0.05
O  O80  1  0.62975897  0.43856190  0.86811325  1  -0.675371  0.033222  2.004366  0.023  -0.609667  0.039052  2.264093  0.025  -0.641947  0.03425  2.250643  0.021  -0.320537  -0.585591  0.043736  2.272538  0.029
O  O81  1  0.19091648  0.56120754  0.63183675  1  -0.675181  0.033155  2.004943  0.023  -0.609443  0.038972  2.264921  0.025  -0.6417  0.034186  2.25148  0.02  -0.320464  -0.585389  0.043616  2.273333  0.029
O  O82  1  0.37023849  0.56143187  0.13188800  1  -0.675395  0.033221  2.004502  0.023  -0.609697  0.039054  2.264205  0.025  -0.641977  0.034252  2.250748  0.021  -0.320561  -0.585624  0.043738  2.272656  0.029
O  O83  1  0.80908070  0.43879495  0.36816446  1  -0.675147  0.033154  2.00507  0.023  -0.6094  0.03897  2.264975  0.025  -0.641659  0.034185  2.251529  0.02  -0.320474  -0.585342  0.043613  2.273381  0.029
O  O84  1  0.87812509  0.61320174  0.66256926  1  -0.68618  0.037296  2.011452  0.025  -0.619865  0.043365  2.275759  0.027  -0.652731  0.037798  2.260947  0.022  -0.324438  -0.595237  0.048846  2.28509  0.032
O  O85  1  0.26496715  0.38707973  0.83764221  1  -0.687259  0.037262  2.012059  0.025  -0.620494  0.043275  2.276015  0.027  -0.653385  0.037729  2.261246  0.022  -0.325064  -0.595847  0.048712  2.285291  0.032
O  O86  1  0.12188078  0.38680264  0.33743619  1  -0.686053  0.037294  2.011573  0.025  -0.619751  0.043365  2.275831  0.027  -0.652618  0.037799  2.261022  0.022  -0.324433  -0.595124  0.048846  2.285162  0.032
O  O87  1  0.73503139  0.61291309  0.16235656  1  -0.687214  0.037269  2.012108  0.025  -0.620479  0.043279  2.27607  0.027  -0.653364  0.037731  2.261278  0.022  -0.325052  -0.595831  0.048716  2.285347  0.032
O  O88  1  0.88050097  0.36310034  0.69143032  1  -0.735346  0.063477  2.163457  0.037  -0.659431  0.078323  2.466994  0.045  -0.696106  0.071187  2.449454  0.04  -0.315839  -0.631662  0.084861  2.478115  0.051
O  O89  1  0.51783619  0.63710754  0.80877430  1  -0.735452  0.06347  2.164832  0.037  -0.659584  0.078305  2.467393  0.045  -0.696188  0.071175  2.449834  0.039  -0.315242  -0.631847  0.084852  2.478496  0.051
O  O90  1  0.11949988  0.63690020  0.30857243  1  -0.735328  0.063465  2.163328  0.037  -0.65943  0.078321  2.466928  0.045  -0.696104  0.071181  2.449386  0.04  -0.315836  -0.631662  0.084859  2.478047  0.051
O  O91  1  0.48217277  0.36289685  0.19123044  1  -0.735413  0.063475  2.164571  0.037  -0.659691  0.078315  2.467234  0.045  -0.69628  0.071181  2.449611  0.039  -0.315264  -0.631948  0.084863  2.478334  0.051
O  O92  1  0.57474326  0.19879022  0.62237347  1  -0.587832  0.003747  1.958245  0.005  -0.523822  0.006885  2.166506  0.009  -0.549998  0.004888  2.157595  0.007  -0.291899  -0.505637  0.009068  2.172461  0.011
O  O93  1  0.37596177  0.80129406  0.87750573  1  -0.590544  0.003743  1.957972  0.005  -0.527603  0.006891  2.165788  0.009  -0.553768  0.004894  2.15687  0.007  -0.294336  -0.509433  0.009071  2.171758  0.011
O  O94  1  0.42525597  0.80121327  0.37762518  1  -0.587927  0.003746  1.95812  0.005  -0.523872  0.006886  2.166401  0.009  -0.550047  0.00489  2.15749  0.007  -0.291958  -0.505688  0.009068  2.172356  0.011
O  O95  1  0.62403492  0.19870745  0.12249733  1  -0.590332  0.003741  1.958334  0.005  -0.527506  0.006889  2.166145  0.009  -0.553681  0.004893  2.157236  0.007  -0.294313  -0.509336  0.009069  2.172115  0.011
