# generated using pymatgen
data_NiH16C16(NO2)2
_symmetry_space_group_name_H-M   'P 1'
_cell_length_a   4.22461575
_cell_length_b   10.59100993
_cell_length_c   15.38899922
_cell_angle_alpha   96.66308242
_cell_angle_beta   90.00004305
_cell_angle_gamma   90.00031166
_symmetry_Int_Tables_number   1
_chemical_formula_structural   NiH16C16(NO2)2
_chemical_formula_sum   'Ni2 H32 C32 N4 O8'
_cell_volume   683.89845908
_cell_formula_units_Z   2
loop_
 _symmetry_equiv_pos_site_id
 _symmetry_equiv_pos_as_xyz
  1  'x, y, z'
loop_
 _atom_site_type_symbol
 _atom_site_label
 _atom_site_symmetry_multiplicity
 _atom_site_fract_x
 _atom_site_fract_y
 _atom_site_fract_z
 _atom_site_occupancy
 _atom_site_hle17_ddec_charge
 _atom_site_hle17_ddec_spin_density
 _atom_site_hle17_ddec_sum_bond_order
 _atom_site_hle17_magmom
 _atom_site_hse06_10hf_bader_charge
 _atom_site_hse06_10hf_bader_spin_density
 _atom_site_hse06_10hf_ddec_charge
 _atom_site_hse06_10hf_ddec_spin_density
 _atom_site_hse06_10hf_ddec_sum_bond_order
 _atom_site_hse06_10hf_magmom
 _atom_site_hse06_ddec_charge
 _atom_site_hse06_ddec_spin_density
 _atom_site_hse06_ddec_sum_bond_order
 _atom_site_hse06_magmom
 _atom_site_pbe_cm5_charge
 _atom_site_pbe_ddec_charge
 _atom_site_pbe_ddec_spin_density
 _atom_site_pbe_ddec_sum_bond_order
 _atom_site_pbe_magmom
Ni  Ni0  1  0.49999985  0.49999954  0.49999981  1  0.890299  1.82676  1.821914  1.462  1.22898  1.624181  0.91637  1.848808  2.196927  1.613  1.015313  1.923286  2.120785  1.714  0.616349  0.838578  1.774903  2.259008  1.519
Ni  Ni1  1  0.99999868  0.49999941  0.99999995  1  0.890311  -1.826758  1.821929  -1.462  1.228978  -1.624184  0.916412  -1.848809  2.196915  -1.613  1.015343  -1.92329  2.120793  -1.714  0.616365  0.838621  -1.774907  2.259002  -1.519
H  H2  1  0.25766534  0.43938233  0.76504401  1  0.113436  0.000646  0.959428  0.001  0.125583  8.1e-05  0.122718  4.7e-05  1.023548  0.0  0.125675  2.8e-05  1.021993  0.0  0.107988  0.12047  7.8e-05  1.024991  0.0
H  H3  1  0.75765952  0.56061986  0.73495464  1  0.113431  -0.000647  0.959465  -0.001  0.125609  -8.1e-05  0.122721  -4.7e-05  1.023578  0.0  0.125677  -2.8e-05  1.022023  0.0  0.107983  0.120472  -7.8e-05  1.02502  0.0
H  H4  1  0.74233909  0.56061865  0.23495509  1  0.11343  0.000648  0.959436  0.001  0.125632  8.1e-05  0.122717  4.7e-05  1.023552  0.0  0.125673  2.8e-05  1.021996  0.0  0.107976  0.120466  7.8e-05  1.024993  0.0
H  H5  1  0.24233544  0.43937923  0.26504628  1  0.113471  -0.000647  0.959452  -0.001  0.125605  -8.1e-05  0.122769  -4.7e-05  1.023529  0.0  0.125727  -2.8e-05  1.021969  0.0  0.10799  0.120518  -7.8e-05  1.024972  0.0
H  H6  1  0.57598280  0.05703862  0.75010373  1  0.083797  -0.000235  0.990085  -0.001  0.050169  7.7e-05  0.095282  5.3e-05  1.054269  0.0  0.0971  2.7e-05  1.0551  0.0  0.094483  0.094041  8.1e-05  1.053723  0.0
H  H7  1  0.07599067  0.94296223  0.74989607  1  0.083787  0.000236  0.990101  0.001  0.050137  -7.7e-05  0.095272  -5.3e-05  1.054287  0.0  0.097089  -2.7e-05  1.05512  0.0  0.094495  0.094031  -8.1e-05  1.053739  0.0
H  H8  1  0.42401690  0.94296142  0.24989660  1  0.083775  -0.000236  0.990127  -0.001  0.050158  7.7e-05  0.095253  5.3e-05  1.054319  0.0  0.09707  2.7e-05  1.055151  0.0  0.094472  0.094012  8.1e-05  1.053771  0.0
H  H9  1  0.92401139  0.05703876  0.25010303  1  0.083775  0.000236  0.990135  0.001  0.050139  -7.7e-05  0.095249  -5.3e-05  1.054334  0.0  0.097066  -2.7e-05  1.055165  0.0  0.094473  0.094007  -8.1e-05  1.053787  0.0
H  H10  1  0.62841660  0.17566511  0.62004073  1  0.089339  0.000568  0.966331  0.001  0.094657  4e-06  0.098501  -2.4e-05  1.032879  0.0  0.101546  -1.9e-05  1.0313  0.0  0.09683  0.096262  -2.2e-05  1.034162  0.0
H  H11  1  0.12842795  0.82433870  0.87995866  1  0.089366  -0.000569  0.966284  -0.001  0.094578  -4e-06  0.098522  2.4e-05  1.032836  0.0  0.101567  1.9e-05  1.031258  0.0  0.096816  0.096286  2.2e-05  1.034122  0.0
H  H12  1  0.37158074  0.82433588  0.37995902  1  0.089416  0.000569  0.966332  0.001  0.094538  4e-06  0.098584  -2.4e-05  1.032866  0.0  0.101628  -1.9e-05  1.031289  0.0  0.096867  0.096346  -2.2e-05  1.034151  0.0
H  H13  1  0.87157175  0.17566323  0.12004052  1  0.089413  -0.000568  0.966329  -0.001  0.094558  -4e-06  0.098577  2.4e-05  1.032864  0.0  0.101623  1.9e-05  1.031284  0.0  0.096861  0.096339  2.2e-05  1.03415  0.0
H  H14  1  0.74904810  0.16572852  0.96713727  1  0.119162  -0.000648  0.979299  -0.001  0.091531  -0.0007  0.136624  -0.000313  1.045875  0.0  0.139331  -0.000228  1.043833  0.0  0.090687  0.134519  -0.000402  1.047507  0.0
H  H15  1  0.24904679  0.83427366  0.53286137  1  0.119132  0.00065  0.979289  0.001  0.09155  0.0007  0.136604  0.000313  1.045854  0.0  0.139311  0.000228  1.043811  0.0  0.090677  0.134499  0.000402  1.047486  0.0
H  H16  1  0.25095397  0.83427247  0.03286248  1  0.119179  -0.00065  0.979289  -0.001  0.091605  -0.0007  0.136647  -0.000313  1.045854  0.0  0.139355  -0.000229  1.04381  0.0  0.090693  0.134542  -0.000402  1.04749  0.0
H  H17  1  0.75095527  0.16572448  0.46713817  1  0.119134  0.00065  0.97929  0.001  0.091609  0.0007  0.136603  0.000313  1.045866  0.0  0.13931  0.000229  1.043822  0.0  0.090675  0.134497  0.000402  1.047496  0.0
H  H18  1  0.07850122  0.07253107  0.92854686  1  0.102301  -0.000571  0.946153  -0.001  0.030582  -0.000656  0.126969  -0.000252  1.004307  0.0  0.12778  -0.000199  1.004615  0.0  0.091305  0.126289  -0.000313  1.004216  0.0
H  H19  1  0.57850229  0.92746978  0.57145165  1  0.102262  0.000572  0.946151  0.001  0.030556  0.000657  0.126935  0.000252  1.004309  0.0  0.127745  0.000199  1.004616  0.0  0.091294  0.126253  0.000313  1.004216  0.0
H  H20  1  0.92149848  0.92746993  0.07145355  1  0.102311  -0.000572  0.946152  -0.001  0.030501  -0.000656  0.126985  -0.000252  1.004294  0.0  0.127796  -0.000199  1.004602  0.0  0.091324  0.126305  -0.000313  1.004204  0.0
H  H21  1  0.42149977  0.07252835  0.42854659  1  0.102219  0.000572  0.946182  0.001  0.030526  0.000657  0.126924  0.000252  1.004294  0.0  0.127735  0.000199  1.004601  0.0  0.091295  0.126241  0.000313  1.004205  0.0
H  H22  1  0.69368816  0.02435787  0.89269970  1  0.107707  0.000112  0.950908  0.0  0.052457  9e-05  0.129884  8.6e-05  1.012216  0.0  0.13099  6e-05  1.012621  0.0  0.090771  0.12902  0.000114  1.012019  0.0
H  H23  1  0.19369371  0.97564323  0.60729885  1  0.107665  -0.000111  0.951016  0.0  0.052455  -9e-05  0.129839  -8.6e-05  1.012332  0.0  0.130945  -6e-05  1.012736  0.0  0.090751  0.128976  -0.000114  1.012128  0.0
H  H24  1  0.30631154  0.97564311  0.10730006  1  0.107703  0.000111  0.950914  0.0  0.052442  9e-05  0.129881  8.6e-05  1.012223  0.0  0.130987  6e-05  1.012628  0.0  0.090764  0.129017  0.000114  1.012022  0.0
H  H25  1  0.80631309  0.02435585  0.39269946  1  0.107679  -0.000111  0.950936  0.0  0.052419  -9e-05  0.129866  -8.6e-05  1.012244  0.0  0.130972  -6e-05  1.012647  0.0  0.090771  0.129001  -0.000114  1.012043  0.0
H  H26  1  0.42996011  0.38190317  0.90719343  1  0.312585  0.001243  0.918519  0.002  0.493673  0.00115  0.295103  0.000464  0.989456  0.001  0.301452  0.000542  0.986152  0.001  0.298442  0.290552  0.000342  0.991673  0.001
H  H27  1  0.92995704  0.61810038  0.59280731  1  0.312507  -0.001243  0.918669  -0.002  0.49368  -0.001149  0.2951  -0.000464  0.989526  -0.001  0.301447  -0.000542  0.986225  -0.001  0.298431  0.29055  -0.000342  0.991746  -0.001
H  H28  1  0.57004196  0.61809783  0.09280827  1  0.312551  0.001243  0.918588  0.002  0.493673  0.00115  0.29512  0.000464  0.989483  0.001  0.301469  0.000542  0.986178  0.001  0.298437  0.290568  0.000342  0.991702  0.001
H  H29  1  0.07004266  0.38189777  0.40719418  1  0.312522  -0.001243  0.9187  -0.002  0.4937  -0.00115  0.295099  -0.000464  0.989558  -0.001  0.301446  -0.000542  0.98626  -0.001  0.29845  0.290548  -0.000342  0.991775  -0.001
H  H30  1  0.23257584  0.27782023  0.95909945  1  0.303869  0.000842  0.890566  0.002  0.432623  0.00066  0.298788  0.000103  0.940633  0.001  0.304145  0.000202  0.93827  0.001  0.30675  0.294889  -3e-06  0.942365  0.0
H  H31  1  0.73257641  0.72218191  0.54089919  1  0.303874  -0.000843  0.890484  -0.002  0.432601  -0.00066  0.298782  -0.000103  0.940563  -0.001  0.304139  -0.000202  0.9382  -0.001  0.306709  0.294882  3e-06  0.942298  0.0
H  H32  1  0.76742149  0.72218076  0.04090031  1  0.303874  0.000842  0.890511  0.002  0.432611  0.00066  0.298791  0.000103  0.940581  0.001  0.304149  0.000202  0.938218  0.001  0.306746  0.294893  -3e-06  0.942318  0.0
H  H33  1  0.26742802  0.27781718  0.45910107  1  0.303869  -0.000842  0.890512  -0.002  0.432569  -0.00066  0.298776  -0.000103  0.940596  -0.001  0.304133  -0.000202  0.938234  -0.001  0.30671  0.294874  3e-06  0.942332  0.0
C  C34  1  0.95185059  0.31367440  0.68426631  1  -0.06176  0.017049  3.779428  0.021  -0.027865  0.009335  -0.043216  0.005478  4.019348  0.007  -0.051183  0.004585  4.041162  0.006  -0.024031  -0.03783  0.006401  4.005017  0.008
C  C35  1  0.45184806  0.68632824  0.81573307  1  -0.061634  -0.017068  3.77951  -0.021  -0.027926  -0.009336  -0.043074  -0.005478  4.019407  -0.007  -0.051039  -0.004585  4.041223  -0.006  -0.023985  -0.037683  -0.006401  4.005078  -0.008
C  C36  1  0.04815148  0.68632565  0.31573468  1  -0.061762  0.017072  3.779532  0.021  -0.027873  0.009334  -0.043188  0.005477  4.01943  0.007  -0.051154  0.004584  4.041242  0.006  -0.024011  -0.037802  0.006401  4.005097  0.008
C  C37  1  0.54814454  0.31367180  0.18426727  1  -0.061568  -0.017069  3.779402  -0.021  -0.027813  -0.009335  -0.04306  -0.005478  4.019346  -0.007  -0.051027  -0.004585  4.041164  -0.006  -0.02393  -0.037674  -0.006401  4.005011  -0.008
C  C38  1  0.10525564  0.35620234  0.76256918  1  -0.12811  -0.021405  3.664006  -0.023  -0.041151  -0.011819  -0.160003  -0.00651  3.916276  -0.007  -0.160677  -0.005283  3.933886  -0.006  -0.082202  -0.159527  -0.007734  3.904803  -0.008
C  C39  1  0.60525806  0.64379573  0.73743172  1  -0.128143  0.021438  3.663708  0.023  -0.041082  0.011826  -0.160049  0.006514  3.915998  0.007  -0.160723  0.005285  3.933607  0.006  -0.082213  -0.15957  0.007737  3.904527  0.008
C  C40  1  0.89474642  0.64379676  0.23743238  1  -0.127996  -0.021438  3.663896  -0.023  -0.041165  -0.011821  -0.159911  -0.006511  3.91616  -0.007  -0.160584  -0.005283  3.933771  -0.006  -0.082154  -0.159432  -0.007736  3.904679  -0.008
C  C41  1  0.39473453  0.35620431  0.26256861  1  -0.128257  0.021437  3.663832  0.023  -0.041058  0.011824  -0.160122  0.006513  3.916092  0.007  -0.160795  0.005285  3.9337  0.006  -0.082265  -0.159645  0.007737  3.904616  0.008
C  C42  1  0.06366338  0.29383726  0.83693165  1  0.231646  0.012454  3.731518  0.017  0.325012  0.007263  0.228254  0.003621  3.98026  0.006  0.234627  0.004036  4.002262  0.007  0.088036  0.223661  0.002784  3.965336  0.006
C  C43  1  0.56365933  0.70616734  0.66306519  1  0.231761  -0.012476  3.731396  -0.017  0.325029  -0.007266  0.228317  -0.003622  3.980194  -0.006  0.23469  -0.004038  4.002199  -0.007  0.088117  0.223725  -0.002784  3.965277  -0.006
C  C44  1  0.93633869  0.70616372  0.16306746  1  0.231618  0.012476  3.731545  0.017  0.325045  0.007263  0.228206  0.003621  3.98031  0.006  0.234579  0.004037  4.002314  0.007  0.088032  0.223611  0.002784  3.965387  0.006
C  C45  1  0.43633800  0.29382984  0.33693427  1  0.231696  -0.012475  3.731379  -0.017  0.325039  -0.007266  0.228234  -0.003622  3.980188  -0.006  0.234607  -0.004038  4.002196  -0.007  0.088079  0.223641  -0.002785  3.96526  -0.006
C  C46  1  0.87663360  0.18283059  0.83260738  1  0.05795  -0.018918  3.702193  -0.021  0.034902  -0.012483  0.079661  -0.006837  3.938768  -0.008  0.078819  -0.005608  3.961888  -0.007  -0.01293  0.080089  -0.008172  3.923273  -0.009
C  C47  1  0.37663243  0.81716807  0.66739102  1  0.057903  0.018937  3.702205  0.021  0.034864  0.012483  0.079649  0.006837  3.938763  0.008  0.078805  0.005608  3.961883  0.007  -0.012911  0.080082  0.008172  3.923271  0.009
C  C48  1  0.12336610  0.81716945  0.16739295  1  0.057952  -0.01894  3.702241  -0.021  0.03484  -0.012482  0.079694  -0.006837  3.938771  -0.008  0.078852  -0.005608  3.96189  -0.007  -0.01292  0.080121  -0.008172  3.923274  -0.009
C  C49  1  0.62336963  0.18283101  0.33260859  1  0.057873  0.01894  3.702198  0.021  0.034838  0.012485  0.079609  0.006838  3.938781  0.008  0.078765  0.005609  3.9619  0.007  -0.012954  0.08004  0.008173  3.923279  0.009
C  C50  1  0.72461465  0.14168301  0.75335425  1  -0.131828  0.012119  3.787316  0.014  -0.098193  0.004608  -0.149473  0.002477  4.038809  0.004  -0.152678  0.002662  4.061533  0.004  -0.099775  -0.147325  0.002314  4.023517  0.004
C  C51  1  0.22461426  0.85832101  0.74664323  1  -0.131819  -0.012146  3.787062  -0.014  -0.098178  -0.004609  -0.149472  -0.002478  4.03856  -0.004  -0.152674  -0.002664  4.061283  -0.004  -0.099801  -0.147319  -0.002315  4.023268  -0.004
C  C52  1  0.27538742  0.85831798  0.24664486  1  -0.131763  0.012144  3.787174  0.014  -0.098117  0.004607  -0.149398  0.002476  4.038642  0.004  -0.152602  0.002663  4.061364  0.004  -0.099741  -0.147248  0.002314  4.023346  0.004
C  C53  1  0.77538544  0.14167901  0.25335450  1  -0.131765  -0.012144  3.787034  -0.014  -0.09814  -0.00461  -0.149392  -0.002478  4.03852  -0.004  -0.152595  -0.002664  4.061242  -0.004  -0.099751  -0.147244  -0.002315  4.023226  -0.004
C  C54  1  0.75591724  0.20637608  0.68025303  1  -0.08044  -0.021999  3.778336  -0.023  -0.002255  -0.012596  -0.113298  -0.007017  4.041524  -0.007  -0.114044  -0.005501  4.063175  -0.006  -0.097417  -0.112675  -0.008793  4.026907  -0.009
C  C55  1  0.25592801  0.79362328  0.81974735  1  -0.080491  0.022026  3.778206  0.023  -0.002093  0.012598  -0.113347  0.007019  4.041397  0.007  -0.114094  0.005503  4.063045  0.006  -0.097397  -0.112725  0.008795  4.026788  0.009
C  C56  1  0.24408246  0.79362397  0.31974795  1  -0.080585  -0.022026  3.778254  -0.023  -0.002145  -0.012596  -0.113473  -0.007017  4.041457  -0.007  -0.11422  -0.005502  4.063106  -0.006  -0.097495  -0.112851  -0.008794  4.026842  -0.009
C  C57  1  0.74407169  0.20637580  0.18025096  1  -0.080541  0.022023  3.778216  0.023  -0.002142  0.012599  -0.113407  0.007019  4.041434  0.007  -0.114154  0.005504  4.063084  0.006  -0.097455  -0.112786  0.008796  4.02682  0.009
C  C58  1  0.98836789  0.38417862  0.60618046  1  0.642608  0.003813  3.860398  0.0  1.586862  0.009627  0.603514  0.007853  4.153812  0.007  0.642994  0.005979  4.143851  0.006  0.214403  0.574979  0.009685  4.159883  0.009
C  C59  1  0.48837409  0.61582220  0.89381878  1  0.642422  -0.003811  3.860458  0.0  1.586826  -0.009628  0.603325  -0.007853  4.153881  -0.007  0.642804  -0.005979  4.143922  -0.006  0.214329  0.57479  -0.009686  4.159953  -0.009
C  C60  1  0.01163181  0.61582237  0.39381930  1  0.642612  0.00381  3.860316  0.0  1.586803  0.009628  0.603485  0.007853  4.153739  0.007  0.642965  0.00598  4.143776  0.006  0.214408  0.57495  0.009685  4.159807  0.009
C  C61  1  0.51162325  0.38417784  0.10618155  1  0.642542  -0.003811  3.860409  0.0  1.586719  -0.009628  0.603439  -0.007853  4.153855  -0.007  0.642918  -0.005979  4.143893  -0.006  0.214385  0.574904  -0.009685  4.159923  -0.009
C  C62  1  0.84603159  0.10770970  0.90930571  1  -0.338113  0.000814  3.725266  0.002  -0.126235  7.5e-05  -0.417828  -6e-05  3.959744  0.0  -0.419278  -1.6e-05  3.967591  0.0  -0.245073  -0.41646  -0.000102  3.954568  0.001
C  C63  1  0.34602650  0.89229175  0.59069355  1  -0.337993  -0.00082  3.725271  -0.002  -0.126315  -7.5e-05  -0.417722  5.9e-05  3.959728  0.0  -0.419171  1.6e-05  3.967574  0.0  -0.24505  -0.416355  0.000102  3.954545  -0.001
C  C64  1  0.15397047  0.89229034  0.09069398  1  -0.338147  0.000819  3.725264  0.002  -0.12625  7.5e-05  -0.417878  -6e-05  3.95972  0.0  -0.419329  -1.6e-05  3.967566  0.0  -0.245096  -0.41651  -0.000102  3.954543  0.001
C  C65  1  0.65397556  0.10770733  0.40930606  1  -0.337951  -0.000821  3.725195  -0.002  -0.126267  -7.5e-05  -0.417716  5.9e-05  3.959658  0.0  -0.419164  1.6e-05  3.967502  0.0  -0.245052  -0.416349  0.000102  3.954479  -0.001
N  N66  1  0.21017656  0.34401652  0.91650892  1  -0.620657  -0.054877  3.186254  -0.078  -1.216225  -0.053718  -0.605928  -0.032352  3.442222  -0.047  -0.636123  -0.025139  3.444601  -0.038  -0.600059  -0.583599  -0.037319  3.44052  -0.052
N  N67  1  0.71017872  0.65598180  0.58349267  1  -0.620646  0.054875  3.186476  0.078  -1.216228  0.053716  -0.605946  0.032351  3.442306  0.047  -0.636142  0.025139  3.444688  0.038  -0.600027  -0.583614  0.037315  3.440606  0.052
N  N68  1  0.78982314  0.65598258  0.08349199  1  -0.620586  -0.054875  3.186332  -0.078  -1.216208  -0.053716  -0.605927  -0.032351  3.442223  -0.047  -0.63612  -0.025138  3.444604  -0.038  -0.600037  -0.583597  -0.037318  3.440526  -0.052
N  N69  1  0.28982335  0.34401634  0.41650752  1  -0.620563  0.054872  3.186387  0.078  -1.216211  0.053715  -0.605869  0.032351  3.442284  0.047  -0.636065  0.025138  3.444668  0.038  -0.600008  -0.583539  0.037319  3.440582  0.052
O  O70  1  0.79145031  0.35895638  0.54336526  1  -0.634268  0.036364  2.106314  0.053  -1.212807  0.03993  -0.602458  0.023447  2.382215  0.035  -0.639013  0.017534  2.373291  0.027  -0.320685  -0.574383  0.02927  2.387523  0.043
O  O71  1  0.29144756  0.64104400  0.95663456  1  -0.634226  -0.036371  2.106201  -0.053  -1.212767  -0.039934  -0.602421  -0.023449  2.382104  -0.035  -0.638981  -0.017535  2.373194  -0.027  -0.320674  -0.574343  -0.029272  2.387417  -0.043
O  O72  1  0.20855175  0.64104462  0.45663580  1  -0.634237  0.036368  2.106128  0.053  -1.212807  0.03993  -0.602472  0.023446  2.382082  0.035  -0.63903  0.017533  2.373163  0.027  -0.320716  -0.574399  0.029271  2.387393  0.043
O  O73  1  0.70854741  0.35895794  0.04336657  1  -0.634252  -0.036369  2.106291  -0.053  -1.212749  -0.039932  -0.602504  -0.023448  2.382216  -0.035  -0.639058  -0.017533  2.373288  -0.027  -0.320732  -0.574432  -0.029274  2.387528  -0.043
O  O74  1  0.21047758  0.46636387  0.60708807  1  -0.614357  0.045738  2.097727  0.068  -1.207785  0.050589  -0.581275  0.029557  2.368735  0.046  -0.619113  0.02212  2.362095  0.035  -0.305707  -0.552262  0.036855  2.372521  0.056
O  O75  1  0.71047657  0.53363633  0.89291172  1  -0.614329  -0.045736  2.097834  -0.068  -1.207801  -0.050586  -0.581234  -0.029555  2.368816  -0.046  -0.619067  -0.022119  2.362175  -0.035  -0.305697  -0.552221  -0.036851  2.372603  -0.056
O  O76  1  0.78951975  0.53363617  0.39291227  1  -0.614461  0.045743  2.097777  0.068  -1.207783  0.050591  -0.581297  0.029558  2.368714  0.046  -0.619135  0.022121  2.362072  0.035  -0.305737  -0.552282  0.036857  2.372496  0.056
O  O77  1  0.28952076  0.46636466  0.10708869  1  -0.614483  -0.045739  2.097888  -0.068  -1.207827  -0.050588  -0.58129  -0.029556  2.368783  -0.046  -0.619126  -0.022121  2.362142  -0.035  -0.305729  -0.552277  -0.036855  2.372565  -0.056
