# generated using pymatgen
data_CdH6(C2O3)2
_symmetry_space_group_name_H-M   'P 1'
_cell_length_a   6.54410206
_cell_length_b   7.63154167
_cell_length_c   7.88668272
_cell_angle_alpha   68.45332723
_cell_angle_beta   88.10623326
_cell_angle_gamma   70.14241099
_symmetry_Int_Tables_number   1
_chemical_formula_structural   CdH6(C2O3)2
_chemical_formula_sum   'Cd2 H12 C8 O12'
_cell_volume   342.66744152
_cell_formula_units_Z   2
loop_
 _symmetry_equiv_pos_site_id
 _symmetry_equiv_pos_as_xyz
  1  'x, y, z'
loop_
 _atom_site_type_symbol
 _atom_site_label
 _atom_site_symmetry_multiplicity
 _atom_site_fract_x
 _atom_site_fract_y
 _atom_site_fract_z
 _atom_site_occupancy
 _atom_site_pbe_bader_spin_density
 _atom_site_pbe_cm5_charge
 _atom_site_pbe_ddec_charge
 _atom_site_pbe_ddec_spin_density
 _atom_site_pbe_ddec_sum_bond_order
 _atom_site_pbe_magmom
Cd  Cd0  1  0.14919214  0.82371889  0.88593407  1  0  0.775596  1.048773  0  2.024718  0
Cd  Cd1  1  0.85080938  0.17627854  0.11406762  1  0  0.775562  1.048686  0  2.024785  0
H  H2  1  0.48502170  0.70481209  0.35096931  1  0  0.114921  0.134086  0  0.999494  0
H  H3  1  0.51498012  0.29519282  0.64903098  1  0  0.114891  0.134084  0  0.999503  0
H  H4  1  0.85280010  0.71816534  0.46954931  1  0  0.114423  0.131505  0  0.995431  0
H  H5  1  0.14719176  0.28184570  0.53044668  1  0  0.114404  0.131463  0  0.9954  0
H  H6  1  0.57843869  0.84648951  0.92241812  1  0  0.292637  0.398774  0  0.923574  0
H  H7  1  0.42156526  0.15350942  0.07757914  1  0  0.292639  0.398774  0  0.923578  0
H  H8  1  0.55332430  0.66194722  0.08965126  1  0  0.288106  0.387285  0  0.955124  0
H  H9  1  0.44667967  0.33805169  0.91034727  1  0  0.288097  0.387271  0  0.955141  0
H  H10  1  0.76222027  0.95489099  0.64904654  1  0  0.285474  0.385153  0  0.956765  0
H  H11  1  0.23778446  0.04510191  0.35095663  1  0  0.28548  0.385147  0  0.956756  0
H  H12  1  0.82800515  0.71583510  0.77095245  1  0  0.28833  0.382375  0  0.963308  0
H  H13  1  0.17198882  0.28415791  0.22905111  1  0  0.288356  0.382389  0  0.963308  0
C  C14  1  0.35325594  0.68874637  0.61340698  1  0  0.204202  0.60908  0  4.190568  0
C  C15  1  0.64674485  0.31125707  0.38659134  1  0  0.204172  0.609005  0  4.190734  0
C  C16  1  0.46469017  0.59903418  0.48215291  1  0  -0.077778  -0.167223  0  3.87499  0
C  C17  1  0.53530956  0.40097225  0.51784693  1  0  -0.077651  -0.167118  0  3.874894  0
C  C18  1  0.03800438  0.64885606  0.25153181  1  0  0.207765  0.623346  0  4.183623  0
C  C19  1  0.96199007  0.35113992  0.74847321  1  0  0.207666  0.623195  0  4.18384  0
C  C20  1  0.96460481  0.59414448  0.43733408  1  0  -0.076791  -0.172386  0  3.901701  0
C  C21  1  0.03538571  0.40586205  0.56266609  1  0  -0.076805  -0.172285  0  3.901544  0
O  O22  1  0.28495020  0.87971641  0.56465825  1  0  -0.313003  -0.561094  0  2.181268  0
O  O23  1  0.71504868  0.12028848  0.43534851  1  0  -0.312991  -0.561042  0  2.181419  0
O  O24  1  0.32431292  0.57592092  0.77168585  1  0  -0.313169  -0.564958  0  2.306375  0
O  O25  1  0.67568282  0.42407959  0.22831244  1  0  -0.313159  -0.564959  0  2.306473  0
O  O26  1  0.99513857  0.83738713  0.15714574  1  0  -0.327691  -0.573447  0  2.349637  0
O  O27  1  0.00488404  0.16260706  0.84285754  1  0  -0.327656  -0.573343  0  2.349646  0
O  O28  1  0.14263190  0.51861389  0.18705791  1  0  -0.304336  -0.542401  0  2.205534  0
O  O29  1  0.85734833  0.48138684  0.81293330  1  0  -0.304273  -0.542396  0  2.205699  0
O  O30  1  0.47368327  0.80491731  0.00772829  1  0  -0.588547  -0.759148  0  2.069986  0
O  O31  1  0.52632129  0.19508009  0.99227202  1  0  -0.588534  -0.759133  0  2.069982  0
O  O32  1  0.80653702  0.85014023  0.77718555  1  0  -0.570149  -0.759733  0  2.099764  0
O  O33  1  0.19346615  0.14985269  0.22281640  1  0  -0.570188  -0.759727  0  2.099793  0
