# generated using pymatgen
data_NiH14C14(N2O)4
_symmetry_space_group_name_H-M   'P 1'
_cell_length_a   7.67978643
_cell_length_b   8.86428984
_cell_length_c   12.90002512
_cell_angle_alpha   89.99892768
_cell_angle_beta   89.99995219
_cell_angle_gamma   99.15090612
_symmetry_Int_Tables_number   1
_chemical_formula_structural   NiH14C14(N2O)4
_chemical_formula_sum   'Ni2 H28 C28 N16 O8'
_cell_volume   867.00352185
_cell_formula_units_Z   2
loop_
 _symmetry_equiv_pos_site_id
 _symmetry_equiv_pos_as_xyz
  1  'x, y, z'
loop_
 _atom_site_type_symbol
 _atom_site_label
 _atom_site_symmetry_multiplicity
 _atom_site_fract_x
 _atom_site_fract_y
 _atom_site_fract_z
 _atom_site_occupancy
 _atom_site_hle17_ddec_charge
 _atom_site_hle17_ddec_spin_density
 _atom_site_hle17_ddec_sum_bond_order
 _atom_site_hle17_magmom
 _atom_site_hse06_10hf_ddec_charge
 _atom_site_hse06_10hf_ddec_spin_density
 _atom_site_hse06_10hf_ddec_sum_bond_order
 _atom_site_hse06_10hf_magmom
 _atom_site_hse06_ddec_charge
 _atom_site_hse06_ddec_spin_density
 _atom_site_hse06_ddec_sum_bond_order
 _atom_site_hse06_magmom
 _atom_site_pbe_cm5_charge
 _atom_site_pbe_ddec_charge
 _atom_site_pbe_ddec_spin_density
 _atom_site_pbe_ddec_sum_bond_order
 _atom_site_pbe_magmom
Ni  Ni0  1  0.99999704  0.99999817  0.99999774  1  1.086956  -1.801277  2.078704  -1.575  1.10004  -1.836829  2.487577  -1.664  1.163517  -1.882268  2.423126  -1.736  0.724279  1.052716  -1.794276  2.533617  -1.599
Ni  Ni1  1  0.99999976  0.50000587  0.49999568  1  1.087011  -1.801283  2.078567  -1.575  1.100132  -1.836845  2.487426  -1.664  1.163606  -1.88228  2.422977  -1.736  0.724349  1.052817  -1.794276  2.533489  -1.599
H  H2  1  0.65219735  0.93051333  0.96389056  1  0.410955  0.000115  0.892144  0.0  0.381504  -0.000367  0.958994  -0.001  0.392523  -0.000217  0.943135  0.0  0.290698  0.37358  -0.000505  0.970307  -0.001
H  H3  1  0.34780729  0.56948405  0.46388922  1  0.411034  0.000115  0.892075  0.0  0.38161  -0.000368  0.958838  -0.001  0.39263  -0.000217  0.942978  0.0  0.290759  0.373694  -0.000505  0.970143  -0.001
H  H4  1  0.34779392  0.06948132  0.03610951  1  0.410999  0.000115  0.892057  0.0  0.381546  -0.000367  0.958923  -0.001  0.392565  -0.000217  0.943064  0.0  0.290717  0.373626  -0.000505  0.970232  -0.001
H  H5  1  0.65219926  0.43051657  0.53611162  1  0.410963  0.000115  0.89206  0.0  0.381531  -0.000368  0.958935  -0.001  0.392554  -0.000217  0.943073  0.0  0.290703  0.373613  -0.000505  0.970244  -0.001
H  H6  1  0.67052626  0.05082700  0.05732193  1  0.414031  -0.000206  0.893287  -0.001  0.382929  -0.000625  0.958229  -0.001  0.394641  -0.000461  0.941567  -0.001  0.28609  0.374459  -0.000762  0.970178  -0.002
H  H7  1  0.32946528  0.44916912  0.55731694  1  0.413952  -0.000205  0.893373  -0.001  0.382866  -0.000625  0.958307  -0.001  0.394579  -0.000461  0.941644  -0.001  0.286062  0.374404  -0.000762  0.97025  -0.002
H  H8  1  0.32947209  0.94917120  0.94267891  1  0.414002  -0.000205  0.893313  -0.001  0.38289  -0.000625  0.958281  -0.001  0.394601  -0.000461  0.941619  -0.001  0.286071  0.374419  -0.000762  0.970231  -0.002
H  H9  1  0.67052802  0.55083013  0.44268158  1  0.413965  -0.000206  0.893359  -0.001  0.382854  -0.000625  0.958323  -0.001  0.394568  -0.000461  0.941659  -0.001  0.286064  0.374395  -0.000763  0.970264  -0.002
H  H10  1  0.27199165  0.86541188  0.56353290  1  0.095613  5.9e-05  0.942245  0.0  0.103929  2.5e-05  1.006353  0.0  0.106344  3.6e-05  1.003767  0.0  0.125071  0.102214  2.2e-05  1.008121  0.0
H  H11  1  0.72802426  0.63458457  0.06353449  1  0.095505  5.7e-05  0.942311  0.0  0.103854  2.5e-05  1.006409  0.0  0.106267  3.6e-05  1.003826  0.0  0.125054  0.102138  2.2e-05  1.008174  0.0
H  H12  1  0.72801451  0.13459443  0.43647259  1  0.095561  5.8e-05  0.942177  0.0  0.10387  2.5e-05  1.006322  0.0  0.106284  3.5e-05  1.003735  0.0  0.125007  0.102155  2.2e-05  1.008088  0.0
H  H13  1  0.27197393  0.36540451  0.93646713  1  0.09548  6e-05  0.942417  0.0  0.103869  2.5e-05  1.006453  0.0  0.106283  3.6e-05  1.00387  0.0  0.125052  0.102152  2.2e-05  1.00822  0.0
H  H14  1  0.23634610  0.89865258  0.75464318  1  0.126947  0.000237  0.964945  0.0  0.137899  0.000162  1.022285  0.0  0.1406  0.000145  1.023042  0.0  0.111142  0.136008  0.000183  1.022083  0.0
H  H15  1  0.76366245  0.60134969  0.25465137  1  0.127163  0.000236  0.96464  0.0  0.138024  0.000161  1.022086  0.0  0.140719  0.000146  1.022846  0.0  0.111172  0.136132  0.000183  1.021885  0.0
H  H16  1  0.76365449  0.10134338  0.24536231  1  0.126896  0.000238  0.965  0.0  0.137836  0.000162  1.022347  0.0  0.140541  0.000145  1.023105  0.0  0.111085  0.135945  0.000183  1.022147  0.0
H  H17  1  0.23634094  0.39864746  0.74535412  1  0.126991  0.000235  0.964833  0.0  0.137956  0.000162  1.022163  0.0  0.140657  0.000145  1.022909  0.0  0.11113  0.136066  0.000183  1.021967  0.0
H  H18  1  0.74913164  0.76338534  0.79604852  1  0.120615  0.000249  0.972431  0.0  0.129817  0.000154  1.032767  0.0  0.132305  0.000142  1.033607  0.0  0.107105  0.128036  0.000171  1.032622  0.0
H  H19  1  0.25087158  0.73661679  0.29604510  1  0.120615  0.000251  0.972489  0.0  0.129848  0.000154  1.032752  0.0  0.132334  0.000141  1.033591  0.0  0.107117  0.128069  0.000171  1.032606  0.0
H  H20  1  0.25087847  0.23661307  0.20395620  1  0.120622  0.000252  0.972565  0.0  0.12986  0.000154  1.032814  0.0  0.132346  0.000142  1.033654  0.0  0.107108  0.128081  0.000171  1.032666  0.0
H  H21  1  0.74912549  0.26337341  0.70395885  1  0.120639  0.000253  0.972538  0.0  0.129873  0.000154  1.03281  0.0  0.13236  0.000141  1.033651  0.0  0.107154  0.128093  0.000171  1.032664  0.0
H  H22  1  0.76894652  0.74179411  0.60211957  1  0.098829  0.000143  0.954864  0.0  0.10545  8.9e-05  1.022774  0.0  0.107988  9.1e-05  1.019998  0.0  0.125643  0.103612  9.4e-05  1.024667  0.0
H  H23  1  0.23106426  0.75820343  0.10211511  1  0.098897  0.000143  0.954828  0.0  0.105507  8.9e-05  1.022717  0.0  0.108038  9.1e-05  1.01995  0.0  0.125645  0.10366  9.4e-05  1.024615  0.0
H  H24  1  0.23106001  0.25821449  0.39788359  1  0.098891  0.000141  0.954841  0.0  0.105516  8.9e-05  1.022718  0.0  0.108036  9e-05  1.019966  0.0  0.12565  0.103698  9.4e-05  1.02459  0.0
H  H25  1  0.76894289  0.24178467  0.89788883  1  0.098986  0.000143  0.954728  0.0  0.105489  8.9e-05  1.022728  0.0  0.108011  9.1e-05  1.019971  0.0  0.125659  0.103656  9.5e-05  1.024612  0.0
H  H26  1  0.52812208  0.78195908  0.50053816  1  0.300466  -4e-06  0.919806  0.0  0.278112  -1.5e-05  0.983462  0.0  0.287039  -9e-06  0.976674  0.0  0.314284  0.271891  -2e-05  0.988088  0.0
H  H27  1  0.47189057  0.71803227  0.00053877  1  0.300448  -4e-06  0.919842  0.0  0.278125  -1.6e-05  0.983444  0.0  0.287052  -9e-06  0.976658  0.0  0.314331  0.271904  -2e-05  0.988068  0.0
H  H28  1  0.47188557  0.21804840  0.49946268  1  0.300427  -4e-06  0.919935  0.0  0.278164  -1.6e-05  0.983469  0.0  0.287097  -9e-06  0.976683  0.0  0.314315  0.271945  -2e-05  0.988093  0.0
H  H29  1  0.52811155  0.28195688  0.99946517  1  0.300388  -4e-06  0.9199  0.0  0.27808  -1.6e-05  0.983476  0.0  0.287005  -9e-06  0.976686  0.0  0.314269  0.271856  -2e-05  0.988101  0.0
C  C30  1  0.99887187  0.82251377  0.40235972  1  0.49695  0.006029  3.983044  -0.002  0.468033  -0.001417  4.27323  -0.008  0.496857  -0.000261  4.280243  -0.006  0.306377  0.447642  -0.002297  4.268873  -0.009
C  C31  1  0.00113893  0.67750484  0.90235674  1  0.496969  0.006034  3.982513  -0.002  0.46806  -0.001418  4.272734  -0.008  0.49688  -0.000259  4.279745  -0.006  0.306401  0.447671  -0.002297  4.268367  -0.009
C  C32  1  0.00112680  0.17750265  0.59764035  1  0.497301  0.005985  3.982483  -0.002  0.4684  -0.001415  4.272634  -0.008  0.497221  -0.000258  4.27964  -0.006  0.306566  0.448009  -0.002297  4.268284  -0.009
C  C33  1  0.99885231  0.32249779  0.09763945  1  0.497081  0.006014  3.98253  -0.002  0.468205  -0.001415  4.272732  -0.008  0.497026  -0.000259  4.279738  -0.006  0.306416  0.447819  -0.002296  4.268369  -0.009
C  C34  1  0.00478243  0.93987647  0.24368504  1  0.489947  0.01789  3.988673  0.006  0.462561  0.003859  4.278563  -0.003  0.489818  0.005007  4.289168  -0.001  0.306809  0.443126  0.003087  4.271527  -0.004
C  C35  1  0.99522017  0.56014537  0.74368785  1  0.489944  0.017886  3.988709  0.006  0.462584  0.003861  4.278562  -0.003  0.489839  0.005009  4.28917  -0.001  0.30675  0.443164  0.003086  4.271538  -0.004
C  C36  1  0.99520955  0.06013073  0.75630883  1  0.490231  0.017898  3.988685  0.006  0.462873  0.003861  4.278506  -0.003  0.49013  0.00501  4.289101  -0.001  0.306863  0.443437  0.003088  4.271475  -0.004
C  C37  1  0.00477513  0.43987441  0.25630524  1  0.490174  0.017863  3.988478  0.006  0.462853  0.003863  4.278304  -0.003  0.490107  0.005009  4.288902  -0.001  0.30693  0.44344  0.003088  4.271286  -0.004
C  C38  1  0.37520792  0.85024869  0.61856156  1  0.165482  0.000255  3.675616  0.0  0.12144  2.1e-05  3.936187  0.0  0.133851  4.1e-05  3.950617  0.0  0.053318  0.113352  1.5e-05  3.926095  0.0
C  C39  1  0.62479209  0.64975502  0.11855833  1  0.165736  0.000284  3.675535  0.0  0.121645  1.9e-05  3.936104  0.0  0.13406  4.1e-05  3.950528  0.0  0.053451  0.113561  1.5e-05  3.926008  0.0
C  C40  1  0.62478609  0.14976310  0.38145091  1  0.165727  0.000284  3.675583  0.0  0.121638  1.9e-05  3.936192  0.0  0.134055  4.2e-05  3.950621  0.0  0.053473  0.113553  1.5e-05  3.9261  0.0
C  C41  1  0.37519597  0.35025210  0.88143786  1  0.16581  0.000246  3.675391  0.0  0.121671  2.1e-05  3.935984  0.0  0.13408  4e-05  3.950417  0.0  0.053433  0.113586  1.5e-05  3.925883  0.0
C  C42  1  0.35577379  0.86473990  0.72354886  1  -0.255362  -0.000251  3.690019  0.0  -0.273164  9e-06  3.947202  0.0  -0.287456  5.7e-05  3.967808  0.0  -0.102319  -0.264282  -7.2e-05  3.933912  0.0
C  C43  1  0.64422994  0.63526431  0.22355046  1  -0.2557  -0.000263  3.689831  0.0  -0.273407  1e-05  3.947064  0.0  -0.287687  5.5e-05  3.967675  0.0  -0.102396  -0.264524  -7.2e-05  3.933774  0.0
C  C44  1  0.64421957  0.13524340  0.27646128  1  -0.255465  -0.000267  3.690256  0.0  -0.273209  1e-05  3.947366  0.0  -0.287515  5.6e-05  3.967983  0.0  -0.102295  -0.26432  -7.2e-05  3.934071  0.0
C  C45  1  0.35577287  0.36473738  0.77644960  1  -0.255457  -0.000246  3.689855  0.0  -0.273275  8e-06  3.94693  0.0  -0.287556  5.6e-05  3.967531  0.0  -0.10231  -0.264399  -7.2e-05  3.933648  0.0
C  C46  1  0.48960362  0.83194416  0.79275511  1  0.435423  0.000363  3.86804  0.0  0.413408  -7.5e-05  4.135089  0.0  0.436258  -3e-05  4.144037  0.0  0.108967  0.398667  -0.000141  4.127993  0.0
C  C47  1  0.51040837  0.66806393  0.29275324  1  0.435465  0.000375  3.867976  0.0  0.413423  -7.6e-05  4.135028  0.0  0.436241  -3e-05  4.144031  0.0  0.108971  0.398687  -0.000141  4.127933  0.0
C  C48  1  0.51042456  0.16806141  0.20724650  1  0.43542  0.000381  3.868086  0.0  0.413433  -7.6e-05  4.135047  0.0  0.436283  -3e-05  4.143997  0.0  0.108951  0.398692  -0.000141  4.127952  0.0
C  C49  1  0.48960550  0.33192544  0.70724682  1  0.435287  0.000366  3.868074  0.0  0.413454  -7.4e-05  4.134886  0.0  0.436295  -2.9e-05  4.143855  0.0  0.108843  0.398715  -0.000141  4.127793  0.0
C  C50  1  0.64250428  0.78759432  0.74651747  1  -0.258632  -0.000266  3.70121  0.0  -0.27435  -0.0  3.95722  0.0  -0.288869  5.1e-05  3.978597  0.0  -0.104766  -0.265256  -8.5e-05  3.94349  0.0
C  C51  1  0.35750081  0.71240242  0.24651897  1  -0.258699  -0.000274  3.701159  0.0  -0.274404  0.0  3.957159  0.0  -0.288908  5.1e-05  3.978539  0.0  -0.104799  -0.265318  -8.5e-05  3.943431  0.0
C  C52  1  0.35749747  0.21239254  0.25348337  1  -0.258698  -0.000289  3.701292  0.0  -0.274423  1e-06  3.957241  0.0  -0.288929  5e-05  3.978602  0.0  -0.104732  -0.265336  -8.5e-05  3.943518  0.0
C  C53  1  0.64250057  0.28758216  0.75348730  1  -0.258621  -0.000281  3.701579  0.0  -0.274385  -1e-06  3.957473  0.0  -0.288895  5.1e-05  3.97884  0.0  -0.104754  -0.265296  -8.5e-05  3.943749  0.0
C  C54  1  0.65607212  0.77728284  0.64079061  1  0.151173  0.000333  3.673818  0.0  0.109537  3.2e-05  3.928684  0.0  0.1215  6.3e-05  3.944083  0.0  0.050202  0.101742  1.3e-05  3.918089  0.0
C  C55  1  0.34393055  0.72271346  0.14079276  1  0.151197  0.000339  3.673681  0.0  0.109575  3.3e-05  3.928575  0.0  0.121544  6.5e-05  3.94397  0.0  0.050235  0.101788  1.3e-05  3.917974  0.0
C  C56  1  0.34392453  0.22272103  0.35920326  1  0.151165  0.00038  3.673723  0.0  0.109508  3.2e-05  3.928646  0.0  0.12148  6.5e-05  3.944052  0.0  0.050173  0.101709  1.3e-05  3.918046  0.0
C  C57  1  0.65607041  0.27728479  0.85921894  1  0.1511  0.000352  3.673852  0.0  0.109529  3.3e-05  3.928793  0.0  0.12151  6.4e-05  3.944193  0.0  0.050171  0.101727  1.3e-05  3.918186  0.0
N  N58  1  0.02529417  0.95810083  0.15387114  1  -0.577478  -0.042658  2.935146  -0.067  -0.563785  -0.028869  3.233121  -0.045  -0.589748  -0.023566  3.235895  -0.038  -0.376485  -0.545511  -0.033749  3.231529  -0.05
N  N59  1  0.97471214  0.54189401  0.65387497  1  -0.577483  -0.042656  2.934965  -0.067  -0.563794  -0.028867  3.232927  -0.045  -0.589761  -0.023565  3.235704  -0.038  -0.376435  -0.545529  -0.033749  3.231349  -0.05
N  N60  1  0.97470475  0.04189282  0.84612040  1  -0.577696  -0.042657  2.935129  -0.067  -0.563995  -0.028864  3.233048  -0.045  -0.589953  -0.023563  3.235809  -0.038  -0.376533  -0.545726  -0.033744  3.231464  -0.05
N  N61  1  0.02528150  0.45811549  0.34611425  1  -0.577679  -0.042637  2.934898  -0.067  -0.564003  -0.028867  3.232844  -0.045  -0.589963  -0.023564  3.235606  -0.038  -0.376597  -0.545744  -0.033747  3.231275  -0.05
N  N62  1  0.97819578  0.93560717  0.34300176  1  -0.456707  -0.003542  3.277863  -0.008  -0.411837  -0.000328  3.540091  -0.003  -0.436537  0.000756  3.543286  -0.001  -0.311185  -0.394164  -0.001217  3.537331  -0.004
N  N63  1  0.02180259  0.56440607  0.84300408  1  -0.456714  -0.003533  3.277819  -0.008  -0.411857  -0.000332  3.540054  -0.003  -0.436555  0.000752  3.54325  -0.001  -0.311164  -0.3942  -0.001215  3.5373  -0.004
N  N64  1  0.02180066  0.06440352  0.65698978  1  -0.457057  -0.003535  3.277975  -0.008  -0.412203  -0.000331  3.540213  -0.003  -0.436903  0.000751  3.5434  -0.001  -0.311331  -0.39453  -0.001216  3.537458  -0.004
N  N65  1  0.97818100  0.43559756  0.15698669  1  -0.456815  -0.003541  3.277796  -0.008  -0.412022  -0.00033  3.540076  -0.003  -0.436721  0.000754  3.543265  -0.001  -0.311215  -0.394376  -0.001216  3.537331  -0.004
N  N66  1  0.01736554  0.72691577  0.46328286  1  -0.584966  -0.035378  2.901051  -0.056  -0.571973  -0.024788  3.197806  -0.038  -0.596806  -0.019111  3.197059  -0.032  -0.381235  -0.555014  -0.030291  3.199066  -0.045
N  N67  1  0.98264503  0.77309427  0.96328452  1  -0.584977  -0.035385  2.900702  -0.056  -0.571996  -0.024787  3.197478  -0.038  -0.596822  -0.019112  3.196727  -0.032  -0.381262  -0.555033  -0.030293  3.198721  -0.045
N  N68  1  0.98263834  0.27310076  0.53671256  1  -0.585168  -0.035357  2.900642  -0.056  -0.57219  -0.024791  3.197408  -0.038  -0.597022  -0.019113  3.196654  -0.032  -0.381305  -0.555235  -0.030294  3.198677  -0.045
N  N69  1  0.01736264  0.22690523  0.03671477  1  -0.585075  -0.035374  2.900669  -0.056  -0.572099  -0.02479  3.197412  -0.038  -0.596926  -0.019112  3.196659  -0.032  -0.381255  -0.555138  -0.030293  3.198657  -0.045
N  N70  1  0.52423782  0.80927489  0.57861768  1  -0.260143  -0.000449  3.477644  -0.001  -0.187002  -0.000277  3.704313  0.0  -0.204953  -0.000181  3.717922  0.0  -0.37097  -0.174954  -0.000412  3.694934  0.0
N  N71  1  0.47577088  0.69072556  0.07861709  1  -0.260223  -0.000453  3.477752  -0.001  -0.187107  -0.000277  3.704465  0.0  -0.205054  -0.000181  3.718065  0.0  -0.371083  -0.175058  -0.000412  3.695082  0.0
N  N72  1  0.47576314  0.19072335  0.42138626  1  -0.260263  -0.000457  3.477736  -0.001  -0.187157  -0.000277  3.70438  0.0  -0.205112  -0.000181  3.717981  0.0  -0.371082  -0.175127  -0.000412  3.695031  0.0
N  N73  1  0.52421650  0.30926105  0.92138298  1  -0.260295  -0.00045  3.47759  -0.001  -0.187155  -0.000277  3.704229  0.0  -0.205101  -0.00018  3.717831  0.0  -0.371007  -0.175099  -0.000412  3.694833  0.0
O  O74  1  0.72992860  0.97221810  0.02210064  1  -0.828147  -0.039823  2.004876  -0.07  -0.806198  -0.027927  2.228526  -0.049  -0.8355  -0.020689  2.196022  -0.039  -0.58094  -0.783484  -0.03492  2.25108  -0.059
O  O75  1  0.27006613  0.52778371  0.52209636  1  -0.828141  -0.03982  2.004884  -0.07  -0.806254  -0.027925  2.228584  -0.049  -0.835542  -0.020688  2.196037  -0.039  -0.580966  -0.783538  -0.034918  2.251108  -0.059
O  O76  1  0.27007048  0.02778467  0.97789632  1  -0.828099  -0.039823  2.004793  -0.07  -0.806158  -0.027927  2.228487  -0.049  -0.835462  -0.02069  2.195988  -0.039  -0.580917  -0.783445  -0.034921  2.251035  -0.059
O  O77  1  0.72993630  0.47222368  0.47789982  1  -0.828073  -0.03982  2.00485  -0.07  -0.806149  -0.027924  2.22859  -0.049  -0.835424  -0.020688  2.19602  -0.039  -0.580904  -0.783446  -0.034918  2.251108  -0.059
O  O78  1  0.47247939  0.84153438  0.89260447  1  -0.628439  -0.002472  2.040724  -0.004  -0.556305  -0.001245  2.247049  -0.002  -0.581598  -0.000729  2.239369  -0.001  -0.319974  -0.537997  -0.001978  2.250898  -0.003
O  O79  1  0.52751959  0.65846721  0.39260272  1  -0.628458  -0.002474  2.040628  -0.004  -0.556302  -0.001246  2.246941  -0.002  -0.581593  -0.00073  2.239278  -0.001  -0.31998  -0.538002  -0.001979  2.250796  -0.003
O  O80  1  0.52752236  0.15845249  0.10739714  1  -0.628401  -0.002472  2.040809  -0.004  -0.556293  -0.001245  2.247108  -0.002  -0.581589  -0.000729  2.239433  -0.001  -0.319957  -0.537987  -0.001978  2.250958  -0.003
O  O81  1  0.47247371  0.34153203  0.60739734  1  -0.628296  -0.002472  2.040543  -0.004  -0.556358  -0.001246  2.246919  -0.002  -0.581666  -0.000731  2.239259  -0.001  -0.319931  -0.538055  -0.001979  2.250772  -0.003
