# generated using pymatgen
data_CuH28C16(N3O2)2
_symmetry_space_group_name_H-M   'P 1'
_cell_length_a   6.86126615
_cell_length_b   17.13546720
_cell_length_c   17.13294552
_cell_angle_alpha   120.00487367
_cell_angle_beta   90.00672085
_cell_angle_gamma   89.99712707
_symmetry_Int_Tables_number   1
_chemical_formula_structural   CuH28C16(N3O2)2
_chemical_formula_sum   'Cu3 H84 C48 N18 O12'
_cell_volume   1744.38180625
_cell_formula_units_Z   3
loop_
 _symmetry_equiv_pos_site_id
 _symmetry_equiv_pos_as_xyz
  1  'x, y, z'
loop_
 _atom_site_type_symbol
 _atom_site_label
 _atom_site_symmetry_multiplicity
 _atom_site_fract_x
 _atom_site_fract_y
 _atom_site_fract_z
 _atom_site_occupancy
 _atom_site_pbe_bader_charge
 _atom_site_pbe_bader_spin_density
 _atom_site_pbe_cm5_charge
 _atom_site_pbe_ddec_charge
 _atom_site_pbe_ddec_spin_density
 _atom_site_pbe_ddec_sum_bond_order
 _atom_site_pbe_magmom
Cu  Cu0  1  0.49999148  0.50000269  0.00000505  1  0.948649  -0.509561  0.749189  0.609719  -0.72236  2.21778  -0.509
Cu  Cu1  1  0.49999355  0.49999762  0.49999545  1  0.951693  0.510423  0.74923  0.609838  0.700593  2.21766  0.51
Cu  Cu2  1  0.50001620  0.00000493  0.50000174  1  0.948477  0.510418  0.749209  0.609788  0.700579  2.217504  0.51
H  H3  1  0.17168869  0.47568899  0.93627299  1  0.48203  0.000517  0.298964  0.267915  -0.000147  0.951343  0.0
H  H4  1  0.17166501  0.46060745  0.52431754  1  0.472007  -0.000493  0.298967  0.268043  0.000105  0.951251  0.0
H  H5  1  0.17167166  0.06367288  0.53937723  1  0.46489  -0.000507  0.29889  0.268035  0.000102  0.951088  0.0
H  H6  1  0.82830715  0.52431556  0.06373195  1  0.482087  0.000517  0.298966  0.267863  -0.000148  0.951473  0.0
H  H7  1  0.82833229  0.53938335  0.47568713  1  0.472061  -0.000495  0.298928  0.268073  0.000104  0.951122  0.0
H  H8  1  0.82834313  0.93631570  0.46061916  1  0.464976  -0.000508  0.298848  0.267921  0.000102  0.951191  0.0
H  H9  1  0.61858890  0.34644633  0.95237140  1  0.490871  6.9e-05  0.286668  0.255211  -0.000476  1.005864  0.0
H  H10  1  0.61865286  0.60594066  0.65358039  1  0.493093  -7e-05  0.286721  0.255257  0.000428  1.005745  0.0
H  H11  1  0.61855072  0.04760967  0.39403288  1  0.492978  -8.6e-05  0.286814  0.255418  0.000442  1.005858  0.0
H  H12  1  0.38139383  0.65355638  0.04763304  1  0.490811  7e-05  0.286684  0.255238  -0.000476  1.005766  0.0
H  H13  1  0.38136193  0.39405191  0.34640851  1  0.493147  -7.1e-05  0.28672  0.255262  0.000428  1.00579  0.0
H  H14  1  0.38144950  0.95239330  0.60596779  1  0.492982  -8.5e-05  0.286782  0.255374  0.000443  1.005901  0.0
H  H15  1  0.16782061  0.69421116  0.91998494  1  0.040687  -0.0002  0.098512  0.106068  -0.000109  0.988225  0.0
H  H16  1  0.16775021  0.22578609  0.30574917  1  0.039459  0.000396  0.098579  0.10634  0.000215  0.988017  0.0
H  H17  1  0.16784298  0.08004833  0.77425977  1  0.039639  0.000213  0.098552  0.106214  0.00011  0.988181  0.0
H  H18  1  0.83217815  0.30579025  0.08001146  1  0.040749  -0.0002  0.098478  0.106041  -0.000109  0.988189  0.0
H  H19  1  0.83225875  0.77422553  0.69424869  1  0.03962  0.000396  0.098592  0.106392  0.000215  0.988082  0.0
H  H20  1  0.83215287  0.91995689  0.22574449  1  0.039626  0.000213  0.098538  0.106161  0.00011  0.988147  0.0
H  H21  1  0.03482554  0.59421215  0.85009783  1  0.078694  -7.5e-05  0.099862  0.115964  -3e-05  1.022408  0.0
H  H22  1  0.03477969  0.25595126  0.40576191  1  0.06261  0.00011  0.099805  0.115992  6.2e-05  1.022565  0.0
H  H23  1  0.03481078  0.14986841  0.74408159  1  0.052867  7.5e-05  0.099915  0.116118  2.7e-05  1.022421  0.0
H  H24  1  0.96518051  0.40578867  0.14989799  1  0.078717  -7.5e-05  0.099885  0.115987  -3e-05  1.022447  0.0
H  H25  1  0.96521907  0.74406463  0.59423752  1  0.062233  0.00011  0.099826  0.116046  6.2e-05  1.022504  0.0
H  H26  1  0.96518943  0.85013724  0.25592108  1  0.052971  7.5e-05  0.099912  0.116051  2.7e-05  1.022455  0.0
H  H27  1  0.09227665  0.62456745  0.96414966  1  0.056282  4.4e-05  0.09052  0.101387  3.8e-05  1.037797  0.0
H  H28  1  0.09227411  0.33960690  0.37539779  1  0.057701  -4.5e-05  0.090561  0.10152  -5.1e-05  1.037785  0.0
H  H29  1  0.09233050  0.03582781  0.66041332  1  0.051634  -4.4e-05  0.090571  0.101466  -4e-05  1.037829  0.0
H  H30  1  0.90771191  0.37543497  0.03584573  1  0.05639  4.4e-05  0.090517  0.101388  3.8e-05  1.037794  0.0
H  H31  1  0.90775380  0.66041148  0.62460615  1  0.057767  -4.5e-05  0.090634  0.101619  -5.1e-05  1.037729  0.0
H  H32  1  0.90766389  0.96417842  0.33958994  1  0.051497  -4.4e-05  0.090586  0.101501  -4e-05  1.037811  0.0
H  H33  1  0.19802677  0.45280592  0.78418946  1  0.040158  -0.007921  0.110457  0.068054  -0.00437  1.005831  -0.005
H  H34  1  0.19803446  0.33144515  0.54719433  1  0.03608  0.008127  0.11036  0.067783  0.004361  1.005647  0.005
H  H35  1  0.19794226  0.21575174  0.66857140  1  0.035484  0.007997  0.110343  0.067978  0.004264  1.005915  0.005
H  H36  1  0.80198365  0.54719212  0.21581031  1  0.040059  -0.00792  0.110423  0.068019  -0.00437  1.005846  -0.005
H  H37  1  0.80198033  0.66855022  0.45280344  1  0.035972  0.008126  0.110341  0.067784  0.00436  1.00571  0.005
H  H38  1  0.80205067  0.78424589  0.33142527  1  0.035455  0.007997  0.110332  0.067908  0.004265  1.005944  0.005
H  H39  1  0.45638614  0.44881952  0.79519886  1  0.095303  -0.001107  0.11326  0.068214  -0.000484  1.011537  -0.001
H  H40  1  0.45639019  0.34640907  0.55117515  1  0.066544  0.001124  0.11327  0.068097  0.000457  1.011693  0.001
H  H41  1  0.45629403  0.20479154  0.65360008  1  0.071647  0.001117  0.113257  0.068283  0.000462  1.01161  0.001
H  H42  1  0.54361991  0.55118325  0.20480902  1  0.095199  -0.001107  0.113247  0.068187  -0.000483  1.011477  -0.001
H  H43  1  0.54362606  0.65358839  0.44882404  1  0.066641  0.001124  0.113273  0.068125  0.000457  1.011803  0.001
H  H44  1  0.54369890  0.79521162  0.34639807  1  0.071465  0.001117  0.113224  0.068223  0.000462  1.011636  0.001
H  H45  1  0.16876430  0.31957838  0.82030659  1  0.067155  -0.004303  0.103678  0.084345  -0.002377  1.016437  -0.003
H  H46  1  0.16879001  0.50080494  0.68043721  1  0.069983  0.004296  0.103583  0.084225  0.002303  1.01645  0.003
H  H47  1  0.16859076  0.17954963  0.49915501  1  0.065073  0.004745  0.103818  0.084474  0.002633  1.016106  0.003
H  H48  1  0.83122718  0.68042307  0.17969794  1  0.06718  -0.004304  0.10369  0.084358  -0.002377  1.016388  -0.003
H  H49  1  0.83123789  0.49919200  0.31956483  1  0.069993  0.004296  0.103578  0.084201  0.002304  1.016387  0.003
H  H50  1  0.83139488  0.82044749  0.50084452  1  0.065087  0.004744  0.103797  0.084465  0.002633  1.016033  0.003
H  H51  1  0.42711788  0.32423396  0.81481643  1  0.08292  -0.000411  0.107712  0.085802  -9.9e-05  1.001199  0.0
H  H52  1  0.42714319  0.49062793  0.67579136  1  0.068939  0.000411  0.107676  0.085898  9.1e-05  1.00101  0.0
H  H53  1  0.42693046  0.18514863  0.50935939  1  0.061661  0.000429  0.107518  0.085827  9.5e-05  1.000891  0.0
H  H54  1  0.57287943  0.67576839  0.18519304  1  0.083083  -0.000411  0.107687  0.085739  -9.9e-05  1.001176  0.0
H  H55  1  0.57288180  0.50936786  0.32420482  1  0.069278  0.000411  0.107695  0.08593  9.2e-05  1.001078  0.0
H  H56  1  0.57305664  0.81485392  0.49064287  1  0.06157  0.000428  0.107524  0.085818  9.5e-05  1.00106  0.0
H  H57  1  0.33143274  0.25590635  0.90713047  1  0.08486  -0.005291  0.104166  0.084103  -0.003009  0.96926  -0.003
H  H58  1  0.33152337  0.65126947  0.74412858  1  0.028144  0.005404  0.104018  0.083934  0.002918  0.96945  0.003
H  H59  1  0.33132481  0.09277591  0.34868050  1  0.045086  0.005601  0.104236  0.084136  0.003071  0.969123  0.003
H  H60  1  0.66854853  0.74409944  0.09287907  1  0.084767  -0.00529  0.104189  0.084091  -0.003009  0.969244  -0.003
H  H61  1  0.66849288  0.34872657  0.25586852  1  0.02824  0.005402  0.10405  0.083917  0.002917  0.969455  0.003
H  H62  1  0.66867249  0.90722766  0.65132075  1  0.045121  0.005602  0.104248  0.084136  0.003071  0.969111  0.003
H  H63  1  0.19048760  0.35356505  0.97933438  1  0.073041  -0.000297  0.110855  0.095086  -4.4e-05  0.99123  0.0
H  H64  1  0.19055469  0.62582061  0.64646893  1  0.058316  0.000299  0.110862  0.095162  3.6e-05  0.991181  0.0
H  H65  1  0.19046681  0.02056850  0.37414854  1  0.049084  0.00031  0.110691  0.095021  3e-05  0.991199  0.0
H  H66  1  0.80950096  0.64644291  0.02067532  1  0.073036  -0.000297  0.110887  0.095181  -4.4e-05  0.991111  0.0
H  H67  1  0.80944990  0.37417191  0.35352936  1  0.05813  0.000299  0.110881  0.095152  3.6e-05  0.991218  0.0
H  H68  1  0.80953340  0.97943257  0.62584820  1  0.049157  0.000311  0.110684  0.095061  3e-05  0.991173  0.0
H  H69  1  0.63096576  0.58458016  0.88376316  1  0.08262  -0.001433  0.117724  0.077903  -0.000644  1.006437  -0.001
H  H70  1  0.63094381  0.29916829  0.41539324  1  0.077693  0.001431  0.11784  0.078014  0.00061  1.006218  0.001
H  H71  1  0.63096206  0.11628439  0.70085385  1  0.078047  0.001434  0.117679  0.077892  0.00062  1.00674  0.001
H  H72  1  0.36903008  0.41541685  0.11624231  1  0.082321  -0.001433  0.117759  0.077923  -0.000644  1.006495  -0.001
H  H73  1  0.36906369  0.70083370  0.58460375  1  0.078059  0.001431  0.117828  0.078032  0.00061  1.006286  0.001
H  H74  1  0.36902941  0.88371549  0.29914642  1  0.077972  0.001434  0.117655  0.077905  0.00062  1.00664  0.001
H  H75  1  0.50175089  0.68923828  0.93276317  1  0.045763  -0.009532  0.109651  0.062815  -0.005447  0.960756  -0.005
H  H76  1  0.50168088  0.24350507  0.31071933  1  0.043341  0.00965  0.109759  0.062842  0.005336  0.960498  0.005
H  H77  1  0.50178839  0.06731616  0.75654016  1  0.034188  0.009613  0.109698  0.062825  0.005307  0.960764  0.005
H  H78  1  0.49825516  0.31076310  0.06723792  1  0.04574  -0.009531  0.109692  0.062917  -0.005446  0.960723  -0.005
H  H79  1  0.49832517  0.75649131  0.68927743  1  0.043361  0.009647  0.109782  0.062904  0.005334  0.9605  0.005
H  H80  1  0.49821037  0.93268614  0.24346118  1  0.034207  0.009613  0.109703  0.062853  0.005307  0.960764  0.005
H  H81  1  0.17619698  0.50770321  0.20969450  1  0.090138  -6.9e-05  0.098396  0.093058  -6.4e-05  1.075828  0.0
H  H82  1  0.17624215  0.70203316  0.49230434  1  0.08055  6.3e-05  0.098349  0.093062  5.7e-05  1.075639  0.0
H  H83  1  0.17619752  0.79026370  0.29797804  1  0.101297  6.7e-05  0.098421  0.093147  5.9e-05  1.075545  0.0
H  H84  1  0.82380324  0.49230116  0.79029543  1  0.090633  -6.9e-05  0.098394  0.093139  -6.4e-05  1.075692  0.0
H  H85  1  0.82376972  0.29795078  0.50768269  1  0.080506  6.3e-05  0.098375  0.093142  5.7e-05  1.075648  0.0
H  H86  1  0.82379249  0.20974334  0.70203141  1  0.101379  6.7e-05  0.098355  0.0931  5.9e-05  1.075649  0.0
C  C87  1  0.14611674  0.62391005  0.90311855  1  0.215192  -2e-06  -0.145572  -0.26699  1.3e-05  3.937746  0.0
C  C88  1  0.14609751  0.27923942  0.37606161  1  0.22951  9.7e-05  -0.145598  -0.267538  0.000112  3.938525  0.0
C  C89  1  0.14612410  0.09687425  0.72079170  1  0.246163  -0.0  -0.145703  -0.267478  -2.1e-05  3.938146  0.0
C  C90  1  0.85388202  0.37609210  0.09688061  1  0.214444  -2e-06  -0.145534  -0.266948  1.3e-05  3.93767  0.0
C  C91  1  0.85391291  0.72077353  0.62393960  1  0.229619  9.7e-05  -0.145682  -0.267713  0.000112  3.938566  0.0
C  C92  1  0.85387175  0.90313039  0.27921198  1  0.246197  -1e-06  -0.145705  -0.2674  -2.1e-05  3.938075  0.0
C  C93  1  0.32070892  0.47948570  0.83204758  1  0.593639  -0.000129  0.025518  0.05423  -0.000939  3.911168  0.002
C  C94  1  0.32070789  0.35259841  0.52050668  1  0.623858  0.000233  0.025599  0.054644  0.000936  3.910609  -0.002
C  C95  1  0.32065141  0.16792612  0.64741340  1  0.619704  9.5e-05  0.02549  0.054102  0.000835  3.911246  -0.002
C  C96  1  0.67929276  0.52051618  0.16795535  1  0.594243  -0.000128  0.025513  0.054309  -0.000938  3.910962  0.002
C  C97  1  0.67930544  0.64740122  0.47949266  1  0.623752  0.000233  0.025567  0.05456  0.000937  3.910913  -0.002
C  C98  1  0.67934589  0.83207560  0.35258736  1  0.619683  9.6e-05  0.025521  0.054237  0.000836  3.911243  -0.002
C  C99  1  0.30075232  0.35104300  0.86009567  1  0.262881  -0.000925  -0.073075  -0.054688  -0.001318  3.888681  0.001
C  C100  1  0.30078693  0.50909987  0.64897198  1  0.269461  0.000933  -0.07296  -0.054718  0.0012  3.88859  -0.001
C  C101  1  0.30063914  0.13983056  0.49088140  1  0.272633  0.001338  -0.072987  -0.054606  0.001517  3.888119  0.0
C  C102  1  0.69923915  0.64895921  0.13990693  1  0.262373  -0.000925  -0.073112  -0.054792  -0.001319  3.888758  0.001
C  C103  1  0.69923369  0.49089540  0.35102706  1  0.269171  0.000933  -0.072995  -0.054805  0.001199  3.88858  -0.001
C  C104  1  0.69935087  0.86016748  0.50911837  1  0.272633  0.001338  -0.072935  -0.054537  0.001517  3.888134  0.0
C  C105  1  0.31992554  0.32945389  0.93570203  1  0.207159  -0.000954  -0.068359  -0.043514  -0.001381  3.883102  0.001
C  C106  1  0.31998587  0.60628694  0.67057003  1  0.280584  0.000847  -0.068386  -0.043689  0.001265  3.883376  -0.001
C  C107  1  0.31986277  0.06422413  0.39368128  1  0.275083  0.000932  -0.068361  -0.043866  0.001308  3.883317  -0.001
C  C108  1  0.68006156  0.67055017  0.06430106  1  0.207679  -0.000954  -0.068403  -0.043573  -0.001381  3.882871  0.001
C  C109  1  0.68002746  0.39370818  0.32942682  1  0.280418  0.000848  -0.068424  -0.043635  0.001264  3.88337  -0.001
C  C110  1  0.68013453  0.93577676  0.60631797  1  0.27505  0.000931  -0.06842  -0.044003  0.001308  3.883476  -0.001
C  C111  1  0.49917104  0.61975465  0.92143906  1  0.611177  0.000274  0.028306  0.053783  -0.00066  3.930985  0.002
C  C112  1  0.49913794  0.30167394  0.38021254  1  0.620389  -0.000276  0.028233  0.053933  0.000554  3.930278  -0.002
C  C113  1  0.49918811  0.07860975  0.69836050  1  0.636889  -0.000316  0.028418  0.053823  0.000541  3.93138  -0.002
C  C114  1  0.50082335  0.38024505  0.07856373  1  0.611283  0.000275  0.028237  0.053644  -0.000661  3.931214  0.002
C  C115  1  0.50086665  0.69832679  0.61978454  1  0.619981  -0.000275  0.028144  0.053779  0.000554  3.930583  -0.002
C  C116  1  0.50080774  0.92139256  0.30164084  1  0.636816  -0.000316  0.028442  0.053773  0.000542  3.931388  -0.002
C  C117  1  0.18003995  0.62497162  0.14585329  1  1.588067  0.000661  0.180806  0.544376  0.000551  4.285856  0.0
C  C118  1  0.18010215  0.52089797  0.37500179  1  1.566877  -0.000662  0.18105  0.544592  -0.000568  4.28572  0.0
C  C119  1  0.18009446  0.85411698  0.47911463  1  1.567635  -0.000643  0.181199  0.545094  -0.000576  4.28517  0.0
C  C120  1  0.81993549  0.37504382  0.85415243  1  1.588562  0.00066  0.181018  0.544676  0.000551  4.285662  0.0
C  C121  1  0.81992722  0.47908185  0.62497302  1  1.566807  -0.000661  0.181379  0.544634  -0.000568  4.285358  0.0
C  C122  1  0.81985766  0.14587380  0.52089474  1  1.568731  -0.000644  0.181108  0.544737  -0.000577  4.28562  0.0
C  C123  1  0.17508530  0.64669770  0.24311365  1  -0.04167  -0.000112  -0.030912  -0.052103  -0.000117  4.002821  0.0
C  C124  1  0.17513461  0.59643152  0.35329157  1  -0.025351  0.000328  -0.030881  -0.052519  0.000243  4.003183  0.0
C  C125  1  0.17514038  0.75687275  0.40357550  1  -0.027163  0.000366  -0.030953  -0.052533  0.000291  4.002763  0.0
C  C126  1  0.82490034  0.35331197  0.75688967  1  -0.041991  -0.000113  -0.03096  -0.052064  -0.000117  4.00262  0.0
C  C127  1  0.82489767  0.40355751  0.64669852  1  -0.025466  0.000328  -0.030822  -0.052181  0.000244  4.002433  0.0
C  C128  1  0.82485984  0.24312879  0.59642778  1  -0.027134  0.000367  -0.030846  -0.052194  0.000291  4.002687  0.0
C  C129  1  0.17506635  0.57743466  0.26392425  1  -0.089234  -0.000413  -0.087891  -0.124703  -0.00032  3.988325  0.0
C  C130  1  0.17507315  0.68650107  0.42255760  1  -0.089762  0.000258  -0.087864  -0.12453  0.000231  3.987844  0.0
C  C131  1  0.17505173  0.73604205  0.31349154  1  -0.102953  0.000203  -0.088078  -0.12504  0.000161  3.988698  0.0
C  C132  1  0.82494844  0.42256131  0.73606942  1  -0.089445  -0.000413  -0.087956  -0.124981  -0.00032  3.988262  0.0
C  C133  1  0.82494019  0.31348594  0.57743452  1  -0.089754  0.000258  -0.088036  -0.124935  0.000231  3.988121  0.0
C  C134  1  0.82492517  0.26395805  0.68651434  1  -0.103237  0.000202  -0.088025  -0.125072  0.00016  3.98841  0.0
N  N135  1  0.32957380  0.57527444  0.86881489  1  -1.086999  -0.00114  -0.346665  -0.127663  -0.000465  3.60414  -0.001
N  N136  1  0.32955358  0.29355564  0.42470342  1  -1.085244  0.001266  -0.346899  -0.12787  0.0005  3.604057  0.001
N  N137  1  0.32956857  0.13119178  0.70646767  1  -1.088779  0.001151  -0.346719  -0.127602  0.000434  3.604375  0.001
N  N138  1  0.67042204  0.42472651  0.13118780  1  -1.086235  -0.00114  -0.34669  -0.127708  -0.000465  3.604063  -0.001
N  N139  1  0.67045101  0.70644433  0.57529558  1  -1.085167  0.001264  -0.346782  -0.127802  0.000499  3.60408  0.001
N  N140  1  0.67042873  0.86881111  0.29353426  1  -1.088405  0.001152  -0.346725  -0.127593  0.000435  3.604367  0.001
N  N141  1  0.29874482  0.45000054  0.89995432  1  -1.087338  -0.103478  -0.504924  -0.33486  -0.073857  3.493243  -0.088
N  N142  1  0.29874643  0.44998795  0.55000124  1  -1.069222  0.103729  -0.504731  -0.334752  0.071692  3.493253  0.088
N  N143  1  0.29871303  0.09999993  0.55001103  1  -1.061271  0.103687  -0.504691  -0.334791  0.071687  3.493313  0.088
N  N144  1  0.70125103  0.55000376  0.10004969  1  -1.08796  -0.103471  -0.504843  -0.334701  -0.073852  3.493362  -0.088
N  N145  1  0.70126399  0.55000825  0.44999804  1  -1.069167  0.103747  -0.504705  -0.33467  0.071704  3.492979  0.088
N  N146  1  0.70128573  0.89999937  0.44998866  1  -1.061309  0.103684  -0.504654  -0.334671  0.071685  3.493207  0.088
N  N147  1  0.49267095  0.37698798  0.99018557  1  -1.065135  -0.105176  -0.50427  -0.341685  -0.074753  3.497731  -0.089
N  N148  1  0.49272527  0.61321427  0.62303482  1  -1.073086  0.105367  -0.504182  -0.341669  0.072537  3.497171  0.089
N  N149  1  0.49265110  0.00978157  0.38675695  1  -1.071783  0.105475  -0.504534  -0.341862  0.072584  3.497634  0.089
N  N150  1  0.50731615  0.62301482  0.00981761  1  -1.065102  -0.105172  -0.50425  -0.341664  -0.074748  3.497572  -0.089
N  N151  1  0.50727932  0.38678195  0.37695977  1  -1.073137  0.105357  -0.504232  -0.341778  0.072531  3.497454  0.089
N  N152  1  0.50734765  0.99021932  0.61324230  1  -1.071889  0.105491  -0.504456  -0.341727  0.072594  3.497645  0.089
O  O153  1  0.19816166  0.69084470  0.13169035  1  -1.186199  3.3e-05  -0.351603  -0.576825  0.0001  2.115027  0.0
O  O154  1  0.19820240  0.44085826  0.30910654  1  -1.192425  -3e-06  -0.351904  -0.576943  -8.9e-05  2.114647  0.0
O  O155  1  0.19833328  0.86828412  0.55916918  1  -1.185668  2.9e-05  -0.35193  -0.577262  -0.000109  2.113929  0.0
O  O156  1  0.80181815  0.30915910  0.86831182  1  -1.186234  3.3e-05  -0.351799  -0.577198  9.9e-05  2.115022  0.0
O  O157  1  0.80182405  0.55912400  0.69086465  1  -1.192011  -3e-06  -0.352052  -0.577135  -8.9e-05  2.115029  0.0
O  O158  1  0.80168734  0.13170430  0.44084254  1  -1.186591  2.7e-05  -0.351876  -0.577125  -0.00011  2.114841  0.0
O  O159  1  0.16922669  0.54200060  0.08554899  1  -1.21115  0.00046  -0.346258  -0.599833  0.000337  2.186305  -0.001
O  O160  1  0.16927333  0.54356902  0.45797555  1  -1.184835  -0.000436  -0.34636  -0.599957  -0.000368  2.186587  0.001
O  O161  1  0.16919590  0.91440275  0.45644909  1  -1.194497  -0.000409  -0.346367  -0.600075  -0.000352  2.186925  0.001
O  O162  1  0.83076916  0.45800256  0.91444917  1  -1.211368  0.000461  -0.346217  -0.599734  0.000337  2.186449  -0.001
O  O163  1  0.83075604  0.45641079  0.54199926  1  -1.18492  -0.000436  -0.346491  -0.599931  -0.000368  2.186162  0.001
O  O164  1  0.83069938  0.08559213  0.54357718  1  -1.194682  -0.000409  -0.346307  -0.599891  -0.000352  2.186531  0.001
