# generated using pymatgen
data_Mn3H16C16(N5O6)2
_symmetry_space_group_name_H-M   'P 1'
_cell_length_a   12.08289475
_cell_length_b   13.18238385
_cell_length_c   17.05571736
_cell_angle_alpha   89.99942782
_cell_angle_beta   90.00014167
_cell_angle_gamma   89.99974986
_symmetry_Int_Tables_number   1
_chemical_formula_structural   Mn3H16C16(N5O6)2
_chemical_formula_sum   'Mn12 H64 C64 N40 O48'
_cell_volume   2716.65779928
_cell_formula_units_Z   4
loop_
 _symmetry_equiv_pos_site_id
 _symmetry_equiv_pos_as_xyz
  1  'x, y, z'
loop_
 _atom_site_type_symbol
 _atom_site_label
 _atom_site_symmetry_multiplicity
 _atom_site_fract_x
 _atom_site_fract_y
 _atom_site_fract_z
 _atom_site_occupancy
 _atom_site_pbe_bader_charge
 _atom_site_pbe_bader_spin_density
 _atom_site_pbe_cm5_charge
 _atom_site_pbe_ddec_charge
 _atom_site_pbe_ddec_spin_density
 _atom_site_pbe_ddec_sum_bond_order
 _atom_site_pbe_magmom
Mn  Mn0  1  0.79270564  0.25336555  0.79036462  1  1.517373  4.556204  0.606341  0.968483  4.674436  2.355547  4.484
Mn  Mn1  1  0.70731846  0.74661812  0.29036490  1  1.517202  4.556249  0.60628  0.968104  4.674498  2.355768  4.484
Mn  Mn2  1  0.20731397  0.75338530  0.70963849  1  1.517123  4.556236  0.606296  0.968308  4.674512  2.355684  4.484
Mn  Mn3  1  0.29268625  0.24662189  0.20964573  1  1.517368  4.556237  0.606253  0.968152  4.674545  2.355785  4.484
Mn  Mn4  1  0.20730900  0.74661585  0.20965485  1  1.517397  4.556171  0.606266  0.968219  4.674575  2.355928  4.484
Mn  Mn5  1  0.29269867  0.25336935  0.70964226  1  1.5175  4.556231  0.606247  0.968178  4.674527  2.355716  4.484
Mn  Mn6  1  0.79269240  0.24663326  0.29035225  1  1.517594  4.556139  0.606237  0.968139  4.674459  2.355932  4.484
Mn  Mn7  1  0.70731432  0.75337999  0.79034150  1  1.517512  4.556224  0.606237  0.968181  4.674621  2.355718  4.484
Mn  Mn8  1  0.49999905  0.49999487  0.50000211  1  1.484583  4.571876  0.615242  0.94393  4.711593  2.304697  4.481
Mn  Mn9  1  0.00000546  0.50001162  0.99999294  1  1.484946  4.571783  0.615315  0.943935  4.711567  2.304769  4.481
Mn  Mn10  1  0.49999205  0.99998808  0.00001417  1  1.484826  4.571841  0.615292  0.943933  4.711607  2.304647  4.481
Mn  Mn11  1  0.00000167  0.00000512  0.49999539  1  1.48475  4.57179  0.615302  0.943968  4.711532  2.304884  4.48
H  H12  1  0.00832853  0.40820002  0.71175565  1  0.113619  0.000253  0.133174  0.094917  -0.000298  1.007703  0.0
H  H13  1  0.49166756  0.59182004  0.21175061  1  0.11339  0.000254  0.133163  0.094911  -0.000298  1.007692  0.0
H  H14  1  0.99166799  0.90820044  0.78822515  1  0.112835  0.000253  0.133145  0.094847  -0.000298  1.007698  0.0
H  H15  1  0.50833292  0.09180753  0.28824773  1  0.113479  0.000253  0.133138  0.094899  -0.000298  1.007667  0.0
H  H16  1  0.99166625  0.59180337  0.28824271  1  0.113494  0.000254  0.133143  0.09489  -0.000298  1.007759  0.0
H  H17  1  0.50833384  0.40817956  0.78824541  1  0.113331  0.000254  0.133146  0.094841  -0.000298  1.00774  0.0
H  H18  1  0.00833672  0.09181509  0.21177204  1  0.112757  0.000254  0.133174  0.094866  -0.000298  1.00768  0.0
H  H19  1  0.49166434  0.90818828  0.71174301  1  0.113511  0.000253  0.13312  0.094811  -0.000298  1.007665  0.0
H  H20  1  0.66549874  0.45933211  0.70956675  1  0.127017  0.000447  0.146874  0.116575  -0.000257  0.997816  0.0
H  H21  1  0.83449446  0.54065715  0.20957648  1  0.127084  0.000447  0.14686  0.11655  -0.000257  0.99777  0.0
H  H22  1  0.33450168  0.95935259  0.79043534  1  0.126997  0.000447  0.146858  0.11658  -0.000257  0.997741  0.0
H  H23  1  0.16550047  0.04065433  0.29042284  1  0.127012  0.000447  0.146867  0.116543  -0.000257  0.997781  0.0
H  H24  1  0.33449769  0.54065460  0.29042868  1  0.127069  0.000447  0.146901  0.116608  -0.000257  0.997702  0.0
H  H25  1  0.16550363  0.45933942  0.79042423  1  0.127066  0.000447  0.146843  0.116544  -0.000257  0.99777  0.0
H  H26  1  0.66550717  0.04066674  0.20957533  1  0.127176  0.000447  0.146887  0.116558  -0.000257  0.997788  0.0
H  H27  1  0.83449431  0.95935362  0.70957259  1  0.127133  0.000447  0.146876  0.116667  -0.000257  0.997659  0.0
H  H28  1  0.80296015  0.67281136  0.60248700  1  0.127564  0.001216  0.127059  0.129296  0.000369  0.990368  0.0
H  H29  1  0.69701697  0.32721114  0.10246940  1  0.127375  0.001217  0.127058  0.129291  0.000369  0.990446  0.0
H  H30  1  0.19702922  0.17281461  0.89751849  1  0.127403  0.001216  0.127066  0.129294  0.000369  0.990286  0.0
H  H31  1  0.30297246  0.82720382  0.39753122  1  0.127459  0.001217  0.127059  0.129245  0.000369  0.990447  0.0
H  H32  1  0.19702718  0.32719204  0.39752309  1  0.127336  0.001217  0.127074  0.129303  0.000369  0.990297  0.0
H  H33  1  0.30299271  0.67279226  0.89752310  1  0.127351  0.001217  0.127089  0.12929  0.000369  0.990317  0.0
H  H34  1  0.80297798  0.82719637  0.10249453  1  0.127345  0.001216  0.127125  0.129362  0.000369  0.990267  0.0
H  H35  1  0.69701818  0.17280110  0.60246187  1  0.127831  0.001216  0.126974  0.12922  0.000369  0.990476  0.0
H  H36  1  0.74486243  0.57800733  0.53916016  1  0.106112  0.001656  0.122755  0.115803  0.001092  1.004036  0.0
H  H37  1  0.75512937  0.42202205  0.03914780  1  0.105817  0.001655  0.122779  0.115883  0.001091  1.003838  0.0
H  H38  1  0.25511662  0.07799361  0.96084430  1  0.105823  0.001656  0.122742  0.115846  0.001092  1.003908  0.0
H  H39  1  0.24486541  0.92201794  0.46084857  1  0.105957  0.001656  0.122758  0.115869  0.001092  1.003915  0.0
H  H40  1  0.25513731  0.42200593  0.46083996  1  0.106038  0.001655  0.122743  0.115748  0.001092  1.00395  0.0
H  H41  1  0.24486789  0.57798817  0.96083884  1  0.106081  0.001655  0.122741  0.115745  0.001092  1.003898  0.0
H  H42  1  0.74486657  0.92201358  0.03917400  1  0.106098  0.001655  0.122807  0.115726  0.001091  1.003907  0.0
H  H43  1  0.75512854  0.07798546  0.53914628  1  0.105817  0.001656  0.122762  0.115907  0.001092  1.003864  0.0
H  H44  1  0.76559358  0.41041612  0.90482238  1  0.656313  0.001991  0.29481  0.391238  0.000715  0.947409  0.002
H  H45  1  0.73440773  0.58958882  0.40484386  1  0.65673  0.001987  0.294825  0.391266  0.000715  0.947384  0.002
H  H46  1  0.23442363  0.91040614  0.59515782  1  0.656396  0.00199  0.294759  0.391144  0.000715  0.947489  0.002
H  H47  1  0.26558531  0.08958735  0.09516622  1  0.656365  0.001989  0.294763  0.391183  0.000715  0.947508  0.002
H  H48  1  0.23441113  0.58959334  0.09516543  1  0.656447  0.00199  0.294877  0.39135  0.000715  0.947246  0.002
H  H49  1  0.26559532  0.41039333  0.59515978  1  0.656139  0.001991  0.294855  0.391238  0.000714  0.947382  0.002
H  H50  1  0.76558108  0.08960180  0.40482530  1  0.656598  0.001989  0.294789  0.391181  0.000715  0.947462  0.002
H  H51  1  0.73441112  0.91039556  0.90483918  1  0.656269  0.00199  0.294866  0.391297  0.000714  0.947307  0.002
H  H52  1  0.65903321  0.33889659  0.91384475  1  0.609798  0.004269  0.329251  0.405126  0.00252  0.876282  0.003
H  H53  1  0.84097476  0.66109989  0.41385532  1  0.609644  0.004267  0.329204  0.405099  0.002518  0.876147  0.003
H  H54  1  0.34098765  0.83889237  0.58614420  1  0.609466  0.00427  0.329191  0.405153  0.00252  0.876212  0.003
H  H55  1  0.15902705  0.16110807  0.08615128  1  0.609711  0.004266  0.329238  0.405181  0.002517  0.87604  0.003
H  H56  1  0.34097233  0.66111060  0.08615068  1  0.609696  0.004269  0.329271  0.405191  0.00252  0.876156  0.003
H  H57  1  0.15902664  0.33888378  0.58615242  1  0.609706  0.004268  0.329231  0.405229  0.002518  0.875875  0.003
H  H58  1  0.65902037  0.16112089  0.41384595  1  0.609618  0.00427  0.329209  0.405216  0.00252  0.876054  0.003
H  H59  1  0.84097518  0.83888167  0.91384826  1  0.60967  0.004267  0.329195  0.405211  0.002518  0.875948  0.003
H  H60  1  0.47249924  0.68104628  0.39972240  1  0.653156  0.001663  0.288666  0.38563  0.000422  0.955138  0.002
H  H61  1  0.02750327  0.31895088  0.89969475  1  0.653463  0.001662  0.288589  0.38538  0.000423  0.955412  0.002
H  H62  1  0.52749833  0.18104977  0.10029283  1  0.653356  0.001665  0.288653  0.385568  0.000423  0.955159  0.002
H  H63  1  0.97249616  0.81895835  0.60028381  1  0.65345  0.001663  0.288635  0.385544  0.000422  0.955229  0.002
H  H64  1  0.52750216  0.31892373  0.60029355  1  0.653497  0.001664  0.288692  0.38555  0.000422  0.955177  0.002
H  H65  1  0.97249813  0.68106466  0.10028309  1  0.653755  0.001663  0.288684  0.385564  0.000423  0.955183  0.002
H  H66  1  0.47249314  0.81893542  0.89971784  1  0.653751  0.001664  0.288672  0.38557  0.000422  0.955188  0.002
H  H67  1  0.02750193  0.18105870  0.39969990  1  0.65366  0.001665  0.288673  0.385496  0.000423  0.955241  0.002
H  H68  1  0.35616633  0.64402116  0.42934535  1  0.622035  0.00276  0.313853  0.385781  0.001667  0.90652  0.002
H  H69  1  0.14382304  0.35598245  0.92934166  1  0.621968  0.002756  0.313853  0.385769  0.001666  0.906481  0.002
H  H70  1  0.64382397  0.14402076  0.07065375  1  0.622155  0.002758  0.313809  0.385674  0.001668  0.906621  0.002
H  H71  1  0.85616132  0.85597332  0.57065948  1  0.621818  0.00276  0.313806  0.385755  0.001668  0.906613  0.002
H  H72  1  0.64381935  0.35597313  0.57065887  1  0.622026  0.002756  0.313901  0.385719  0.001665  0.906576  0.002
H  H73  1  0.85617339  0.64403460  0.07065084  1  0.622209  0.002756  0.313811  0.385597  0.001665  0.906679  0.002
H  H74  1  0.35617329  0.85597808  0.92935165  1  0.622137  0.002756  0.313798  0.385563  0.001666  0.90677  0.002
H  H75  1  0.14382270  0.14402021  0.42934534  1  0.622023  0.002757  0.313846  0.385689  0.001666  0.906534  0.002
C  C76  1  0.92721255  0.43851144  0.69812399  1  0.981823  0.00578  0.141785  0.13326  0.003768  4.006811  0.004
C  C77  1  0.57278145  0.56150375  0.19812018  1  0.983523  0.005784  0.141804  0.133412  0.003773  4.006679  0.004
C  C78  1  0.07278383  0.93851766  0.80186303  1  0.987769  0.005773  0.142011  0.133469  0.003772  4.006801  0.004
C  C79  1  0.42721752  0.06149518  0.30187898  1  0.982425  0.005786  0.141804  0.133374  0.003774  4.00673  0.004
C  C80  1  0.07278140  0.56148892  0.30187555  1  0.981961  0.005788  0.141819  0.133242  0.003775  4.006938  0.004
C  C81  1  0.42721995  0.43849585  0.80187642  1  0.983823  0.005782  0.141816  0.133431  0.003772  4.006758  0.004
C  C82  1  0.92722253  0.06149788  0.19813944  1  0.988073  0.005774  0.141954  0.133491  0.003774  4.00643  0.004
C  C83  1  0.57277974  0.93850518  0.69811411  1  0.982384  0.005787  0.141983  0.133615  0.003774  4.006359  0.004
C  C84  1  0.75356702  0.46261517  0.69845207  1  1.027874  0.008194  0.165223  0.08653  0.006072  3.916438  0.006
C  C85  1  0.74642698  0.53738182  0.19845346  1  1.027893  0.008202  0.165271  0.086626  0.006079  3.916186  0.006
C  C86  1  0.24643008  0.96262676  0.80154355  1  1.027977  0.008202  0.165342  0.086753  0.006078  3.916314  0.006
C  C87  1  0.25357045  0.03737774  0.30154296  1  1.027997  0.008203  0.165279  0.086725  0.00608  3.916054  0.006
C  C88  1  0.24642776  0.53737761  0.30154453  1  1.027873  0.008205  0.165309  0.086763  0.006081  3.916154  0.006
C  C89  1  0.25357359  0.46261551  0.80154256  1  1.028004  0.0082  0.165272  0.086604  0.006077  3.916356  0.006
C  C90  1  0.75357794  0.03738726  0.19846595  1  1.02724  0.008204  0.165145  0.086521  0.006081  3.916391  0.006
C  C91  1  0.74642599  0.96262793  0.69845072  1  1.027951  0.008206  0.16521  0.086514  0.006082  3.916229  0.006
C  C92  1  0.74939698  0.60582815  0.59969695  1  0.266316  0.002633  -0.033535  -0.182685  0.002261  3.881428  0.001
C  C93  1  0.75059172  0.39418983  0.09968479  1  0.265618  0.002632  -0.033488  -0.182709  0.002259  3.881214  0.001
C  C94  1  0.25059519  0.10582812  0.90030906  1  0.266389  0.002633  -0.033501  -0.182634  0.00226  3.881142  0.001
C  C95  1  0.24939905  0.89418193  0.40031355  1  0.265899  0.002633  -0.033521  -0.182635  0.00226  3.881226  0.001
C  C96  1  0.25059946  0.39416993  0.40030435  1  0.266485  0.002632  -0.033505  -0.182532  0.00226  3.881198  0.001
C  C97  1  0.24941134  0.60582115  0.90030243  1  0.265765  0.002633  -0.033485  -0.18245  0.00226  3.881039  0.001
C  C98  1  0.74940456  0.89417679  0.09971158  1  0.266233  0.002631  -0.033658  -0.182405  0.002259  3.881084  0.001
C  C99  1  0.75059490  0.10582374  0.59968012  1  0.265701  0.002633  -0.033402  -0.182645  0.002259  3.881089  0.001
C  C100  1  0.63628832  0.62808668  0.62987549  1  1.046587  0.021126  0.214365  0.328591  0.017215  4.016935  0.017
C  C101  1  0.86369717  0.37191878  0.12986254  1  1.046434  0.021132  0.214256  0.328285  0.017217  4.017465  0.017
C  C102  1  0.36370291  0.12808203  0.87013151  1  1.046544  0.021122  0.214394  0.328571  0.017211  4.017272  0.017
C  C103  1  0.13629785  0.87191248  0.37013011  1  1.046471  0.021132  0.214377  0.328656  0.017218  4.017019  0.017
C  C104  1  0.36370480  0.37190686  0.37012580  1  1.046662  0.021126  0.214277  0.328382  0.017215  4.017363  0.017
C  C105  1  0.13630837  0.62809524  0.87012292  1  1.046692  0.021132  0.214109  0.328125  0.01722  4.01733  0.017
C  C106  1  0.63630180  0.87191530  0.12989441  1  1.046587  0.021131  0.214132  0.327972  0.01722  4.017112  0.017
C  C107  1  0.86370107  0.12809547  0.62986239  1  1.046196  0.021134  0.214349  0.328485  0.017218  4.0171  0.017
C  C108  1  0.50227491  0.68004520  0.70458150  1  0.445587  0.011544  0.076752  -0.013966  0.008547  4.013861  0.007
C  C109  1  0.99770918  0.31995626  0.20456978  1  0.446033  0.011545  0.076728  -0.014198  0.008548  4.013953  0.007
C  C110  1  0.49771194  0.18004553  0.79543097  1  0.445957  0.011542  0.07675  -0.014089  0.008545  4.014327  0.007
C  C111  1  0.00228608  0.81994615  0.29542679  1  0.445977  0.011548  0.076802  -0.013929  0.008549  4.013575  0.007
C  C112  1  0.49770994  0.31994682  0.29541980  1  0.445634  0.011546  0.076744  -0.01426  0.008548  4.014024  0.007
C  C113  1  0.00229884  0.68005017  0.79541451  1  0.446348  0.011545  0.076642  -0.014556  0.008549  4.013822  0.007
C  C114  1  0.50229608  0.81994952  0.20459964  1  0.446385  0.011551  0.076663  -0.014315  0.008553  4.013621  0.007
C  C115  1  0.99770787  0.18005042  0.70457040  1  0.446345  0.011545  0.076692  -0.014106  0.008548  4.014089  0.007
C  C116  1  0.45788404  0.73375213  0.77387766  1  1.561225  0.015671  0.219786  0.562322  0.015025  4.236105  0.014
C  C117  1  0.04210150  0.26624211  0.27386788  1  1.562265  0.015671  0.219894  0.5628  0.015028  4.235713  0.014
C  C118  1  0.54211579  0.23374179  0.72613439  1  1.56084  0.01567  0.219767  0.562486  0.01502  4.236385  0.014
C  C119  1  0.95790147  0.76622753  0.22613204  1  1.562021  0.015666  0.219756  0.562392  0.015026  4.236216  0.014
C  C120  1  0.54210577  0.26624217  0.22612070  1  1.561974  0.015662  0.219768  0.562452  0.015019  4.236019  0.014
C  C121  1  0.95790404  0.73376888  0.72611642  1  1.562991  0.015657  0.219969  0.562681  0.015022  4.235948  0.014
C  C122  1  0.45790133  0.76622747  0.27389387  1  1.561684  0.015655  0.220035  0.562922  0.015014  4.235777  0.014
C  C123  1  0.04210241  0.23376297  0.77386691  1  1.561631  0.015671  0.219842  0.562565  0.015028  4.236052  0.014
C  C124  1  0.45699192  0.62223444  0.64306976  1  0.417487  0.011982  0.074182  -0.014207  0.008679  3.986337  0.008
C  C125  1  0.04299897  0.37775085  0.14305500  1  0.417553  0.011983  0.074005  -0.014604  0.008678  3.986974  0.008
C  C126  1  0.54300265  0.12224214  0.85694433  1  0.41758  0.011978  0.074059  -0.014498  0.008675  3.986766  0.008
C  C127  1  0.95699932  0.87775432  0.35693760  1  0.417765  0.011982  0.07422  -0.014253  0.008679  3.986734  0.008
C  C128  1  0.54300369  0.37774468  0.35692685  1  0.41779  0.011977  0.074374  -0.014046  0.008673  3.986418  0.008
C  C129  1  0.95700822  0.62226089  0.85692870  1  0.417844  0.011982  0.07425  -0.014183  0.008678  3.986685  0.008
C  C130  1  0.45699626  0.87774380  0.14309449  1  0.416742  0.011983  0.074229  -0.014243  0.008675  3.986359  0.008
C  C131  1  0.04300125  0.12225742  0.64305373  1  0.417824  0.011982  0.07417  -0.014442  0.008678  3.986627  0.008
C  C132  1  0.34521909  0.58281855  0.62396771  1  1.545347  0.017846  0.2238  0.583705  0.016782  4.19881  0.016
C  C133  1  0.15476760  0.41717306  0.12395930  1  1.544612  0.017843  0.223999  0.58419  0.016779  4.199343  0.016
C  C134  1  0.65476904  0.08282328  0.87605138  1  1.545009  0.017848  0.223832  0.583944  0.016781  4.199464  0.016
C  C135  1  0.84522886  0.91717976  0.37602713  1  1.544565  0.017849  0.2238  0.583843  0.016784  4.199  0.016
C  C136  1  0.65476989  0.41717574  0.37603007  1  1.544867  0.017849  0.223854  0.583969  0.016783  4.19894  0.016
C  C137  1  0.84524208  0.58283489  0.87602264  1  1.545507  0.017836  0.223759  0.584038  0.016779  4.199439  0.016
C  C138  1  0.34522988  0.91717253  0.12399096  1  1.545737  0.017853  0.223847  0.584095  0.01679  4.199258  0.016
C  C139  1  0.15476923  0.08282515  0.62396595  1  1.544534  0.017844  0.223932  0.584041  0.016778  4.199078  0.016
N  N140  1  0.80184660  0.52789266  0.64844048  1  -0.782597  0.004586  -0.12784  0.179529  0.002823  3.726868  0.003
N  N141  1  0.69814475  0.47212014  0.14843408  1  -0.781954  0.004588  -0.127924  0.179602  0.002825  3.726636  0.003
N  N142  1  0.19814180  0.02790030  0.85155499  1  -0.782423  0.004589  -0.127804  0.179353  0.002825  3.726829  0.003
N  N143  1  0.30185393  0.97211417  0.35156425  1  -0.782113  0.004589  -0.127872  0.179485  0.002825  3.72678  0.003
N  N144  1  0.19814487  0.47210315  0.35155671  1  -0.782473  0.00459  -0.127867  0.179369  0.002826  3.726936  0.003
N  N145  1  0.30185996  0.52788401  0.85155901  1  -0.782017  0.004588  -0.1279  0.179554  0.002825  3.726713  0.003
N  N146  1  0.80185960  0.97211220  0.14845569  1  -0.781893  0.00459  -0.12761  0.179681  0.002826  3.726888  0.003
N  N147  1  0.69814250  0.02789681  0.64843353  1  -0.782379  0.00459  -0.127781  0.179542  0.002826  3.726938  0.003
N  N148  1  0.91326364  0.51375616  0.64726684  1  -0.685442  0.002727  -0.227299  -0.264886  0.001418  3.074094  0.001
N  N149  1  0.58673101  0.48626804  0.14725660  1  -0.686735  0.002728  -0.227332  -0.265187  0.001418  3.07393  0.001
N  N150  1  0.08672731  0.01375892  0.85272229  1  -0.686299  0.002727  -0.227571  -0.265007  0.001418  3.074308  0.001
N  N151  1  0.41327008  0.98625478  0.35274044  1  -0.686051  0.002728  -0.227337  -0.265076  0.001419  3.074062  0.001
N  N152  1  0.08672866  0.48624345  0.35273153  1  -0.685625  0.002728  -0.227368  -0.264901  0.001419  3.074271  0.001
N  N153  1  0.41327453  0.51373611  0.85273531  1  -0.687218  0.002728  -0.227326  -0.265084  0.001418  3.073977  0.001
N  N154  1  0.91327658  0.98625207  0.14728545  1  -0.686423  0.002728  -0.227607  -0.265207  0.001419  3.074023  0.001
N  N155  1  0.58672718  0.01374710  0.64725440  1  -0.686348  0.002727  -0.227386  -0.265097  0.001418  3.074063  0.001
N  N156  1  0.83107926  0.40411400  0.73113349  1  -1.231122  0.045983  -0.334845  -0.339954  0.032783  3.472704  0.016
N  N157  1  0.66891650  0.59588029  0.23114308  1  -1.231425  0.045994  -0.334804  -0.339912  0.03278  3.472618  0.016
N  N158  1  0.16892307  0.90413315  0.76885144  1  -1.235684  0.046001  -0.334949  -0.340138  0.032784  3.472958  0.016
N  N159  1  0.33108397  0.09587707  0.26885757  1  -1.23125  0.046004  -0.3348  -0.339952  0.03278  3.472442  0.016
N  N160  1  0.16891634  0.59587801  0.26886077  1  -1.231185  0.046005  -0.334896  -0.339997  0.032783  3.472738  0.016
N  N161  1  0.33108408  0.40411476  0.76885822  1  -1.231509  0.045993  -0.334783  -0.339924  0.032783  3.472803  0.016
N  N162  1  0.83108495  0.09588921  0.23115102  1  -1.235426  0.046  -0.334836  -0.339975  0.032781  3.472761  0.016
N  N163  1  0.66891495  0.90412860  0.73113786  1  -1.230934  0.046  -0.334926  -0.34003  0.032777  3.472521  0.016
N  N164  1  0.61518161  0.68158497  0.69531667  1  -1.281315  0.060116  -0.348098  -0.388741  0.041977  3.474386  0.023
N  N165  1  0.88479996  0.31841889  0.19530358  1  -1.280842  0.060123  -0.347934  -0.388364  0.041977  3.474006  0.023
N  N166  1  0.38480606  0.18158411  0.80469051  1  -1.28101  0.060109  -0.34801  -0.388604  0.04197  3.47425  0.023
N  N167  1  0.11519448  0.81840972  0.30469300  1  -1.28088  0.06012  -0.348042  -0.388784  0.041983  3.47411  0.023
N  N168  1  0.38480324  0.31841008  0.30468228  1  -1.281334  0.060114  -0.348078  -0.388595  0.04198  3.47418  0.023
N  N169  1  0.11520557  0.68159058  0.80467837  1  -1.281525  0.060104  -0.347914  -0.388376  0.041984  3.473848  0.023
N  N170  1  0.61520693  0.81841549  0.19533658  1  -1.281567  0.060099  -0.348043  -0.388492  0.041984  3.47382  0.023
N  N171  1  0.88480279  0.18158761  0.69530477  1  -1.281009  0.060114  -0.348024  -0.388592  0.04198  3.474118  0.023
N  N172  1  0.54389824  0.58989444  0.59729645  1  -1.26129  0.052793  -0.362756  -0.392406  0.031872  3.51835  0.007
N  N173  1  0.95608796  0.41010765  0.09728044  1  -1.261492  0.052847  -0.36259  -0.392148  0.031871  3.518346  0.007
N  N174  1  0.45609069  0.08989658  0.90271671  1  -1.261762  0.052839  -0.362662  -0.392259  0.031874  3.518462  0.007
N  N175  1  0.04390522  0.91010357  0.40271016  1  -1.261419  0.052793  -0.36278  -0.39246  0.031871  3.518556  0.007
N  N176  1  0.45609902  0.41009530  0.40270484  1  -1.261378  0.052795  -0.362804  -0.392447  0.031874  3.518224  0.007
N  N177  1  0.04391675  0.58991168  0.90270678  1  -1.261001  0.052785  -0.362695  -0.392173  0.031869  3.518262  0.007
N  N178  1  0.54390575  0.91009998  0.09731272  1  -1.260501  0.052803  -0.362728  -0.392192  0.031871  3.51787  0.007
N  N179  1  0.95609205  0.08990513  0.59727941  1  -1.261158  0.052816  -0.362698  -0.392313  0.031877  3.518297  0.007
O  O180  1  0.52955564  0.76035230  0.82582384  1  -1.179716  0.063252  -0.292022  -0.530593  0.045368  2.275858  0.033
O  O181  1  0.97042638  0.23965443  0.32581328  1  -1.179842  0.063266  -0.292114  -0.530813  0.045384  2.276025  0.033
O  O182  1  0.47044904  0.26033306  0.67418390  1  -1.179543  0.063271  -0.292115  -0.530714  0.045376  2.276375  0.033
O  O183  1  0.02957589  0.73963060  0.17418802  1  -1.179982  0.06326  -0.292006  -0.530618  0.045377  2.276059  0.033
O  O184  1  0.47043749  0.23965034  0.17417628  1  -1.179977  0.063256  -0.292107  -0.53073  0.045373  2.27607  0.033
O  O185  1  0.02957668  0.76036869  0.67417629  1  -1.180338  0.063258  -0.292084  -0.530734  0.045379  2.275972  0.033
O  O186  1  0.52956560  0.73964227  0.32583909  1  -1.179899  0.063251  -0.292053  -0.530808  0.045369  2.27609  0.033
O  O187  1  0.97042965  0.26035687  0.82581210  1  -1.179803  0.063279  -0.292096  -0.530744  0.045388  2.276266  0.033
O  O188  1  0.35592582  0.75579990  0.78017859  1  -1.212972  0.065757  -0.311534  -0.578885  0.047852  2.373847  0.032
O  O189  1  0.14405147  0.24416998  0.28016448  1  -1.213823  0.065765  -0.311599  -0.578985  0.047857  2.373663  0.032
O  O190  1  0.64407474  0.25578316  0.71982977  1  -1.212705  0.065721  -0.311526  -0.578959  0.047849  2.37368  0.032
O  O191  1  0.85594995  0.74416576  0.21983092  1  -1.213884  0.065775  -0.311568  -0.578872  0.047851  2.373789  0.032
O  O192  1  0.64406400  0.24419591  0.21981391  1  -1.213508  0.065763  -0.311427  -0.57871  0.047843  2.373488  0.032
O  O193  1  0.85594911  0.75581293  0.71980750  1  -1.214715  0.065782  -0.31166  -0.578877  0.047851  2.373759  0.032
O  O194  1  0.35594735  0.74417244  0.28019029  1  -1.214008  0.065759  -0.311612  -0.578977  0.047845  2.373607  0.032
O  O195  1  0.14405393  0.25582929  0.78016275  1  -1.213843  0.065756  -0.311589  -0.578946  0.047853  2.373697  0.032
O  O196  1  0.34278847  0.51076440  0.57231141  1  -1.186599  0.069999  -0.309988  -0.568957  0.050072  2.251905  0.039
O  O197  1  0.15721129  0.48922485  0.07229893  1  -1.18623  0.070007  -0.310049  -0.569097  0.050082  2.25203  0.039
O  O198  1  0.65720498  0.01076390  0.92770472  1  -1.186416  0.069997  -0.3099  -0.568979  0.050072  2.25217  0.039
O  O199  1  0.84278979  0.98923393  0.42768343  1  -1.18639  0.070003  -0.309907  -0.568878  0.050075  2.251834  0.039
O  O200  1  0.65720714  0.48922534  0.42768872  1  -1.186441  0.070003  -0.309967  -0.568978  0.050076  2.251814  0.039
O  O201  1  0.84279673  0.51077855  0.92767715  1  -1.186633  0.070009  -0.309863  -0.568915  0.05007  2.251857  0.039
O  O202  1  0.34278815  0.98921295  0.07232648  1  -1.186412  0.069982  -0.309864  -0.568991  0.050076  2.252031  0.039
O  O203  1  0.15720582  0.01077554  0.57230555  1  -1.186527  0.070008  -0.310052  -0.569027  0.050082  2.251833  0.039
O  O204  1  0.25927940  0.61598095  0.65748940  1  -1.193557  0.068792  -0.3098  -0.545571  0.047764  2.324961  0.031
O  O205  1  0.24070326  0.38402464  0.15749431  1  -1.193851  0.0688  -0.309957  -0.545835  0.047766  2.32529  0.031
O  O206  1  0.74071023  0.11598500  0.84252943  1  -1.193695  0.068818  -0.309994  -0.545834  0.047777  2.325426  0.031
O  O207  1  0.75929087  0.88403061  0.34249532  1  -1.193351  0.068808  -0.309915  -0.54571  0.047766  2.324949  0.031
O  O208  1  0.74070545  0.38403079  0.34249607  1  -1.193465  0.068807  -0.309926  -0.545775  0.047768  2.325167  0.031
O  O209  1  0.75930807  0.61598179  0.84248530  1  -1.193912  0.068792  -0.309886  -0.545823  0.047771  2.325399  0.031
O  O210  1  0.25930524  0.88401763  0.15753167  1  -1.193905  0.068781  -0.30995  -0.545836  0.047775  2.325379  0.031
O  O211  1  0.24070805  0.11596141  0.65750187  1  -1.193285  0.06881  -0.309949  -0.54577  0.047764  2.325283  0.031
O  O212  1  0.73381243  0.34142267  0.89301309  1  -1.265488  0.055969  -0.560014  -0.756417  0.040414  2.080118  0.022
O  O213  1  0.76618636  0.65858470  0.39303644  1  -1.265609  0.055932  -0.559972  -0.756372  0.040407  2.079906  0.022
O  O214  1  0.26620759  0.84141545  0.60697292  1  -1.26517  0.05594  -0.559855  -0.756297  0.040409  2.080134  0.022
O  O215  1  0.23382043  0.15858776  0.10696725  1  -1.265373  0.05594  -0.559932  -0.756379  0.040405  2.079852  0.022
O  O216  1  0.26619725  0.65857845  0.10699114  1  -1.265549  0.055971  -0.560061  -0.75653  0.040413  2.079959  0.022
O  O217  1  0.23381422  0.34140200  0.60697365  1  -1.265202  0.055953  -0.560028  -0.756474  0.04041  2.079706  0.022
O  O218  1  0.73379878  0.15859326  0.39301196  1  -1.265654  0.055982  -0.559938  -0.756426  0.040412  2.079968  0.022
O  O219  1  0.76619421  0.84140957  0.89301587  1  -1.265317  0.055957  -0.559992  -0.756524  0.040406  2.079746  0.022
O  O220  1  0.43361551  0.64591130  0.44480182  1  -1.28731  0.058823  -0.568532  -0.761292  0.04275  2.073395  0.029
O  O221  1  0.06636978  0.35408072  0.94478276  1  -1.287602  0.05883  -0.568458  -0.76103  0.042743  2.073538  0.029
O  O222  1  0.56637148  0.14591066  0.05521076  1  -1.287661  0.058825  -0.568466  -0.761075  0.042741  2.07354  0.029
O  O223  1  0.93361211  0.85408438  0.55520315  1  -1.28742  0.058821  -0.568453  -0.761216  0.042747  2.073585  0.029
O  O224  1  0.56637182  0.35405947  0.55520769  1  -1.287703  0.058827  -0.568609  -0.761128  0.042741  2.073519  0.029
O  O225  1  0.93362086  0.64594922  0.05519450  1  -1.288126  0.058831  -0.568521  -0.761071  0.042742  2.07364  0.029
O  O226  1  0.43361999  0.85406012  0.94480578  1  -1.288119  0.058834  -0.568497  -0.761018  0.042742  2.073664  0.029
O  O227  1  0.06636860  0.14593115  0.44478876  1  -1.28786  0.058841  -0.568509  -0.761024  0.042745  2.073572  0.029
