# generated using pymatgen
data_ZnH24C21NO7
_symmetry_space_group_name_H-M   'P 1'
_cell_length_a   9.70276387
_cell_length_b   11.01681346
_cell_length_c   16.01775499
_cell_angle_alpha   90.12708189
_cell_angle_beta   94.88034092
_cell_angle_gamma   92.67447544
_symmetry_Int_Tables_number   1
_chemical_formula_structural   ZnH24C21NO7
_chemical_formula_sum   'Zn2 H48 C42 N2 O14'
_cell_volume   1704.09588182
_cell_formula_units_Z   2
loop_
 _symmetry_equiv_pos_site_id
 _symmetry_equiv_pos_as_xyz
  1  'x, y, z'
loop_
 _atom_site_type_symbol
 _atom_site_label
 _atom_site_symmetry_multiplicity
 _atom_site_fract_x
 _atom_site_fract_y
 _atom_site_fract_z
 _atom_site_occupancy
 _atom_site_pbe_bader_charge
 _atom_site_pbe_bader_spin_density
 _atom_site_pbe_cm5_charge
 _atom_site_pbe_ddec_charge
 _atom_site_pbe_ddec_spin_density
 _atom_site_pbe_ddec_sum_bond_order
 _atom_site_pbe_magmom
Zn  Zn0  1  0.36163487  0.48715652  0.50059165  1  1.283476  0  0.667257  0.807799  0  2.44596  0
Zn  Zn1  1  0.64617489  0.50236936  0.50135021  1  1.28778  0  0.670739  0.812968  0  2.439483  0
H  H2  1  0.29325574  0.58291601  0.05097413  1  0.044213  0  0.10852  0.05651  0  1.008472  0
H  H3  1  0.71079270  0.88205183  0.55162780  1  0.102506  0  0.107901  0.130861  0  1.019455  0
H  H4  1  0.16960577  0.10159718  0.50512775  1  0.054717  0  0.09172  0.10239  0  1.018141  0
H  H5  1  0.21102866  0.11151473  0.39888067  1  0.055655  0  0.092626  0.100341  0  0.986777  0
H  H6  1  0.20283371  0.88242655  0.38947135  1  0.05463  0  0.093923  0.102077  0  0.985461  0
H  H7  1  0.85090132  0.43160481  0.37665176  1  0.16015  0  0.136987  0.120388  0  0.969628  0
H  H8  1  0.11115713  0.41454731  0.38078694  1  0.149981  0  0.136268  0.12063  0  0.976239  0
H  H9  1  0.17847842  0.68376642  0.64992006  1  0.109482  0  0.118355  0.157784  0  0.95265  0
H  H10  1  0.89469644  0.56445961  0.68739429  1  0.108837  0  0.113434  0.07485  0  0.995256  0
H  H11  1  0.66777637  0.59068989  0.10247663  1  0.086751  0  0.105191  0.120986  0  0.971163  0
H  H12  1  0.50868822  0.29129424  0.92402599  1  0.047208  0  0.093055  0.088716  0  1.02354  0
H  H13  1  0.67187423  0.36417191  0.95020172  1  0.076952  0  0.096239  0.100196  0  1.005115  0
H  H14  1  0.46512277  0.28685287  0.06573202  1  0.050573  0  0.094915  0.095805  0  0.988244  0
H  H15  1  0.28385243  0.27701313  0.92700892  1  0.052777  0  0.097673  0.059943  0  1.002003  0
H  H16  1  0.35264239  0.30738921  0.82795621  1  0.039557  0  0.094561  0.05416  0  0.997792  0
H  H17  1  0.10904170  0.32537187  0.76212413  1  0.021329  0  0.090761  0.126654  0  0.999034  0
H  H18  1  0.13876206  0.17966725  0.80546812  1  0.055649  0  0.090885  0.119283  0  1.004399  0
H  H19  1  0.04418911  0.28504856  0.85972160  1  0.056125  0  0.091239  0.124809  0  1.014106  0
H  H20  1  0.07161014  0.50597848  0.06475833  1  0.015399  0  0.090074  0.044032  0  0.99484  0
H  H21  1  0.17937304  0.46746224  0.15620844  1  0.047495  0  0.091197  0.049717  0  0.998657  0
H  H22  1  0.09614917  0.24925857  0.13899146  1  0.038094  0  0.091189  0.123899  0  0.995525  0
H  H23  1  0.95450241  0.34520964  0.14613451  1  0.021088  0  0.092057  0.123183  0  0.998413  0
H  H24  1  0.98984035  0.28648567  0.04699400  1  0.027934  0  0.090839  0.124124  0  0.998242  0
H  H25  1  0.63483672  0.35015097  0.09077028  1  0.047353  0  0.09543  0.098187  0  0.974147  0
H  H26  1  0.81728079  0.18562594  0.47179416  1  0.047422  0  0.091443  0.051641  0  1.001878  0
H  H27  1  0.89927855  0.05413409  0.51446097  1  0.057616  0  0.093006  0.04933  0  0.981243  0
H  H28  1  0.99486124  0.17621888  0.64081935  1  0.032924  0  0.090804  0.124664  0  1.014044  0
H  H29  1  0.04566450  0.24943958  0.54882105  1  0.042936  0  0.085099  0.112589  0  1.040018  0
H  H30  1  0.90491592  0.30383384  0.60164218  1  0.015923  0  0.089302  0.1275  0  1.010579  0
H  H31  1  0.15948950  0.87396107  0.49535994  1  0.062938  0  0.090828  0.098925  0  0.995249  0
H  H32  1  0.15205463  0.65028264  0.95852013  1  0.018839  0  0.095235  0.048655  0  1.005901  0
H  H33  1  0.15764448  0.65480142  0.84818641  1  0.046814  0  0.092888  0.049596  0  1.017634  0
H  H34  1  0.28894427  0.85936210  0.86234995  1  0.045883  0  0.092767  0.129061  0  0.987459  0
H  H35  1  0.12423349  0.86237979  0.90341520  1  0.024567  0  0.08922  0.11723  0  1.014156  0
H  H36  1  0.27713654  0.85511563  0.97276766  1  0.045855  0  0.090018  0.123668  0  0.994412  0
H  H37  1  0.15742087  0.53669701  0.69546877  1  0.106434  0  0.111865  0.148586  0  0.983486  0
H  H38  1  0.99706069  0.75537159  0.76314848  1  0.016587  0  0.09241  0.044009  0  1.009897  0
H  H39  1  0.81353195  0.76470413  0.74626754  1  0.030304  0  0.097858  0.058137  0  0.97579  0
H  H40  1  0.84848580  0.96781910  0.67494438  1  0.07722  0  0.09485  0.137597  0  1.027109  0
H  H41  1  0.93162733  0.96970144  0.77803955  1  0.036049  0  0.090855  0.120489  0  1.002096  0
H  H42  1  0.03134011  0.95404238  0.69055871  1  -0.004895  0  0.08965  0.119908  0  1.002283  0
H  H43  1  0.89309900  0.68501934  0.91952060  1  0.02693  0  0.088088  0.04394  0  0.985892  0
H  H44  1  0.74682296  0.63648725  0.85046402  1  0.047412  0  0.093066  0.045279  0  1.041793  0
H  H45  1  0.83052841  0.42765803  0.84550804  1  0.041179  0  0.088728  0.123652  0  1.01144  0
H  H46  1  0.96653323  0.53138773  0.82027843  1  0.015845  0  0.086058  0.110902  0  1.049047  0
H  H47  1  0.97170418  0.46773413  0.92127723  1  0.054833  0  0.090554  0.125577  0  1.023402  0
H  H48  1  0.58971111  0.67987893  0.94014268  1  0.046374  0  0.105572  0.052315  0  0.982402  0
H  H49  1  0.52036493  0.67618936  0.07527650  1  0.042015  0  0.09913  0.106966  0  0.973945  0
C  C50  1  0.49655338  0.72837560  0.49761104  1  1.520162  0  0.214799  0.598966  0  4.175305  0
C  C51  1  0.33405887  0.49731986  0.03005209  1  0.471718  0  0.002588  -0.00261  0  3.808804  0
C  C52  1  0.47559422  0.48166266  0.08063051  1  0.107962  0  -0.003852  0.129941  0  3.910173  0
C  C53  1  0.53724441  0.36269939  0.05244655  1  -0.030534  0  -0.154532  -0.179557  0  3.845724  0
C  C54  1  0.56126123  0.36807249  0.95861234  1  -0.062332  0  -0.161455  -0.18629  0  3.872697  0
C  C55  1  0.46277014  0.47729643  0.17016788  1  -0.5151  0  -0.026648  -0.031112  0  4.03874  0
C  C56  1  0.53083580  0.49517027  0.83118705  1  -0.415608  0  -0.024285  -0.013298  0  4.059667  0
C  C57  1  0.53662733  0.49874281  0.75569319  1  0.125668  0  -0.054765  -0.214198  0  3.954519  0
C  C58  1  0.37977831  0.92918627  0.48295533  1  0.020664  0  -0.013309  0.042657  0  3.906826  0
C  C59  1  0.49678413  0.86312208  0.50320842  1  0.004259  0  -0.015885  -0.054417  0  4.001723  0
C  C60  1  0.61822968  0.93081073  0.53219613  1  -0.000572  0  -0.09624  -0.221584  0  3.961958  0
C  C61  1  0.53389310  0.50320764  0.66540914  1  1.630018  0  0.21828  0.668234  0  4.243964  0
C  C62  1  0.62195325  0.05751382  0.53921563  1  0.49523  0  0.084107  0.228958  0  4.05027  0
C  C63  1  0.50461129  0.12509765  0.51399001  1  -0.017499  0  -0.018446  -0.167998  0  3.945723  0
C  C64  1  0.38463676  0.05572467  0.48815889  1  -0.055411  0  -0.008905  0.06879  0  3.91189  0
C  C65  1  0.23274350  0.06409160  0.45851092  1  -0.067154  0  -0.155371  -0.199667  0  3.884173  0
C  C66  1  0.22720673  0.92058494  0.45270815  1  -0.031182  0  -0.153282  -0.191893  0  3.89074  0
C  C67  1  0.94555138  0.55765379  0.55623082  1  0.540129  0  0.14655  0.131467  0  3.842647  0
C  C68  1  0.91950903  0.46483464  0.43007999  1  0.478818  0  0.071274  0.049193  0  3.85  0
C  C69  1  0.06279151  0.45407688  0.43284390  1  0.461801  0  0.072896  0.051872  0  3.855288  0
C  C70  1  0.08767923  0.54352822  0.56054107  1  0.575281  0  0.152761  0.218859  0  3.877258  0
C  C71  1  0.11518615  0.59842001  0.64705318  1  -0.074864  0  -0.146893  -0.323825  0  3.805806  0
C  C72  1  0.50580836  0.26036170  0.51211896  1  1.596612  0  0.21904  0.620183  0  4.161027  0
C  C73  1  0.95143462  0.61782375  0.64206489  1  0.550524  0  0.020047  0.102913  0  3.859766  0
C  C74  1  0.47694328  0.47805268  0.33666220  1  1.682947  0  0.218148  0.679187  0  4.241989  0
C  C75  1  0.35943216  0.51546048  0.93444978  1  0.988859  0  0.169336  0.325322  0  3.79087  0
C  C76  1  0.60888998  0.59199012  0.97007171  1  0.488813  0  0.010165  0.149773  0  3.796825  0
C  C77  1  0.57145188  0.59243728  0.06139518  1  -0.035903  0  -0.154702  -0.25904  0  3.847701  0
C  C78  1  0.46567387  0.47521805  0.24615715  1  0.199493  0  -0.062277  -0.222276  0  3.9887  0
C  C79  1  0.51499580  0.49035326  0.92029108  1  0.135515  0  -0.004173  0.007097  0  3.837203  0
C  C80  1  0.26635532  0.32329993  0.86653485  1  0.428801  0  -0.073909  0.087983  0  3.91597  0
C  C81  1  0.13117206  0.27627427  0.82099087  1  -0.091283  0  -0.242688  -0.384984  0  3.957428  0
C  C82  1  0.13127855  0.43269477  0.09539235  1  0.413805  0  -0.072496  0.082849  0  3.946515  0
C  C83  1  0.03770941  0.32153630  0.10742709  1  -0.027049  0  -0.243556  -0.3889  0  3.983657  0
C  C84  1  0.85403787  0.14060351  0.53030027  1  0.395186  0  -0.070566  0.089852  0  3.928412  0
C  C85  1  0.95639545  0.22236542  0.58341720  1  -0.053227  0  -0.251011  -0.404556  0  3.977328  0
C  C86  1  0.21242754  0.68632242  0.90783222  1  0.398329  0  -0.074372  0.092123  0  3.932922  0
C  C87  1  0.22696160  0.82384756  0.91195792  1  -0.040091  0  -0.244952  -0.394162  0  3.981008  0
C  C88  1  0.91285223  0.79204917  0.72118822  1  0.452015  0  -0.06894  0.087936  0  3.923904  0
C  C89  1  0.93186589  0.92874257  0.71538871  1  -0.063474  0  -0.246662  -0.401867  0  3.972797  0
C  C90  1  0.82232075  0.60644583  0.90032398  1  0.400734  0  -0.077709  0.075935  0  3.956278  0
C  C91  1  0.90180149  0.50208956  0.87015241  1  -0.064863  0  -0.252418  -0.41391  0  3.990673  0
N  N92  1  0.85766324  0.51610285  0.49353704  1  -1.207537  0  -0.281473  -0.158086  0  3.45223  0
N  N93  1  0.14975541  0.49092034  0.49997011  1  -1.219339  0  -0.286977  -0.178583  0  3.454167  0
O  O94  1  0.37987298  0.67126791  0.48154853  1  -1.151827  0  -0.31891  -0.544331  0  2.299717  0
O  O95  1  0.61342048  0.68033084  0.50977253  1  -1.16444  0  -0.316064  -0.53706  0  2.355002  0
O  O96  1  0.41571166  0.52003208  0.62702092  1  -1.151838  0  -0.310296  -0.540476  0  2.276653  0
O  O97  1  0.64724254  0.49009434  0.63239441  1  -1.146639  0  -0.309879  -0.538754  0  2.246176  0
O  O98  1  0.39125758  0.30797117  0.52312400  1  -1.153164  0  -0.316396  -0.539741  0  2.301711  0
O  O99  1  0.61744551  0.31793439  0.49628896  1  -1.155758  0  -0.311866  -0.544352  0  2.353273  0
O  O100  1  0.36644387  0.45611592  0.37295754  1  -1.156902  0  -0.31829  -0.555976  0  2.262587  0
O  O101  1  0.59758636  0.50321160  0.37185299  1  -1.151901  0  -0.315415  -0.551284  0  2.260912  0
O  O102  1  0.25862359  0.45217247  0.87979170  1  -1.064508  0  -0.213939  -0.289725  0  2.498448  0
O  O103  1  0.23765021  0.39982562  0.04335957  1  -1.050897  0  -0.224573  -0.239293  0  2.49576  0
O  O104  1  0.73788048  0.11654542  0.57923596  1  -1.072808  0  -0.206857  -0.241316  0  2.524362  0
O  O105  1  0.34894826  0.64071365  0.91485544  1  -1.036917  0  -0.213804  -0.292197  0  2.492363  0
O  O106  1  0.91475423  0.73975344  0.63871742  1  -1.048685  0  -0.220747  -0.23443  0  2.442822  0
O  O107  1  0.75241002  0.56850539  0.97226724  1  -1.057752  0  -0.23254  -0.258847  0  2.445178  0
