# generated using pymatgen
data_ZnH18C22(N2O3)2
_symmetry_space_group_name_H-M   'P 1'
_cell_length_a   8.16675226
_cell_length_b   8.83024621
_cell_length_c   14.50870575
_cell_angle_alpha   90.00024077
_cell_angle_beta   95.03892798
_cell_angle_gamma   90.00089766
_symmetry_Int_Tables_number   1
_chemical_formula_structural   ZnH18C22(N2O3)2
_chemical_formula_sum   'Zn2 H36 C44 N8 O12'
_cell_volume   1042.24345559
_cell_formula_units_Z   2
loop_
 _symmetry_equiv_pos_site_id
 _symmetry_equiv_pos_as_xyz
  1  'x, y, z'
loop_
 _atom_site_type_symbol
 _atom_site_label
 _atom_site_symmetry_multiplicity
 _atom_site_fract_x
 _atom_site_fract_y
 _atom_site_fract_z
 _atom_site_occupancy
 _atom_site_hle17_bader_spin_density
 _atom_site_hle17_ddec_charge
 _atom_site_hle17_ddec_spin_density
 _atom_site_hle17_ddec_sum_bond_order
 _atom_site_hle17_magmom
 _atom_site_hse06_10hf_bader_spin_density
 _atom_site_hse06_10hf_ddec_charge
 _atom_site_hse06_10hf_ddec_spin_density
 _atom_site_hse06_10hf_ddec_sum_bond_order
 _atom_site_hse06_10hf_magmom
 _atom_site_hse06_bader_spin_density
 _atom_site_hse06_ddec_charge
 _atom_site_hse06_ddec_spin_density
 _atom_site_hse06_ddec_sum_bond_order
 _atom_site_hse06_magmom
 _atom_site_pbe_bader_spin_density
 _atom_site_pbe_cm5_charge
 _atom_site_pbe_ddec_charge
 _atom_site_pbe_ddec_spin_density
 _atom_site_pbe_ddec_sum_bond_order
 _atom_site_pbe_magmom
Zn  Zn0  1  0.99999896  0.99999995  0.00000018  1  0  1.091057  0  1.792139  0  0  0.922848  0  2.238686  0  0  0.969023  0  2.185104  0  0  0.675745  0.89047  0  2.275473  0
Zn  Zn1  1  0.99999920  0.49999496  0.50000221  1  0  1.091173  0  1.791971  0  0  0.922998  0  2.238501  0  0  0.969173  0  2.18492  0  0  0.675818  0.89062  0  2.275288  0
H  H2  1  0.98323191  0.77379452  0.83682593  1  0  0.082009  0  0.906675  0  0  0.090884  0  0.966186  0  0  0.093406  0  0.963108  0  0  0.133225  0.089126  0  0.968162  0
H  H3  1  0.01676818  0.27379510  0.66316827  1  0  0.082008  0  0.906696  0  0  0.090815  0  0.96626  0  0  0.093334  0  0.963187  0  0  0.133186  0.089058  0  0.968231  0
H  H4  1  0.01677372  0.22620834  0.16317032  1  0  0.081969  0  0.906632  0  0  0.090779  0  0.966208  0  0  0.093297  0  0.963136  0  0  0.133187  0.089024  0  0.968178  0
H  H5  1  0.98324763  0.72619303  0.33684413  1  0  0.081968  0  0.906794  0  0  0.090808  0  0.966322  0  0  0.093329  0  0.963246  0  0  0.133134  0.08905  0  0.968294  0
H  H6  1  0.73768619  0.38322620  0.90410164  1  0  0.086028  0  0.935783  0  0  0.095281  0  0.997351  0  0  0.097511  0  0.995422  0  0  0.118973  0.093987  0  0.998217  0
H  H7  1  0.26230747  0.88323500  0.59589013  1  0  0.085886  0  0.935913  0  0  0.095186  0  0.997418  0  0  0.097419  0  0.995485  0  0  0.118924  0.09389  0  0.998285  0
H  H8  1  0.26231681  0.61677665  0.09588676  1  0  0.086004  0  0.935722  0  0  0.095284  0  0.997203  0  0  0.097517  0  0.995272  0  0  0.118941  0.093977  0  0.998083  0
H  H9  1  0.73769684  0.11676785  0.40410668  1  0  0.085959  0  0.935751  0  0  0.095208  0  0.997293  0  0  0.097443  0  0.995363  0  0  0.118936  0.093912  0  0.998159  0
H  H10  1  0.86096059  0.73369181  0.10635702  1  0  0.090126  0  0.922246  0  0  0.101746  0  0.981728  0  0  0.104679  0  0.978512  0  0  0.12569  0.099713  0  0.983666  0
H  H11  1  0.13904544  0.23370121  0.39363459  1  0  0.090042  0  0.922169  0  0  0.101669  0  0.981662  0  0  0.104603  0  0.978444  0  0  0.12568  0.099634  0  0.983599  0
H  H12  1  0.13904042  0.26630085  0.89363672  1  0  0.090036  0  0.922142  0  0  0.101724  0  0.981572  0  0  0.104657  0  0.978355  0  0  0.125715  0.099689  0  0.983511  0
H  H13  1  0.86093606  0.76629824  0.60636564  1  0  0.089987  0  0.922258  0  0  0.101714  0  0.981619  0  0  0.104646  0  0.978401  0  0  0.125722  0.099681  0  0.983563  0
H  H14  1  0.54220261  0.33299762  0.98778759  1  0  0.093739  0  0.974153  0  0  0.101807  0  1.040614  0  0  0.104741  0  1.038945  0  0  0.10073  0.099668  0  1.041907  0
H  H15  1  0.45779415  0.83300545  0.51221127  1  0  0.093766  0  0.974049  0  0  0.101838  0  1.0405  0  0  0.104774  0  1.038832  0  0  0.100739  0.099698  0  1.041795  0
H  H16  1  0.45779387  0.66700636  0.01221195  1  0  0.09378  0  0.974076  0  0  0.101823  0  1.040557  0  0  0.104758  0  1.038887  0  0  0.10074  0.099685  0  1.041849  0
H  H17  1  0.54221704  0.16700306  0.48778964  1  0  0.093764  0  0.974075  0  0  0.101867  0  1.040471  0  0  0.104803  0  1.038803  0  0  0.100738  0.099725  0  1.041771  0
H  H18  1  0.40962192  0.18492798  0.10360551  1  0  0.091963  0  0.96094  0  0  0.102227  0  1.019569  0  0  0.104293  0  1.020138  0  0  0.099573  0.100735  0  1.019208  0
H  H19  1  0.59036951  0.68494115  0.39638672  1  0  0.091969  0  0.961047  0  0  0.102234  0  1.019645  0  0  0.104297  0  1.020221  0  0  0.09957  0.100742  0  1.019287  0
H  H20  1  0.59037221  0.81508167  0.89639313  1  0  0.091964  0  0.960908  0  0  0.102204  0  1.019564  0  0  0.104268  0  1.020136  0  0  0.099565  0.100714  0  1.019203  0
H  H21  1  0.40963612  0.31507077  0.60360953  1  0  0.091967  0  0.960913  0  0  0.102194  0  1.01957  0  0  0.104256  0  1.020148  0  0  0.09957  0.100705  0  1.019211  0
H  H22  1  0.48718680  0.22579880  0.27224928  1  0  0.092137  0  0.954873  0  0  0.099484  0  1.02202  0  0  0.102425  0  1.020878  0  0  0.098944  0.097362  0  1.022878  0
H  H23  1  0.51279712  0.72581323  0.22774856  1  0  0.092086  0  0.955015  0  0  0.099454  0  1.022143  0  0  0.102396  0  1.021  0  0  0.098895  0.097333  0  1.022997  0
H  H24  1  0.51281214  0.77420745  0.72775050  1  0  0.092096  0  0.954894  0  0  0.099446  0  1.022032  0  0  0.102388  0  1.020889  0  0  0.098921  0.097327  0  1.022888  0
H  H25  1  0.48719078  0.27420321  0.77225019  1  0  0.092055  0  0.954943  0  0  0.09941  0  1.022073  0  0  0.102352  0  1.020929  0  0  0.098933  0.097292  0  1.022928  0
H  H26  1  0.86074373  0.53917770  0.20615888  1  0  0.100516  0  0.964837  0  0  0.105901  0  1.036651  0  0  0.109748  0  1.033407  0  0  0.102377  0.103091  0  1.038991  0
H  H27  1  0.13925831  0.03919106  0.29383677  1  0  0.100421  0  0.964903  0  0  0.105877  0  1.036629  0  0  0.109725  0  1.033383  0  0  0.102351  0.103066  0  1.038971  0
H  H28  1  0.13927227  0.46081383  0.79383418  1  0  0.100441  0  0.964967  0  0  0.105959  0  1.036621  0  0  0.109807  0  1.033375  0  0  0.1024  0.10315  0  1.038961  0
H  H29  1  0.86072950  0.96081519  0.70617165  1  0  0.100395  0  0.964893  0  0  0.105916  0  1.03654  0  0  0.109763  0  1.033295  0  0  0.102364  0.103106  0  1.03888  0
H  H30  1  0.30088537  0.92980140  0.99279675  1  0  0.416087  0  0.899636  0  0  0.382288  0  0.968565  0  0  0.394557  0  0.950944  0  0  0.281476  0.373791  0  0.980671  0
H  H31  1  0.69910701  0.42979877  0.50720123  1  0  0.416028  0  0.899746  0  0  0.382244  0  0.968648  0  0  0.394514  0  0.951026  0  0  0.281453  0.373747  0  0.980755  0
H  H32  1  0.69910206  0.07019240  0.00720542  1  0  0.41605  0  0.899692  0  0  0.382273  0  0.968592  0  0  0.394542  0  0.95097  0  0  0.281446  0.373773  0  0.980703  0
H  H33  1  0.30089447  0.57019842  0.49279809  1  0  0.416039  0  0.899714  0  0  0.382251  0  0.968625  0  0  0.394521  0  0.951002  0  0  0.281442  0.373753  0  0.980734  0
H  H34  1  0.28585444  0.01751727  0.89505682  1  0  0.429194  0  0.81747  0  0  0.410422  0  0.875413  0  0  0.419404  0  0.864713  0  0  0.317037  0.403868  0  0.883327  0
H  H35  1  0.71414400  0.51750680  0.60494357  1  0  0.429228  0  0.817472  0  0  0.410464  0  0.875399  0  0  0.419445  0  0.864697  0  0  0.317068  0.40391  0  0.883312  0
H  H36  1  0.71414666  0.98247993  0.10494523  1  0  0.429179  0  0.817473  0  0  0.410411  0  0.875407  0  0  0.419392  0  0.864709  0  0  0.317032  0.403859  0  0.883316  0
H  H37  1  0.28585531  0.48249266  0.39505347  1  0  0.429212  0  0.817456  0  0  0.410451  0  0.875382  0  0  0.419433  0  0.86468  0  0  0.317056  0.403897  0  0.883293  0
C  C38  1  0.92553081  0.70589579  0.88774588  1  0  0.286523  0  3.706635  0  0  0.236544  0  3.986659  0  0  0.250265  0  3.998679  0  0  0.179671  0.228251  0  3.977517  0
C  C39  1  0.07447754  0.20589807  0.61225170  1  0  0.286652  0  3.706812  0  0  0.236746  0  3.986758  0  0  0.250473  0  3.998777  0  0  0.179811  0.22845  0  3.977621  0
C  C40  1  0.07447642  0.29410593  0.11224775  1  0  0.286599  0  3.706632  0  0  0.236684  0  3.986596  0  0  0.250412  0  3.998614  0  0  0.179761  0.228383  0  3.977459  0
C  C41  1  0.92553233  0.79408893  0.38775877  1  0  0.286628  0  3.706411  0  0  0.236709  0  3.986384  0  0  0.250439  0  3.998401  0  0  0.179836  0.228406  0  3.977243  0
C  C42  1  0.79095640  0.49225420  0.92600176  1  0  0.131608  0  3.656358  0  0  0.095928  0  3.91674  0  0  0.10489  0  3.93177  0  0  0.06875  0.09037  0  3.906404  0
C  C43  1  0.20904090  0.99225755  0.57399543  1  0  0.131781  0  3.656746  0  0  0.096068  0  3.917082  0  0  0.105029  0  3.932109  0  0  0.068854  0.090512  0  3.906741  0
C  C44  1  0.20904376  0.50774639  0.07398914  1  0  0.131571  0  3.656509  0  0  0.095914  0  3.9168  0  0  0.104879  0  3.931822  0  0  0.068778  0.090367  0  3.906463  0
C  C45  1  0.79096783  0.00772492  0.42601424  1  0  0.131617  0  3.656619  0  0  0.095971  0  3.91689  0  0  0.104937  0  3.93191  0  0  0.068807  0.090415  0  3.906547  0
C  C46  1  0.78570089  0.54156838  0.01795319  1  0  -0.039229  0  3.768455  0  0  -0.018437  0  4.000208  0  0  -0.025763  0  4.026133  0  0  0.001615  -0.014468  0  3.983487  0
C  C47  1  0.21430054  0.04157149  0.48204725  1  0  -0.039232  0  3.768619  0  0  -0.018443  0  4.00035  0  0  -0.025769  0  4.026276  0  0  0.001605  -0.014472  0  3.983623  0
C  C48  1  0.21430418  0.45842429  0.98203816  1  0  -0.039627  0  3.768405  0  0  -0.0188  0  4.000246  0  0  -0.026126  0  4.026171  0  0  0.001445  -0.014831  0  3.98352  0
C  C49  1  0.78570085  0.95841665  0.51797073  1  0  -0.03945  0  3.769008  0  0  -0.018631  0  4.00081  0  0  -0.025954  0  4.026738  0  0  0.001473  -0.014659  0  3.984084  0
C  C50  1  0.85813816  0.68305200  0.03760303  1  0  0.125683  0  3.650289  0  0  0.083741  0  3.902388  0  0  0.092228  0  3.918565  0  0  0.06725  0.078688  0  3.890841  0
C  C51  1  0.14187086  0.18305505  0.46239635  1  0  0.125828  0  3.650172  0  0  0.083852  0  3.902315  0  0  0.092343  0  3.918499  0  0  0.067272  0.0788  0  3.890764  0
C  C52  1  0.14186653  0.31694292  0.96239106  1  0  0.126145  0  3.649827  0  0  0.084133  0  3.901977  0  0  0.092625  0  3.918157  0  0  0.067375  0.079076  0  3.890425  0
C  C53  1  0.85812515  0.81694101  0.53761559  1  0  0.126005  0  3.65001  0  0  0.08401  0  3.902142  0  0  0.092502  0  3.91832  0  0  0.067336  0.078942  0  3.890597  0
C  C54  1  0.70659552  0.45307669  0.08781393  1  0  0.03999  0  3.806183  0  0  0.054263  0  4.041371  0  0  0.053272  0  4.067701  0  0  -0.014091  0.055089  0  4.023502  0
C  C55  1  0.29340340  0.95309006  0.41218511  1  0  0.039826  0  3.8063  0  0  0.054139  0  4.041424  0  0  0.05315  0  4.067753  0  0  -0.01423  0.054963  0  4.023555  0
C  C56  1  0.29341030  0.54691937  0.91218095  1  0  0.04022  0  3.805759  0  0  0.054306  0  4.041221  0  0  0.053316  0  4.067549  0  0  -0.014112  0.055133  0  4.023349  0
C  C57  1  0.70659987  0.04691393  0.58781921  1  0  0.040208  0  3.80608  0  0  0.054291  0  4.041531  0  0  0.0533  0  4.067861  0  0  -0.014115  0.055116  0  4.023657  0
C  C58  1  0.58041257  0.35008760  0.06074467  1  0  -0.090027  0  3.716222  0  0  -0.113278  0  3.967119  0  0  -0.114602  0  3.987339  0  0  -0.084093  -0.112814  0  3.953542  0
C  C59  1  0.41957677  0.85010074  0.43924773  1  0  -0.089896  0  3.716217  0  0  -0.113154  0  3.967079  0  0  -0.114483  0  3.987304  0  0  -0.083968  -0.112689  0  3.953496  0
C  C60  1  0.41958335  0.64991186  0.93924999  1  0  -0.090111  0  3.716283  0  0  -0.113275  0  3.967201  0  0  -0.1146  0  3.987423  0  0  -0.084054  -0.11281  0  3.953621  0
C  C61  1  0.58042310  0.14991004  0.56075420  1  0  -0.09009  0  3.716083  0  0  -0.113276  0  3.966966  0  0  -0.114604  0  3.987192  0  0  -0.084032  -0.112811  0  3.953386  0
C  C62  1  0.50401751  0.26713257  0.12640325  1  0  -0.059783  0  3.770365  0  0  -0.070857  0  4.021624  0  0  -0.073817  0  4.044178  0  0  -0.092286  -0.068809  0  4.006395  0
C  C63  1  0.49597777  0.76713628  0.37358951  1  0  -0.059891  0  3.770466  0  0  -0.070984  0  4.021761  0  0  -0.073946  0  4.044313  0  0  -0.092351  -0.068937  0  4.006533  0
C  C64  1  0.49597935  0.73287368  0.87359356  1  0  -0.059808  0  3.770388  0  0  -0.070866  0  4.021629  0  0  -0.073825  0  4.044181  0  0  -0.092329  -0.06882  0  4.006403  0
C  C65  1  0.50402541  0.23286998  0.62640651  1  0  -0.059809  0  3.770291  0  0  -0.070866  0  4.021562  0  0  -0.073826  0  4.044114  0  0  -0.092325  -0.068821  0  4.006336  0
C  C66  1  0.54860171  0.28801821  0.22029842  1  0  -0.064769  0  3.724622  0  0  -0.090319  0  3.970723  0  0  -0.090485  0  3.991552  0  0  -0.084061  -0.089775  0  3.956742  0
C  C67  1  0.45139364  0.78802524  0.27969647  1  0  -0.064752  0  3.724756  0  0  -0.090328  0  3.970838  0  0  -0.090493  0  3.991666  0  0  -0.084066  -0.08978  0  3.956855  0
C  C68  1  0.45139873  0.71198125  0.77969942  1  0  -0.064731  0  3.724638  0  0  -0.090254  0  3.970701  0  0  -0.09042  0  3.991529  0  0  -0.084018  -0.08971  0  3.956721  0
C  C69  1  0.54860039  0.21198555  0.72030285  1  0  -0.064672  0  3.72455  0  0  -0.09016  0  3.970667  0  0  -0.090322  0  3.991491  0  0  -0.084047  -0.089618  0  3.956691  0
C  C70  1  0.67660546  0.38794624  0.24851730  1  0  -0.060793  0  3.775534  0  0  -0.033623  0  4.002475  0  0  -0.041918  0  4.027427  0  0  -0.019823  -0.028449  0  3.98589  0
C  C71  1  0.32339895  0.88795233  0.25147865  1  0  -0.060812  0  3.775612  0  0  -0.033582  0  4.002547  0  0  -0.041882  0  4.027497  0  0  -0.019764  -0.02841  0  3.985961  0
C  C72  1  0.32340092  0.61205208  0.75148247  1  0  -0.06085  0  3.775661  0  0  -0.033721  0  4.002662  0  0  -0.042018  0  4.027612  0  0  -0.019876  -0.028548  0  3.986077  0
C  C73  1  0.67659989  0.11205732  0.74852180  1  0  -0.060795  0  3.775456  0  0  -0.033801  0  4.002651  0  0  -0.042101  0  4.027599  0  0  -0.019852  -0.028628  0  3.986066  0
C  C74  1  0.75601928  0.46846082  0.18252728  1  0  -0.119336  0  3.714046  0  0  -0.149509  0  3.960572  0  0  -0.151093  0  3.981781  0  0  -0.084696  -0.14798  0  3.945897  0
C  C75  1  0.24398434  0.96846951  0.31746670  1  0  -0.119139  0  3.7138  0  0  -0.149368  0  3.96026  0  0  -0.150954  0  3.981471  0  0  -0.084591  -0.147838  0  3.945585  0
C  C76  1  0.24399040  0.53153184  0.81746657  1  0  -0.119254  0  3.713857  0  0  -0.149455  0  3.960401  0  0  -0.15104  0  3.98161  0  0  -0.084618  -0.147926  0  3.945727  0
C  C77  1  0.75600743  0.03153335  0.68253103  1  0  -0.119266  0  3.713724  0  0  -0.149434  0  3.960351  0  0  -0.151017  0  3.98156  0  0  -0.084611  -0.147904  0  3.945674  0
C  C78  1  0.72956768  0.40784898  0.34954154  1  0  0.644513  0  3.911682  0  0  0.593652  0  4.209598  0  0  0.627917  0  4.201997  0  0  0.206143  0.570473  0  4.213879  0
C  C79  1  0.27042963  0.90785596  0.15045449  1  0  0.644793  0  3.911729  0  0  0.593786  0  4.209828  0  0  0.628069  0  4.202197  0  0  0.206272  0.570608  0  4.214109  0
C  C80  1  0.27043531  0.59215161  0.65045584  1  0  0.644806  0  3.911615  0  0  0.593947  0  4.209547  0  0  0.628222  0  4.201925  0  0  0.206329  0.570768  0  4.21383  0
C  C81  1  0.72955413  0.09215256  0.84954734  1  0  0.644747  0  3.911554  0  0  0.593942  0  4.209464  0  0  0.628222  0  4.201832  0  0  0.206298  0.570764  0  4.213747  0
N  N82  1  0.92606483  0.76515034  0.97311167  1  0  -0.364299  0  3.257519  0  0  -0.288699  0  3.530378  0  0  -0.308776  0  3.546011  0  0  -0.316632  -0.275577  0  3.519168  0
N  N83  1  0.07394322  0.26515098  0.52688670  1  0  -0.36452  0  3.25766  0  0  -0.288901  0  3.530498  0  0  -0.308996  0  3.546143  0  0  -0.316684  -0.275778  0  3.519289  0
N  N84  1  0.07394344  0.23484912  0.02688344  1  0  -0.364574  0  3.257443  0  0  -0.288966  0  3.530312  0  0  -0.309061  0  3.545955  0  0  -0.316729  -0.275829  0  3.519095  0
N  N85  1  0.92605392  0.73483716  0.47312604  1  0  -0.364527  0  3.257016  0  0  -0.289001  0  3.529982  0  0  -0.309098  0  3.545623  0  0  -0.316813  -0.275856  0  3.518763  0
N  N86  1  0.86057896  0.57226702  0.86149095  1  0  -0.338758  0  3.036545  0  0  -0.303458  0  3.311331  0  0  -0.316771  0  3.323115  0  0  -0.319683  -0.29481  0  3.30314  0
N  N87  1  0.13942683  0.07227268  0.63849918  1  0  -0.338808  0  3.037031  0  0  -0.303524  0  3.311793  0  0  -0.316836  0  3.323573  0  0  -0.319797  -0.294877  0  3.303603  0
N  N88  1  0.13942695  0.42773130  0.13850324  1  0  -0.338652  0  3.036718  0  0  -0.30336  0  3.311443  0  0  -0.316672  0  3.323225  0  0  -0.319686  -0.294714  0  3.30325  0
N  N89  1  0.86058596  0.92772225  0.36149911  1  0  -0.338688  0  3.036534  0  0  -0.303389  0  3.311236  0  0  -0.3167  0  3.32302  0  0  -0.319653  -0.294743  0  3.303047  0
O  O90  1  0.22380063  0.95760283  0.93616833  1  0  -0.834023  0  1.908358  0  0  -0.778931  0  2.117471  0  0  -0.799814  0  2.087059  0  0  -0.575711  -0.764831  0  2.138436  0
O  O91  1  0.77619194  0.45759149  0.56383180  1  0  -0.834016  0  1.908439  0  0  -0.778926  0  2.117522  0  0  -0.799807  0  2.087107  0  0  -0.575718  -0.764826  0  2.13849  0
O  O92  1  0.77619444  0.04239550  0.06383247  1  0  -0.833979  0  1.908423  0  0  -0.778888  0  2.117479  0  0  -0.799769  0  2.087066  0  0  -0.575693  -0.764786  0  2.138446  0
O  O93  1  0.22380332  0.54240344  0.43616763  1  0  -0.834032  0  1.908359  0  0  -0.778952  0  2.117455  0  0  -0.799832  0  2.087041  0  0  -0.575723  -0.764852  0  2.138422  0
O  O94  1  0.88033490  0.44259552  0.37037861  1  0  -0.651309  0  2.036582  0  0  -0.587652  0  2.2979  0  0  -0.615958  0  2.286187  0  0  -0.325491  -0.567755  0  2.304938  0
O  O95  1  0.11966366  0.94260805  0.12962176  1  0  -0.651386  0  2.036692  0  0  -0.587682  0  2.298067  0  0  -0.615997  0  2.286348  0  0  -0.325475  -0.567785  0  2.305103  0
O  O96  1  0.11967762  0.55740168  0.62962173  1  0  -0.651391  0  2.036849  0  0  -0.58778  0  2.298236  0  0  -0.616089  0  2.286513  0  0  -0.325539  -0.567885  0  2.305275  0
O  O97  1  0.88031434  0.05740273  0.87038576  1  0  -0.651426  0  2.036895  0  0  -0.587814  0  2.298283  0  0  -0.616126  0  2.286554  0  0  -0.325565  -0.567917  0  2.305323  0
O  O98  1  0.62112105  0.38898477  0.40642885  1  0  -0.63328  0  1.95605  0  0  -0.580834  0  2.178132  0  0  -0.604853  0  2.166883  0  0  -0.322769  -0.564183  0  2.185391  0
O  O99  1  0.37886217  0.88897491  0.09356790  1  0  -0.633451  0  1.956274  0  0  -0.580927  0  2.178401  0  0  -0.604953  0  2.167148  0  0  -0.322903  -0.56428  0  2.185658  0
O  O100  1  0.37887600  0.61102262  0.59356660  1  0  -0.633449  0  1.955965  0  0  -0.580991  0  2.178051  0  0  -0.605016  0  2.1668  0  0  -0.322898  -0.564341  0  2.185314  0
O  O101  1  0.62110933  0.11101436  0.90643278  1  0  -0.633383  0  1.955876  0  0  -0.580923  0  2.177927  0  0  -0.604949  0  2.166675  0  0  -0.322811  -0.564274  0  2.185193  0
