# generated using pymatgen
data_CuH4C4SIN2
_symmetry_space_group_name_H-M   'P 1'
_cell_length_a   7.11755334
_cell_length_b   7.91669180
_cell_length_c   14.01541009
_cell_angle_alpha   74.74296507
_cell_angle_beta   80.65729902
_cell_angle_gamma   64.16370826
_symmetry_Int_Tables_number   1
_chemical_formula_structural   CuH4C4SIN2
_chemical_formula_sum   'Cu4 H16 C16 S4 I4 N8'
_cell_volume   684.70801927
_cell_formula_units_Z   4
loop_
 _symmetry_equiv_pos_site_id
 _symmetry_equiv_pos_as_xyz
  1  'x, y, z'
loop_
 _atom_site_type_symbol
 _atom_site_label
 _atom_site_symmetry_multiplicity
 _atom_site_fract_x
 _atom_site_fract_y
 _atom_site_fract_z
 _atom_site_occupancy
 _atom_site_hle17_bader_spin_density
 _atom_site_hle17_ddec_charge
 _atom_site_hle17_ddec_spin_density
 _atom_site_hle17_ddec_sum_bond_order
 _atom_site_hle17_magmom
 _atom_site_hse06_10hf_bader_spin_density
 _atom_site_hse06_10hf_ddec_charge
 _atom_site_hse06_10hf_ddec_spin_density
 _atom_site_hse06_10hf_ddec_sum_bond_order
 _atom_site_hse06_10hf_magmom
 _atom_site_hse06_bader_spin_density
 _atom_site_hse06_ddec_charge
 _atom_site_hse06_ddec_spin_density
 _atom_site_hse06_ddec_sum_bond_order
 _atom_site_hse06_magmom
 _atom_site_pbe_bader_spin_density
 _atom_site_pbe_cm5_charge
 _atom_site_pbe_ddec_charge
 _atom_site_pbe_ddec_spin_density
 _atom_site_pbe_ddec_sum_bond_order
 _atom_site_pbe_magmom
Cu  Cu0  1  0.83464223  0.97365215  0.78957657  1  0  0.24965  0  2.286781  0  0  0.181872  0  2.755226  0  0  0.187306  0  2.707776  0  0  0.289752  0.182299  0  2.78404  0
Cu  Cu1  1  0.16535204  0.02636521  0.21042120  1  0  0.249721  0  2.286661  0  0  0.181934  0  2.755161  0  0  0.187394  0  2.707641  0  0  0.289782  0.182347  0  2.783979  0
Cu  Cu2  1  0.16233968  0.68184269  0.75065000  1  0  0.317901  0  2.160399  0  0  0.241735  0  2.636947  0  0  0.25095  0  2.585879  0  0  0.303624  0.238341  0  2.670327  0
Cu  Cu3  1  0.83764585  0.31815301  0.24934247  1  0  0.31799  0  2.160397  0  0  0.241833  0  2.636961  0  0  0.251012  0  2.585847  0  0  0.303678  0.238439  0  2.670301  0
H  H4  1  0.94712089  0.72182464  0.21834901  1  0  0.093991  0  0.948315  0  0  0.098464  0  1.020767  0  0  0.102441  0  1.014992  0  0  0.112061  0.095237  0  1.025397  0
H  H5  1  0.05287805  0.27816972  0.78165326  1  0  0.094019  0  0.948343  0  0  0.098525  0  1.020756  0  0  0.102505  0  1.014975  0  0  0.112074  0.095292  0  1.025389  0
H  H6  1  0.63738524  0.03526104  0.14929728  1  0  0.126872  0  0.9822  0  0  0.130827  0  1.050607  0  0  0.135826  0  1.048736  0  0  0.095202  0.127019  0  1.052454  0
H  H7  1  0.36261742  0.96475349  0.85070451  1  0  0.126683  0  0.982223  0  0  0.130654  0  1.050616  0  0  0.135655  0  1.048746  0  0  0.095108  0.126843  0  1.052463  0
H  H8  1  0.61212987  0.12419399  0.96420587  1  0  0.085512  0  0.937399  0  0  0.097979  0  0.998656  0  0  0.100791  0  0.994845  0  0  0.110532  0.095722  0  1.001716  0
H  H9  1  0.38787911  0.87583494  0.03579252  1  0  0.085457  0  0.937359  0  0  0.097924  0  0.998644  0  0  0.100735  0  0.994833  0  0  0.110483  0.095683  0  1.001693  0
H  H10  1  0.49548449  0.17329725  0.46990048  1  0  0.09131  0  0.956945  0  0  0.097626  0  1.027194  0  0  0.101393  0  1.022312  0  0  0.10806  0.094508  0  1.031248  0
H  H11  1  0.50452544  0.82668852  0.53010574  1  0  0.091277  0  0.956994  0  0  0.097594  0  1.02724  0  0  0.101361  0  1.022356  0  0  0.108057  0.094518  0  1.031255  0
H  H12  1  0.19585584  0.50468320  0.42314462  1  0  0.126534  0  0.968321  0  0  0.131266  0  1.035967  0  0  0.135372  0  1.035873  0  0  0.096752  0.128179  0  1.036404  0
H  H13  1  0.80414586  0.49529243  0.57685668  1  0  0.126477  0  0.968351  0  0  0.131184  0  1.036025  0  0  0.135299  0  1.035926  0  0  0.096709  0.128098  0  1.036464  0
H  H14  1  0.07213657  0.71271300  0.54955784  1  0  0.074964  0  0.975799  0  0  0.079345  0  1.050191  0  0  0.083131  0  1.044915  0  0  0.094073  0.076295  0  1.054319  0
H  H15  1  0.92785725  0.28726116  0.45044219  1  0  0.074901  0  0.975855  0  0  0.079235  0  1.050332  0  0  0.083023  0  1.045053  0  0  0.093998  0.076185  0  1.054455  0
H  H16  1  0.17560039  0.54726078  0.10824812  1  0  0.294755  0  0.899338  0  0  0.276458  0  0.962932  0  0  0.285705  0  0.956257  0  0  0.289794  0.269791  0  0.967808  0
H  H17  1  0.82439262  0.45274359  0.89174600  1  0  0.294729  0  0.899403  0  0  0.276434  0  0.962968  0  0  0.285681  0  0.956296  0  0  0.289778  0.269764  0  0.967845  0
H  H18  1  0.63720227  0.09024735  0.62585515  1  0  0.28273  0  0.921395  0  0  0.258638  0  0.99845  0  0  0.269582  0  0.988277  0  0  0.284958  0.250628  0  1.00592  0
H  H19  1  0.36279781  0.90975711  0.37414908  1  0  0.282693  0  0.921424  0  0  0.258641  0  0.998435  0  0  0.269588  0  0.98826  0  0  0.284957  0.250633  0  1.005909  0
C  C20  1  0.04735112  0.72669550  0.97553011  1  0  0.396161  0  3.736466  0  0  0.366303  0  4.013886  0  0  0.389383  0  4.026493  0  0  0.220525  0.351274  0  4.004969  0
C  C21  1  0.95265208  0.27331468  0.02446801  1  0  0.396201  0  3.736448  0  0  0.366384  0  4.013814  0  0  0.389468  0  4.02642  0  0  0.220437  0.351356  0  4.004891  0
C  C22  1  0.91879997  0.77871533  0.13981998  1  0  0.210435  0  3.62366  0  0  0.161529  0  3.888375  0  0  0.180895  0  3.892918  0  0  0.071148  0.147858  0  3.886582  0
C  C23  1  0.08120427  0.22128622  0.86017935  1  0  0.210371  0  3.62369  0  0  0.161432  0  3.888425  0  0  0.180798  0  3.892965  0  0  0.071121  0.147763  0  3.886632  0
C  C24  1  0.75223957  0.94559413  0.10175353  1  0  -0.195112  0  3.721645  0  0  -0.20687  0  3.982973  0  0  -0.220246  0  3.999822  0  0  -0.09938  -0.198874  0  3.973414  0
C  C25  1  0.24776271  0.05441176  0.89824887  1  0  -0.194868  0  3.721575  0  0  -0.206628  0  3.982946  0  0  -0.220005  0  3.999795  0  0  -0.099309  -0.19863  0  3.973389  0
C  C26  1  0.74071372  0.99430649  0.99912862  1  0  0.20408  0  3.616377  0  0  0.165845  0  3.870793  0  0  0.182314  0  3.879926  0  0  0.061732  0.154722  0  3.865498  0
C  C27  1  0.25929630  0.00571380  0.00087099  1  0  0.204226  0  3.616328  0  0  0.165978  0  3.870809  0  0  0.182452  0  3.879942  0  0  0.061846  0.154843  0  3.865535  0
C  C28  1  0.45540486  0.34110259  0.67217006  1  0  0.401679  0  3.742627  0  0  0.370842  0  4.019154  0  0  0.394836  0  4.030291  0  0  0.226052  0.355282  0  4.011525  0
C  C29  1  0.54458710  0.65889464  0.32783236  1  0  0.401668  0  3.742475  0  0  0.370816  0  4.018983  0  0  0.394808  0  4.030122  0  0  0.22606  0.35526  0  4.011348  0
C  C30  1  0.42859299  0.27570177  0.51823011  1  0  0.210945  0  3.621064  0  0  0.1665  0  3.874508  0  0  0.184054  0  3.883649  0  0  0.064973  0.153977  0  3.869763  0
C  C31  1  0.57141877  0.72429259  0.48176897  1  0  0.211101  0  3.620959  0  0  0.166662  0  3.874368  0  0  0.184217  0  3.883512  0  0  0.065058  0.154103  0  3.869614  0
C  C32  1  0.26750674  0.45500523  0.49382736  1  0  -0.196947  0  3.705327  0  0  -0.209712  0  3.964637  0  0  -0.223888  0  3.982645  0  0  -0.104058  -0.200854  0  3.954066  0
C  C33  1  0.73250244  0.54497904  0.50617131  1  0  -0.196948  0  3.705177  0  0  -0.209668  0  3.964413  0  0  -0.223849  0  3.9824  0  0  -0.104067  -0.200811  0  3.95385  0
C  C34  1  0.20017371  0.56961988  0.56393384  1  0  0.202836  0  3.650314  0  0  0.164314  0  3.904181  0  0  0.182598  0  3.912375  0  0  0.056869  0.151548  0  3.899889  0
C  C35  1  0.79982333  0.43036293  0.43606533  1  0  0.20275  0  3.650361  0  0  0.164232  0  3.904177  0  0  0.182516  0  3.912374  0  0  0.056897  0.151469  0  3.899865  0
S  S36  1  0.23948403  0.58360708  0.90771388  1  0  -0.368651  0  2.389927  0  0  -0.367123  0  2.803626  0  0  -0.383032  0  2.79093  0  0  -0.218065  -0.356686  0  2.81197  0
S  S37  1  0.76051244  0.41639592  0.09228873  1  0  -0.36863  0  2.390061  0  0  -0.367121  0  2.803789  0  0  -0.383018  0  2.791064  0  0  -0.218059  -0.356682  0  2.812116  0
S  S38  1  0.58210459  0.27532811  0.77589134  1  0  -0.337921  0  2.41023  0  0  -0.325014  0  2.825794  0  0  -0.339813  0  2.811082  0  0  -0.190492  -0.315794  0  2.835589  0
S  S39  1  0.41789333  0.72467485  0.22410474  1  0  -0.337892  0  2.409896  0  0  -0.325  0  2.825469  0  0  -0.339799  0  2.810749  0  0  -0.190476  -0.315778  0  2.835262  0
I  I40  1  0.73164663  0.73021234  0.73717119  1  0  -0.467921  0  1.365561  0  0  -0.421649  0  1.748166  0  0  -0.441104  0  1.718009  0  0  -0.201852  -0.406096  0  1.767702  0
I  I41  1  0.26834854  0.26979354  0.26283180  1  0  -0.467986  0  1.365595  0  0  -0.421668  0  1.748159  0  0  -0.441149  0  1.718033  0  0  -0.201863  -0.406136  0  1.767725  0
I  I42  1  0.11525068  0.02591495  0.63982485  1  0  -0.476736  0  1.398611  0  0  -0.429475  0  1.79208  0  0  -0.451501  0  1.763294  0  0  -0.233849  -0.412056  0  1.810609  0
I  I43  1  0.88474711  0.97408514  0.36017381  1  0  -0.476747  0  1.398566  0  0  -0.429514  0  1.792084  0  0  -0.451537  0  1.763286  0  0  -0.233845  -0.412086  0  1.810597  0
N  N44  1  0.88103771  0.89088334  0.93688311  1  0  -0.351398  0  3.27923  0  0  -0.280555  0  3.566364  0  0  -0.297824  0  3.570957  0  0  -0.358068  -0.270531  0  3.563645  0
N  N45  1  0.11896922  0.10913119  0.06311620  1  0  -0.351428  0  3.279211  0  0  -0.280635  0  3.566424  0  0  -0.297898  0  3.570987  0  0  -0.358089  -0.270605  0  3.563696  0
N  N46  1  0.05853838  0.67656107  0.07717212  1  0  -0.306504  0  3.436232  0  0  -0.229388  0  3.649771  0  0  -0.250167  0  3.661132  0  0  -0.356987  -0.215986  0  3.642551  0
N  N47  1  0.94146043  0.32344622  0.92282465  1  0  -0.306633  0  3.436302  0  0  -0.229509  0  3.649839  0  0  -0.25029  0  3.661198  0  0  -0.35698  -0.216107  0  3.64262  0
N  N48  1  0.28704213  0.51486010  0.65106457  1  0  -0.354862  0  3.294467  0  0  -0.280081  0  3.580231  0  0  -0.299107  0  3.583823  0  0  -0.361213  -0.268988  0  3.578758  0
N  N49  1  0.71294738  0.48512990  0.34893628  1  0  -0.354863  0  3.29462  0  0  -0.280003  0  3.580262  0  0  -0.299015  0  3.583835  0  0  -0.361227  -0.268907  0  3.57876  0
N  N50  1  0.51842969  0.22478109  0.60494530  1  0  -0.314269  0  3.454488  0  0  -0.23966  0  3.671517  0  0  -0.259884  0  3.681582  0  0  -0.362133  -0.226796  0  3.665716  0
N  N51  1  0.48156873  0.77521758  0.39505637  1  0  -0.314301  0  3.454507  0  0  -0.239735  0  3.6715  0  0  -0.259961  0  3.681567  0  0  -0.362135  -0.226875  0  3.665715  0
