# generated using pymatgen
data_ZnH18C26N4O7
_symmetry_space_group_name_H-M   'P 1'
_cell_length_a   13.35963022
_cell_length_b   13.35959125
_cell_length_c   16.30745941
_cell_angle_alpha   67.67564884
_cell_angle_beta   67.67528313
_cell_angle_gamma   74.15040555
_symmetry_Int_Tables_number   1
_chemical_formula_structural   ZnH18C26N4O7
_chemical_formula_sum   'Zn4 H72 C104 N16 O28'
_cell_volume   2462.20090131
_cell_formula_units_Z   4
loop_
 _symmetry_equiv_pos_site_id
 _symmetry_equiv_pos_as_xyz
  1  'x, y, z'
loop_
 _atom_site_type_symbol
 _atom_site_label
 _atom_site_symmetry_multiplicity
 _atom_site_fract_x
 _atom_site_fract_y
 _atom_site_fract_z
 _atom_site_occupancy
 _atom_site_pbe_bader_charge
 _atom_site_pbe_bader_spin_density
 _atom_site_pbe_cm5_charge
 _atom_site_pbe_ddec_charge
 _atom_site_pbe_ddec_spin_density
 _atom_site_pbe_ddec_sum_bond_order
 _atom_site_pbe_magmom
Zn  Zn0  1  0.38766414  0.19919777  0.05008957  1  1.238778  0  0.69268  0.751975  0  2.313244  0
Zn  Zn1  1  0.80079851  0.61233448  0.44991267  1  1.238794  0  0.692664  0.751981  0  2.313286  0
Zn  Zn2  1  0.61233494  0.80079997  0.94991166  1  1.238775  0  0.692662  0.75197  0  2.31332  0
Zn  Zn3  1  0.19919811  0.38766443  0.55008897  1  1.238756  0  0.692655  0.751967  0  2.313317  0
H  H4  1  0.49589598  0.50036576  0.12589270  1  0.670612  0  0.296262  0.349048  0  1.000865  0
H  H5  1  0.49963630  0.50410724  0.37410624  1  0.670668  0  0.296256  0.349073  0  1.000866  0
H  H6  1  0.50410472  0.49963337  0.87410821  1  0.670618  0  0.296249  0.349039  0  1.00091  0
H  H7  1  0.50036520  0.49589582  0.62589197  1  0.670641  0  0.296259  0.349059  0  1.000894  0
H  H8  1  0.97761529  0.26546776  0.13425056  1  0.441398  0  0.325986  0.283419  0  0.935233  0
H  H9  1  0.73453455  0.02238379  0.36575123  1  0.441378  0  0.325954  0.283383  0  0.935225  0
H  H10  1  0.02238706  0.73453032  0.86574955  1  0.441433  0  0.326006  0.283446  0  0.935254  0
H  H11  1  0.26546778  0.97761753  0.63424972  1  0.441441  0  0.325979  0.283426  0  0.935227  0
H  H12  1  0.63001214  0.09811018  0.08406234  1  0.478674  0  0.307628  0.276549  0  0.993098  0
H  H13  1  0.90189105  0.36998620  0.41593930  1  0.478709  0  0.307616  0.276502  0  0.993101  0
H  H14  1  0.36998448  0.90188873  0.91593991  1  0.478679  0  0.307616  0.276568  0  0.993076  0
H  H15  1  0.09810801  0.63001479  0.58406032  1  0.478645  0  0.307615  0.276512  0  0.993093  0
H  H16  1  0.47507849  0.84402128  0.17845624  1  0.076686  0  0.097888  0.098025  0  1.053289  0
H  H17  1  0.15597809  0.52492208  0.32154541  1  0.076716  0  0.097887  0.098047  0  1.053248  0
H  H18  1  0.52492303  0.15597854  0.82154481  1  0.076709  0  0.097895  0.098049  0  1.05325  0
H  H19  1  0.84402014  0.47508065  0.67845699  1  0.076649  0  0.097854  0.097951  0  1.053318  0
H  H20  1  0.46473747  0.65114079  0.27746120  1  0.096476  0  0.106144  0.105904  0  1.030473  0
H  H21  1  0.34885814  0.53526250  0.22253903  1  0.096495  0  0.106139  0.105884  0  1.030441  0
H  H22  1  0.53526160  0.34885777  0.72253611  1  0.096529  0  0.106131  0.105861  0  1.03048  0
H  H23  1  0.65113845  0.46474209  0.77746269  1  0.096478  0  0.106143  0.105894  0  1.030441  0
H  H24  1  0.14289462  0.75073165  0.44783605  1  0.076956  0  0.100832  0.095297  0  1.043786  0
H  H25  1  0.24926615  0.85710616  0.05216671  1  0.076999  0  0.10083  0.095326  0  1.043786  0
H  H26  1  0.85710691  0.24926655  0.55216428  1  0.076928  0  0.10084  0.095338  0  1.043904  0
H  H27  1  0.75072799  0.14289716  0.94783679  1  0.076923  0  0.100813  0.095299  0  1.043833  0
H  H28  1  0.15125324  0.94290367  0.34284312  1  0.101869  0  0.112616  0.124817  0  0.982972  0
H  H29  1  0.05709561  0.84874738  0.15716159  1  0.101992  0  0.112599  0.124787  0  0.98306  0
H  H30  1  0.84875074  0.05709581  0.65716219  1  0.101972  0  0.112612  0.124793  0  0.98299  0
H  H31  1  0.94290017  0.15125489  0.84284171  1  0.102012  0  0.11261  0.124762  0  0.98305  0
H  H32  1  0.15875274  0.22166146  0.09745330  1  0.165494  0  0.124802  0.113177  0  1.021083  0
H  H33  1  0.77833778  0.84124670  0.40254910  1  0.1654  0  0.124807  0.113114  0  1.021129  0
H  H34  1  0.84124879  0.77833674  0.90254765  1  0.165487  0  0.124813  0.113162  0  1.021068  0
H  H35  1  0.22166129  0.15875348  0.59745322  1  0.165493  0  0.124805  0.113168  0  1.021085  0
H  H36  1  0.35555017  0.43087343  0.07165402  1  0.12709  0  0.117496  0.097958  0  1.014012  0
H  H37  1  0.56912659  0.64444969  0.42834742  1  0.126929  0  0.1175  0.097982  0  1.014008  0
H  H38  1  0.64445218  0.56912465  0.92834609  1  0.127004  0  0.117515  0.098002  0  1.013987  0
H  H39  1  0.43087002  0.35555165  0.57165653  1  0.127051  0  0.117501  0.097987  0  1.013924  0
H  H40  1  0.19408014  0.57754440  0.09545053  1  0.118475  0  0.105395  0.108386  0  1.033728  0
H  H41  1  0.42245711  0.80592034  0.40454992  1  0.118489  0  0.105411  0.108415  0  1.033719  0
H  H42  1  0.80592140  0.42245300  0.90455189  1  0.11845  0  0.105371  0.10834  0  1.033781  0
H  H43  1  0.57754113  0.19408239  0.59545248  1  0.118476  0  0.105385  0.108373  0  1.033789  0
H  H44  1  0.00694693  0.54248012  0.12289541  1  0.151712  0  0.114104  0.131878  0  1.000729  0
H  H45  1  0.45752001  0.99305336  0.37710595  1  0.151722  0  0.114092  0.131857  0  1.000746  0
H  H46  1  0.99305463  0.45751484  0.87710960  1  0.151647  0  0.114094  0.131815  0  1.000752  0
H  H47  1  0.54248068  0.00694901  0.62289273  1  0.151744  0  0.114108  0.131852  0  1.000774  0
H  H48  1  0.66653004  0.49524209  0.13293050  1  0.120838  0  0.10852  0.125902  0  1.030425  0
H  H49  1  0.50475965  0.33347378  0.36706479  1  0.120938  0  0.10852  0.125879  0  1.030489  0
H  H50  1  0.33347394  0.50475737  0.86706500  1  0.120868  0  0.108568  0.125953  0  1.030478  0
H  H51  1  0.49524265  0.66653239  0.63292668  1  0.120615  0  0.108544  0.125938  0  1.030363  0
H  H52  1  0.54829448  0.21591968  0.15267222  1  0.086425  0  0.109505  0.123438  0  1.010881  0
H  H53  1  0.78408025  0.45171042  0.34732713  1  0.086336  0  0.109514  0.123416  0  1.010905  0
H  H54  1  0.45170624  0.78407783  0.84733103  1  0.08638  0  0.109522  0.123459  0  1.010888  0
H  H55  1  0.21592124  0.54829427  0.65267120  1  0.08639  0  0.109507  0.123402  0  1.010914  0
H  H56  1  0.88284042  0.18669714  0.13503184  1  0.062639  0  0.107101  0.108103  0  1.023444  0
H  H57  1  0.81330326  0.11716194  0.36496711  1  0.062464  0  0.107103  0.108091  0  1.023491  0
H  H58  1  0.11716030  0.81330037  0.86496589  1  0.062645  0  0.107098  0.108137  0  1.023395  0
H  H59  1  0.18669904  0.88284262  0.63502977  1  0.062591  0  0.107098  0.10806  0  1.023442  0
H  H60  1  0.77073291  0.84860591  0.22456477  1  0.146339  0  0.111235  0.129092  0  1.038603  0
H  H61  1  0.15139480  0.22926157  0.27543630  1  0.146313  0  0.111278  0.12922  0  1.038459  0
H  H62  1  0.22926616  0.15139346  0.77543412  1  0.146285  0  0.111279  0.129203  0  1.038503  0
H  H63  1  0.84860267  0.77073236  0.72456847  1  0.146335  0  0.111254  0.129185  0  1.038468  0
H  H64  1  0.77258101  0.66319184  0.21764360  1  0.111046  0  0.113439  0.124642  0  0.983857  0
H  H65  1  0.33680948  0.22741248  0.28235706  1  0.11085  0  0.113396  0.124573  0  0.983863  0
H  H66  1  0.22741969  0.33680810  0.78235461  1  0.110986  0  0.113425  0.124621  0  0.983868  0
H  H67  1  0.66318800  0.77257983  0.71764882  1  0.110915  0  0.113427  0.124652  0  0.983898  0
H  H68  1  0.70045483  0.65061689  0.10293952  1  0.127833  0  0.11583  0.089147  0  1.049907  0
H  H69  1  0.34938469  0.29954018  0.39706014  1  0.127807  0  0.115819  0.089151  0  1.049926  0
H  H70  1  0.29954505  0.34938316  0.89705891  1  0.127861  0  0.115836  0.089176  0  1.04989  0
H  H71  1  0.65061358  0.70045688  0.60294218  1  0.127794  0  0.115824  0.089137  0  1.049866  0
H  H72  1  0.61565524  0.98881823  0.00817577  1  0.088403  0  0.124584  0.110202  0  0.994058  0
H  H73  1  0.01118359  0.38434619  0.49182363  1  0.08841  0  0.124583  0.110235  0  0.994057  0
H  H74  1  0.38434138  0.01118068  0.99182587  1  0.088415  0  0.124568  0.110221  0  0.99407  0
H  H75  1  0.98881626  0.61565953  0.50817304  1  0.088792  0  0.124583  0.110235  0  0.994076  0
C  C76  1  0.31501949  0.01965414  0.18997611  1  1.558344  0  0.196674  0.554689  0  4.236082  0
C  C77  1  0.98034686  0.68498245  0.31002516  1  1.558131  0  0.196649  0.554803  0  4.23592  0
C  C78  1  0.68498284  0.98034799  0.81002336  1  1.557978  0  0.196682  0.554749  0  4.236  0
C  C79  1  0.01965220  0.31501935  0.68997421  1  1.558232  0  0.196748  0.555014  0  4.235958  0
C  C80  1  0.31477108  0.90512170  0.25553972  1  -0.044021  0  -0.009681  -0.009605  0  3.953437  0
C  C81  1  0.09487689  0.68522974  0.24446457  1  -0.044073  0  -0.009571  -0.009503  0  3.953385  0
C  C82  1  0.68523209  0.09487626  0.74446201  1  -0.043908  0  -0.009679  -0.009585  0  3.953507  0
C  C83  1  0.90511808  0.31477184  0.75553921  1  -0.043851  0  -0.009695  -0.009675  0  3.953434  0
C  C84  1  0.40305578  0.82275666  0.23805928  1  -0.03197  0  -0.089279  -0.101487  0  3.969988  0
C  C85  1  0.17724240  0.59694549  0.26194239  1  -0.032  0  -0.089343  -0.101596  0  3.970026  0
C  C86  1  0.59694575  0.17724154  0.76194166  1  -0.031932  0  -0.089307  -0.101567  0  3.969923  0
C  C87  1  0.82275420  0.40305747  0.73805983  1  -0.031954  0  -0.089284  -0.101504  0  3.970022  0
C  C88  1  0.39720436  0.71472887  0.29448108  1  -0.004381  0  -0.083894  -0.09337  0  3.969829  0
C  C89  1  0.28527133  0.60279700  0.20551869  1  -0.004647  0  -0.083854  -0.093253  0  3.969647  0
C  C90  1  0.60279634  0.28527107  0.70551651  1  -0.004591  0  -0.083859  -0.093266  0  3.969743  0
C  C91  1  0.71472773  0.39720480  0.79448251  1  -0.004728  0  -0.083856  -0.09328  0  3.969708  0
C  C92  1  0.30399852  0.68782938  0.37149466  1  -0.072753  0  -0.02058  -0.052326  0  3.983719  0
C  C93  1  0.31216929  0.69600272  0.12850459  1  -0.072707  0  -0.020568  -0.052354  0  3.983697  0
C  C94  1  0.69600136  0.31217067  0.62850315  1  -0.072571  0  -0.020575  -0.052308  0  3.983679  0
C  C95  1  0.68782813  0.30399851  0.87149547  1  -0.072739  0  -0.020571  -0.052279  0  3.983668  0
C  C96  1  0.21627871  0.77117793  0.38954033  1  -0.035769  0  -0.085558  -0.085195  0  3.969674  0
C  C97  1  0.22881926  0.78372340  0.11046205  1  -0.035854  0  -0.085543  -0.085187  0  3.969656  0
C  C98  1  0.78372446  0.22882003  0.61045956  1  -0.035765  0  -0.085559  -0.085269  0  3.969804  0
C  C99  1  0.77117897  0.21627933  0.88953973  1  -0.035751  0  -0.085546  -0.085239  0  3.969703  0
C  C100  1  0.22076373  0.87861207  0.33158277  1  0.000538  0  -0.078324  -0.093011  0  3.944184  0
C  C101  1  0.12138657  0.77923717  0.16842229  1  0.000371  0  -0.078378  -0.093097  0  3.944285  0
C  C102  1  0.77923861  0.12138845  0.66842027  1  0.000379  0  -0.078325  -0.092975  0  3.94421  0
C  C103  1  0.87861003  0.22076580  0.83158116  1  0.000431  0  -0.078273  -0.092887  0  3.944291  0
C  C104  1  0.29608676  0.57124529  0.42969161  1  1.536215  0  0.213493  0.577642  0  4.167093  0
C  C105  1  0.42875219  0.70391601  0.07030477  1  1.536255  0  0.213427  0.577571  0  4.167202  0
C  C106  1  0.70391559  0.42875198  0.57030385  1  1.536232  0  0.213439  0.577559  0  4.167153  0
C  C107  1  0.57124604  0.29608753  0.92969493  1  1.536292  0  0.213342  0.577417  0  4.167215  0
C  C108  1  0.16317130  0.30270290  0.09574831  1  0.499731  0  0.045628  -0.013492  0  3.903884  0
C  C109  1  0.69729656  0.83682990  0.40425307  1  0.498045  0  0.045657  -0.013276  0  3.903776  0
C  C110  1  0.83683106  0.69729438  0.90425389  1  0.499673  0  0.045574  -0.013453  0  3.90375  0
C  C111  1  0.30270249  0.16317271  0.59574727  1  0.499839  0  0.045633  -0.013447  0  3.903874  0
C  C112  1  0.27345129  0.41904938  0.08243226  1  0.446217  0  0.039216  0.069908  0  3.92705  0
C  C113  1  0.58094999  0.72654801  0.41756915  1  0.44635  0  0.039215  0.069914  0  3.92703  0
C  C114  1  0.72654943  0.58094732  0.91757002  1  0.446305  0  0.039172  0.069814  0  3.927092  0
C  C115  1  0.41904743  0.27345402  0.58243250  1  0.446171  0  0.039256  0.069966  0  3.9269  0
C  C116  1  0.18284826  0.49949902  0.09635823  1  -0.013206  0  -0.078214  -0.09944  0  3.987927  0
C  C117  1  0.50050127  0.81715042  0.40364296  1  -0.013285  0  -0.078247  -0.099512  0  3.987941  0
C  C118  1  0.81715165  0.50049699  0.90364635  1  -0.012932  0  -0.078202  -0.099397  0  3.987996  0
C  C119  1  0.49949697  0.18285149  0.59635663  1  -0.013161  0  -0.078246  -0.099537  0  3.988053  0
C  C120  1  0.07868233  0.48094969  0.11141180  1  -0.031862  0  -0.066463  -0.115338  0  3.875309  0
C  C121  1  0.51905040  0.92131741  0.38858876  1  -0.031772  0  -0.066461  -0.115258  0  3.875353  0
C  C122  1  0.92131840  0.51904620  0.88859134  1  -0.032179  0  -0.066448  -0.115145  0  3.875286  0
C  C123  1  0.48094948  0.07868427  0.61140917  1  -0.031848  0  -0.066501  -0.115279  0  3.875396  0
C  C124  1  0.06848051  0.37945658  0.11079063  1  0.370514  0  0.109646  0.220005  0  4.006736  0
C  C125  1  0.62054230  0.93151929  0.38921063  1  0.372245  0  0.109618  0.219849  0  4.006865  0
C  C126  1  0.93152022  0.62053850  0.88921276  1  0.370464  0  0.109707  0.21986  0  4.006685  0
C  C127  1  0.37945839  0.06848226  0.61078769  1  0.370485  0  0.109679  0.220014  0  4.006785  0
C  C128  1  0.87067117  0.40868282  0.12485810  1  1.38644  0  0.244055  0.477568  0  4.115321  0
C  C129  1  0.59132183  0.12932998  0.37514242  1  1.386305  0  0.244082  0.477552  0  4.115157  0
C  C130  1  0.12933201  0.59131434  0.87514205  1  1.386216  0  0.244059  0.477503  0  4.115514  0
C  C131  1  0.40868050  0.87067215  0.62485460  1  1.386143  0  0.244139  0.477662  0  4.115149  0
C  C132  1  0.78539224  0.34964071  0.13216547  1  0.015827  0  -0.01937  -0.019389  0  4.038239  0
C  C133  1  0.65036130  0.21461097  0.36783285  1  0.015664  0  -0.019337  -0.01944  0  4.038257  0
C  C134  1  0.21460929  0.65035668  0.86783205  1  0.016216  0  -0.019378  -0.019362  0  4.038241  0
C  C135  1  0.34964100  0.78539358  0.63216158  1  0.015927  0  -0.019332  -0.019459  0  4.038235  0
C  C136  1  0.68130351  0.41039096  0.13474407  1  -0.076507  0  -0.090958  -0.219946  0  3.929132  0
C  C137  1  0.58961215  0.31869901  0.36525214  1  -0.077249  0  -0.090948  -0.219905  0  3.929305  0
C  C138  1  0.31869801  0.58960805  0.86525479  1  -0.077299  0  -0.091046  -0.220073  0  3.929199  0
C  C139  1  0.41039098  0.68130381  0.63474135  1  -0.076164  0  -0.091006  -0.220005  0  3.929089  0
C  C140  1  0.59659554  0.36304836  0.14002864  1  0.496222  0  0.083643  0.334594  0  4.073375  0
C  C141  1  0.63695299  0.40340745  0.35996991  1  0.49651  0  0.083655  0.334612  0  4.073443  0
C  C142  1  0.40340682  0.63694810  0.85997258  1  0.496226  0  0.08372  0.334693  0  4.073481  0
C  C143  1  0.36304851  0.59659479  0.64002610  1  0.496115  0  0.083671  0.334635  0  4.073571  0
C  C144  1  0.61594656  0.25270624  0.14505178  1  0.032726  0  -0.094064  -0.212156  0  3.917278  0
C  C145  1  0.74729592  0.38405822  0.35494620  1  0.032394  0  -0.094067  -0.212119  0  3.917366  0
C  C146  1  0.38405497  0.74729277  0.85494830  1  0.032798  0  -0.094043  -0.21215  0  3.917324  0
C  C147  1  0.25270802  0.61594691  0.64504876  1  0.032739  0  -0.094074  -0.212113  0  3.917409  0
C  C148  1  0.71978257  0.19203743  0.14213535  1  -0.052969  0  -0.022762  -0.021313  0  4.051209  0
C  C149  1  0.80796374  0.28022105  0.35786161  1  -0.052645  0  -0.022772  -0.021328  0  4.051413  0
C  C150  1  0.28021896  0.80796077  0.85786253  1  -0.052983  0  -0.022796  -0.021345  0  4.051276  0
C  C151  1  0.19203856  0.71978351  0.64213220  1  -0.052669  0  -0.022755  -0.021313  0  4.051301  0
C  C152  1  0.80463664  0.23996246  0.13573570  1  -0.000962  0  -0.091173  -0.160134  0  3.978658  0
C  C153  1  0.76003990  0.19536555  0.36426123  1  -0.001181  0  -0.091159  -0.160017  0  3.978714  0
C  C154  1  0.19536488  0.76003654  0.86426009  1  -0.001407  0  -0.091206  -0.160162  0  3.978607  0
C  C155  1  0.23996241  0.80463739  0.63573370  1  -0.001081  0  -0.091158  -0.159991  0  3.97861  0
C  C156  1  0.74562300  0.07388413  0.14844931  1  1.384824  0  0.234787  0.468173  0  4.115939  0
C  C157  1  0.92611528  0.25437972  0.35154930  1  1.384821  0  0.234771  0.467969  0  4.116091  0
C  C158  1  0.25437772  0.92611257  0.85155052  1  1.384818  0  0.234802  0.468191  0  4.115784  0
C  C159  1  0.07388458  0.74562358  0.64844813  1  1.385061  0  0.23478  0.468046  0  4.115999  0
C  C160  1  0.69007040  0.93310853  0.11854817  1  0.386981  0  0.107076  0.215612  0  4.00762  0
C  C161  1  0.06689276  0.30992687  0.38145232  1  0.386536  0  0.107125  0.215669  0  4.007492  0
C  C162  1  0.30992704  0.06689027  0.88145264  1  0.386794  0  0.107078  0.215627  0  4.007696  0
C  C163  1  0.93310795  0.69007226  0.61854736  1  0.387244  0  0.107186  0.21583  0  4.007512  0
C  C164  1  0.73640129  0.83994341  0.17744805  1  0.012698  0  -0.066339  -0.12321  0  3.892787  0
C  C165  1  0.16005963  0.26359305  0.32255303  1  0.013037  0  -0.066367  -0.123366  0  3.892822  0
C  C166  1  0.26359532  0.16005712  0.82255187  1  0.012982  0  -0.066397  -0.123346  0  3.892853  0
C  C167  1  0.83993946  0.73640308  0.67744932  1  0.012165  0  -0.066379  -0.123401  0  3.892816  0
C  C168  1  0.73847229  0.73760233  0.17275525  1  0.000406  0  -0.077584  -0.095607  0  3.968947  0
C  C169  1  0.26239845  0.26152225  0.32724616  1  0.000499  0  -0.077495  -0.095433  0  3.969006  0
C  C170  1  0.26152760  0.26239692  0.82724342  1  0.000413  0  -0.077492  -0.095456  0  3.969066  0
C  C171  1  0.73760147  0.73847133  0.67275917  1  0.000799  0  -0.077554  -0.09558  0  3.969016  0
C  C172  1  0.69747360  0.72945354  0.10935124  1  0.441082  0  0.038645  0.070445  0  3.93736  0
C  C173  1  0.27054886  0.30252225  0.39064813  1  0.441101  0  0.038535  0.070318  0  3.937471  0
C  C174  1  0.30252547  0.27054663  0.89064740  1  0.441089  0  0.038521  0.070248  0  3.937477  0
C  C175  1  0.72945023  0.69747388  0.60935360  1  0.441122  0  0.038604  0.070453  0  3.937204  0
C  C176  1  0.65106121  0.91861142  0.05579916  1  0.500066  0  0.046194  -0.007354  0  3.891057  0
C  C177  1  0.08139120  0.34893784  0.44420105  1  0.500071  0  0.046183  -0.007411  0  3.891142  0
C  C178  1  0.34893622  0.08138899  0.94420115  1  0.50009  0  0.046209  -0.007387  0  3.891162  0
C  C179  1  0.91860948  0.65106453  0.55579763  1  0.499416  0  0.046206  -0.007414  0  3.891179  0
N  N180  1  0.26279958  0.32142137  0.08242591  1  -1.252525  0  -0.328291  -0.222684  0  3.63083  0
N  N181  1  0.67857778  0.73720071  0.41757623  1  -1.252487  0  -0.328299  -0.222793  0  3.630783  0
N  N182  1  0.73720197  0.67857521  0.91757676  1  -1.252333  0  -0.328272  -0.222703  0  3.630766  0
N  N183  1  0.32141963  0.26280213  0.58242455  1  -1.252574  0  -0.328305  -0.222733  0  3.630881  0
N  N184  1  0.97150332  0.34654973  0.12401970  1  -1.227637  0  -0.3931  -0.365958  0  3.59082  0
N  N185  1  0.65345238  0.02849721  0.37598134  1  -1.227628  0  -0.393034  -0.365848  0  3.59082  0
N  N186  1  0.02849986  0.65344662  0.87598192  1  -1.227566  0  -0.393178  -0.365923  0  3.590892  0
N  N187  1  0.34654994  0.97150493  0.62401629  1  -1.22771  0  -0.393081  -0.365957  0  3.590903  0
N  N188  1  0.68014586  0.03943824  0.11929338  1  -1.238497  0  -0.394243  -0.376544  0  3.571287  0
N  N189  1  0.96056341  0.31985130  0.38070696  1  -1.238649  0  -0.394277  -0.376408  0  3.571195  0
N  N190  1  0.31985075  0.96056148  0.88070801  1  -1.238608  0  -0.39421  -0.376532  0  3.571253  0
N  N191  1  0.03943647  0.68014957  0.61929183  1  -1.238774  0  -0.394328  -0.376542  0  3.571282  0
N  N192  1  0.65536783  0.81910418  0.05143354  1  -1.267033  0  -0.334928  -0.229042  0  3.633793  0
N  N193  1  0.18089869  0.34462910  0.44856635  1  -1.266735  0  -0.334912  -0.22905  0  3.633855  0
N  N194  1  0.34462878  0.18089635  0.94856699  1  -1.26701  0  -0.334927  -0.229023  0  3.633743  0
N  N195  1  0.81910038  0.65537108  0.55143352  1  -1.266765  0  -0.334947  -0.229079  0  3.633919  0
O  O196  1  0.40985705  0.05307433  0.14257419  1  -1.168302  0  -0.346849  -0.564446  0  2.279525  0
O  O197  1  0.94692394  0.59014358  0.35742632  1  -1.168232  0  -0.346908  -0.564562  0  2.279506  0
O  O198  1  0.59014531  0.94692213  0.85742520  1  -1.168225  0  -0.346927  -0.564544  0  2.27954  0
O  O199  1  0.05307185  0.40985625  0.64257344  1  -1.168299  0  -0.34693  -0.564633  0  2.279636  0
O  O200  1  0.22606042  0.07649692  0.18174998  1  -1.17379  0  -0.315302  -0.537997  0  2.15735  0
O  O201  1  0.92350132  0.77394266  0.31825282  1  -1.173649  0  -0.315251  -0.538002  0  2.157192  0
O  O202  1  0.77394601  0.92350300  0.81825135  1  -1.173659  0  -0.315254  -0.53798  0  2.157117  0
O  O203  1  0.07649446  0.22605961  0.68174926  1  -1.173797  0  -0.315318  -0.53812  0  2.157293  0
O  O204  1  0.37322184  0.49547640  0.41198132  1  -1.192373  0  -0.306931  -0.550768  0  2.240452  0
O  O205  1  0.50452093  0.62678034  0.08801117  1  -1.192288  0  -0.306868  -0.550673  0  2.240461  0
O  O206  1  0.62677805  0.50452122  0.58801234  1  -1.192336  0  -0.306888  -0.550709  0  2.240454  0
O  O207  1  0.49547483  0.37322436  0.91198954  1  -1.192428  0  -0.306798  -0.550606  0  2.240325  0
O  O208  1  0.20606828  0.54979410  0.49721895  1  -1.184635  0  -0.3209  -0.548867  0  2.346872  0
O  O209  1  0.45020335  0.79393318  0.00277927  1  -1.184718  0  -0.320902  -0.54885  0  2.346821  0
O  O210  1  0.79393243  0.45020341  0.50277878  1  -1.184699  0  -0.320879  -0.548794  0  2.34681  0
O  O211  1  0.54979488  0.20606874  0.99722032  1  -1.184663  0  -0.320885  -0.548811  0  2.346914  0
O  O212  1  0.85190193  0.50694295  0.11865086  1  -1.145236  0  -0.28433  -0.478682  0  2.158154  0
O  O213  1  0.49306018  0.14809820  0.38135385  1  -1.145069  0  -0.284401  -0.478707  0  2.157954  0
O  O214  1  0.14809882  0.49305051  0.88135487  1  -1.145366  0  -0.284264  -0.478635  0  2.158178  0
O  O215  1  0.50694214  0.85190474  0.61864415  1  -1.145115  0  -0.284419  -0.478755  0  2.157908  0
O  O216  1  0.49531113  0.41929328  0.14173147  1  -1.207566  0  -0.36261  -0.472983  0  2.319881  0
O  O217  1  0.58070774  0.50469024  0.35826937  1  -1.20764  0  -0.362627  -0.473034  0  2.319931  0
O  O218  1  0.50468794  0.58070690  0.85826901  1  -1.207585  0  -0.362633  -0.473023  0  2.320087  0
O  O219  1  0.41929376  0.49531282  0.64172884  1  -1.207577  0  -0.362626  -0.473016  0  2.32003  0
O  O220  1  0.82135301  0.01261861  0.17736093  1  -1.133888  0  -0.289352  -0.465269  0  2.104258  0
O  O221  1  0.98738087  0.17864909  0.32263439  1  -1.133866  0  -0.289313  -0.465184  0  2.104247  0
O  O222  1  0.17864852  0.98737959  0.82263450  1  -1.133849  0  -0.28935  -0.465306  0  2.104124  0
O  O223  1  0.01261819  0.82135189  0.67736523  1  -1.133881  0  -0.289318  -0.465214  0  2.104262  0
