# generated using pymatgen
data_CdH8C8(ClO3)2
_symmetry_space_group_name_H-M   'P 1'
_cell_length_a   4.92784275
_cell_length_b   7.48155379
_cell_length_c   8.42957625
_cell_angle_alpha   99.48374811
_cell_angle_beta   100.31869520
_cell_angle_gamma   99.77877165
_symmetry_Int_Tables_number   1
_chemical_formula_structural   CdH8C8(ClO3)2
_chemical_formula_sum   'Cd1 H8 C8 Cl2 O6'
_cell_volume   295.14273106
_cell_formula_units_Z   1
loop_
 _symmetry_equiv_pos_site_id
 _symmetry_equiv_pos_as_xyz
  1  'x, y, z'
loop_
 _atom_site_type_symbol
 _atom_site_label
 _atom_site_symmetry_multiplicity
 _atom_site_fract_x
 _atom_site_fract_y
 _atom_site_fract_z
 _atom_site_occupancy
 _atom_site_hle17_bader_spin_density
 _atom_site_hle17_ddec_charge
 _atom_site_hle17_ddec_spin_density
 _atom_site_hle17_ddec_sum_bond_order
 _atom_site_hle17_magmom
 _atom_site_hse06_10hf_bader_spin_density
 _atom_site_hse06_10hf_ddec_charge
 _atom_site_hse06_10hf_ddec_spin_density
 _atom_site_hse06_10hf_ddec_sum_bond_order
 _atom_site_hse06_10hf_magmom
 _atom_site_hse06_bader_spin_density
 _atom_site_hse06_ddec_charge
 _atom_site_hse06_ddec_spin_density
 _atom_site_hse06_ddec_sum_bond_order
 _atom_site_hse06_magmom
 _atom_site_pbe_bader_spin_density
 _atom_site_pbe_cm5_charge
 _atom_site_pbe_ddec_charge
 _atom_site_pbe_ddec_spin_density
 _atom_site_pbe_ddec_sum_bond_order
 _atom_site_pbe_magmom
Cd  Cd0  1  0.99999734  0.50000046  0.99999978  1  0  1.225836  0  1.595968  0  0  1.051821  0  2.025461  0  0  1.110135  0  1.96759  0  0  0.794812  1.010084  0  2.065384  0
H  H1  1  0.77362647  0.02505688  0.10849952  1  0  0.083011  0  0.950094  0  0  0.098664  0  1.01613  0  0  0.099805  0  1.01564  0  0  0.088376  0.097775  0  1.016576  0
H  H2  1  0.22636859  0.97494143  0.89149873  1  0  0.08301  0  0.950108  0  0  0.098668  0  1.016128  0  0  0.099809  0  1.015638  0  0  0.088368  0.097777  0  1.016575  0
H  H3  1  0.97655843  0.90257349  0.23209639  1  0  0.082337  0  0.951222  0  0  0.101801  0  1.013366  0  0  0.101964  0  1.013739  0  0  0.089699  0.101598  0  1.013181  0
H  H4  1  0.02343913  0.09742621  0.76790114  1  0  0.082344  0  0.951203  0  0  0.10178  0  1.013372  0  0  0.101939  0  1.013758  0  0  0.089675  0.101575  0  1.013184  0
H  H5  1  0.60151585  0.84711902  0.19919040  1  0  0.077947  0  0.973445  0  0  0.087697  0  1.052209  0  0  0.089591  0  1.050213  0  0  0.084272  0.086276  0  1.053686  0
H  H6  1  0.39847921  0.15287930  0.80080666  1  0  0.077956  0  0.97344  0  0  0.087701  0  1.052206  0  0  0.089597  0  1.050209  0  0  0.084279  0.086278  0  1.053682  0
H  H7  1  0.59688427  0.72391140  0.92351012  1  0  0.371259  0  0.921711  0  0  0.344607  0  0.997796  0  0  0.355279  0  0.985705  0  0  0.292611  0.337044  0  1.006281  0
H  H8  1  0.40311167  0.27608969  0.07648744  1  0  0.371281  0  0.921693  0  0  0.344633  0  0.997769  0  0  0.355302  0  0.985686  0  0  0.292618  0.337069  0  1.006263  0
C  C9  1  0.74031044  0.36073773  0.45387093  1  0  -0.15447  0  3.81475  0  0  -0.157947  0  4.111084  0  0  -0.175108  0  4.135691  0  0  -0.042893  -0.146913  0  4.094564  0
C  C10  1  0.25969581  0.63926335  0.54613007  1  0  -0.154644  0  3.814681  0  0  -0.158125  0  4.110982  0  0  -0.175288  0  4.13559  0  0  -0.042961  -0.147086  0  4.094451  0
C  C11  1  0.85653208  0.42711127  0.33002650  1  0  0.291782  0  3.827809  0  0  0.260928  0  4.106571  0  0  0.28244  0  4.114418  0  0  0.110547  0.246565  0  4.100778  0
C  C12  1  0.14347625  0.57288979  0.66998064  1  0  0.291748  0  3.827895  0  0  0.260977  0  4.10651  0  0  0.282488  0  4.114356  0  0  0.110514  0.246615  0  4.100709  0
C  C13  1  0.77991620  0.89015885  0.14274849  1  0  -0.02531  0  3.628196  0  0  -0.115287  0  3.889718  0  0  -0.109235  0  3.893914  0  0  -0.162595  -0.11931  0  3.8868  0
C  C14  1  0.22008093  0.10983947  0.85724878  1  0  -0.025309  0  3.628122  0  0  -0.115261  0  3.889643  0  0  -0.109213  0  3.893836  0  0  -0.162568  -0.119285  0  3.88672  0
C  C15  1  0.86533546  0.42833650  0.62185636  1  0  0.29844  0  3.831581  0  0  0.272822  0  4.107165  0  0  0.295782  0  4.11304  0  0  0.116469  0.257384  0  4.102682  0
C  C16  1  0.13467241  0.57166321  0.37814105  1  0  0.298476  0  3.831695  0  0  0.272852  0  4.107315  0  0  0.295811  0  4.113192  0  0  0.116434  0.257414  0  4.102838  0
Cl  Cl17  1  0.43031511  0.19702704  0.40111791  1  0  -0.039199  0  1.451464  0  0  -0.024394  0  1.699259  0  0  -0.026309  0  1.697574  0  0  0.016333  -0.022737  0  1.700456  0
Cl  Cl18  1  0.56968419  0.80297820  0.59888062  1  0  -0.039156  0  1.451449  0  0  -0.02435  0  1.699243  0  0  -0.026265  0  1.69756  0  0  0.016352  -0.022696  0  1.700438  0
O  O19  1  0.74530973  0.37565984  0.17692156  1  0  -0.534664  0  2.13017  0  0  -0.465468  0  2.371408  0  0  -0.492607  0  2.36485  0  0  -0.284679  -0.4466  0  2.375436  0
O  O20  1  0.25469196  0.62433986  0.82307994  1  0  -0.534592  0  2.130279  0  0  -0.465443  0  2.371506  0  0  -0.492583  0  2.364941  0  0  -0.284655  -0.44658  0  2.375528  0
O  O21  1  0.75844893  0.37513760  0.73606916  1  0  -0.496808  0  2.060322  0  0  -0.436487  0  2.302897  0  0  -0.461681  0  2.296871  0  0  -0.282114  -0.419044  0  2.306571  0
O  O22  1  0.24155277  0.62486207  0.26393591  1  0  -0.496804  0  2.060503  0  0  -0.436489  0  2.3031  0  0  -0.461681  0  2.297078  0  0  -0.282126  -0.41905  0  2.306781  0
O  O23  1  0.78362742  0.75439912  0.00064858  1  0  -0.567219  0  2.200266  0  0  -0.492831  0  2.453452  0  0  -0.514967  0  2.441231  0  0  -0.423376  -0.477059  0  2.461451  0
O  O24  1  0.21637058  0.24560196  0.99935038  1  0  -0.567253  0  2.20021  0  0  -0.492868  0  2.45338  0  0  -0.515003  0  2.441165  0  0  -0.423392  -0.477095  0  2.46138  0
