# generated using pymatgen
data_AlH24C45(NO4)3
_symmetry_space_group_name_H-M   'P 1'
_cell_length_a   3.99493255
_cell_length_b   23.59459167
_cell_length_c   23.55258128
_cell_angle_alpha   60.03664981
_cell_angle_beta   87.84707781
_cell_angle_gamma   88.11894335
_symmetry_Int_Tables_number   1
_chemical_formula_structural   AlH24C45(NO4)3
_chemical_formula_sum   'Al1 H24 C45 N3 O12'
_cell_volume   1921.70784235
_cell_formula_units_Z   1
loop_
 _symmetry_equiv_pos_site_id
 _symmetry_equiv_pos_as_xyz
  1  'x, y, z'
loop_
 _atom_site_type_symbol
 _atom_site_label
 _atom_site_symmetry_multiplicity
 _atom_site_fract_x
 _atom_site_fract_y
 _atom_site_fract_z
 _atom_site_occupancy
 _atom_site_pbe_bader_charge
 _atom_site_pbe_bader_spin_density
 _atom_site_pbe_cm5_charge
 _atom_site_pbe_ddec_charge
 _atom_site_pbe_ddec_spin_density
 _atom_site_pbe_ddec_sum_bond_order
 _atom_site_pbe_magmom
Al  Al0  1  0.04161361  0.49962364  0.49908630  1  2.503859  0  0.428267  1.596799  0  2.571902  0
H  H1  1  0.58269762  0.32006317  0.67511645  1  0.051741  0  0.111341  0.114191  0  0.976278  0
H  H2  1  0.55937544  0.25467149  0.79428943  1  0.136292  0  0.109185  0.112649  0  1.011034  0
H  H3  1  0.74043424  0.15479063  0.01945874  1  0.073253  0  0.111766  0.119692  0  1.008229  0
H  H4  1  0.48765219  0.68609088  0.31674805  1  0.085644  0  0.108638  0.110605  0  0.983069  0
H  H5  1  0.53193930  0.80584676  0.26135613  1  0.017522  0  0.099241  0.094297  0  1.014614  0
H  H6  1  0.27223728  0.88925370  0.23548770  1  0.071574  0  0.105813  0.107599  0  1.004955  0
H  H7  1  0.23646169  0.00756259  0.17066905  1  0.013386  0  0.105305  0.107223  0  0.993342  0
H  H8  1  0.46298443  0.10332887  0.10844612  1  0.02574  0  0.102073  0.10305  0  1.021484  0
H  H9  1  0.57791261  0.67507625  0.50335663  1  0.07324  0  0.111385  0.114092  0  0.977014  0
H  H10  1  0.55281170  0.79400983  0.45038859  1  0.09614  0  0.109189  0.111898  0  1.009615  0
H  H11  1  0.73166348  0.01966076  0.32363098  1  0.095107  0  0.111902  0.119377  0  1.011149  0
H  H12  1  0.56651367  0.31707952  0.49594303  1  0.112532  0  0.108735  0.111406  0  0.982495  0
H  H13  1  0.61287440  0.26133199  0.43094299  1  0.005849  0  0.098982  0.093459  0  1.012466  0
H  H14  1  0.30228798  0.23726190  0.37690358  1  0.065948  0  0.106089  0.108303  0  1.002473  0
H  H15  1  0.24934046  0.17204948  0.32394040  1  0.079663  0  0.105731  0.108226  0  0.990843  0
H  H16  1  0.48797717  0.10834290  0.28828332  1  0.017488  0  0.10251  0.104021  0  1.02126  0
H  H17  1  0.58373786  0.50360884  0.31807051  1  0.060049  0  0.111147  0.11359  0  0.976785  0
H  H18  1  0.57083819  0.44899706  0.25311258  1  0.049108  0  0.108733  0.112639  0  1.005775  0
H  H19  1  0.78428106  0.31960165  0.15453631  1  0.121773  0  0.111343  0.11874  0  1.016944  0
H  H20  1  0.47515080  0.49651196  0.68574804  1  0.097597  0  0.108631  0.110691  0  0.98306  0
H  H21  1  0.51710979  0.43201610  0.80574106  1  0.031313  0  0.099292  0.094701  0  1.013542  0
H  H22  1  0.25177337  0.37598566  0.89002017  1  0.092072  0  0.106156  0.10786  0  1.003512  0
H  H23  1  0.21815321  0.32239736  0.00893792  1  0.072534  0  0.105892  0.108156  0  0.991648  0
H  H24  1  0.48672965  0.28777052  0.10345359  1  0.095468  0  0.103127  0.105509  0  1.017955  0
C  C25  1  0.52985468  0.44999694  0.59962944  1  1.574355  0  0.280402  0.661859  0  4.05633  0
C  C26  1  0.56190472  0.44914525  0.44897596  1  1.558741  0  0.281027  0.660688  0  4.057904  0
C  C27  1  0.53332143  0.59997227  0.44857790  1  1.560432  0  0.280248  0.659287  0  4.058375  0
C  C28  1  0.56221674  0.34430398  0.70420790  1  -0.00321  0  -0.077256  -0.086514  0  3.960636  0
C  C29  1  0.55791866  0.30744946  0.77207827  1  -0.047799  0  -0.081929  -0.094898  0  3.954143  0
C  C30  1  0.65621483  0.23554849  0.92435259  1  0.087262  0  0.07924  0.034967  0  3.893862  0
C  C31  1  0.63101574  0.20374142  0.99241736  1  0.106935  0  -0.083488  -0.17581  0  3.969349  0
C  C32  1  0.51116931  0.71022330  0.34556703  1  -0.1544  0  -0.082803  -0.094793  0  3.987612  0
C  C33  1  0.53021576  0.77804502  0.31475400  1  0.059304  0  -0.088922  -0.127948  0  3.986983  0
C  C34  1  0.38857841  0.91761604  0.25410950  1  -0.056258  0  -0.084974  -0.120229  0  3.976455  0
C  C35  1  0.36459847  0.98539391  0.21720964  1  0.101284  0  -0.084643  -0.116024  0  3.978543  0
C  C36  1  0.52896913  0.41248134  0.67251390  1  0.008953  0  -0.002857  -0.019236  0  3.960623  0
C  C37  1  0.54291012  0.33750060  0.81084807  1  0.008587  0  -0.007717  0.062149  0  3.981817  0
C  C38  1  0.53461217  0.30005128  0.88349723  1  0.119578  0  0.008918  0.03774  0  3.937641  0
C  C39  1  0.48322552  0.23403301  0.02530981  1  -0.020815  0  -0.007793  0.072098  0  4.013127  0
C  C40  1  0.47215300  0.19958472  0.09768897  1  0.037612  0  -0.006923  0.081907  0  4.021884  0
C  C41  1  0.46747858  0.13098615  0.13412857  1  0.062481  0  -0.086794  -0.176341  0  3.921695  0
C  C42  1  0.56148860  0.70423437  0.45020610  1  0.001507  0  -0.076842  -0.086113  0  3.959538  0
C  C43  1  0.55675896  0.77197905  0.41955205  1  0.012165  0  -0.082068  -0.093992  0  3.950706  0
C  C44  1  0.65336292  0.92458735  0.33868611  1  0.185839  0  0.078613  0.034564  0  3.890682  0
C  C45  1  0.62853731  0.99248182  0.30243830  1  -0.020963  0  -0.083351  -0.174318  0  3.969572  0
C  C46  1  0.57571330  0.34569522  0.44255985  1  -0.155302  0  -0.083791  -0.09894  0  3.991853  0
C  C47  1  0.59655235  0.31461753  0.40548446  1  -0.012244  0  -0.089385  -0.126504  0  3.990735  0
C  C48  1  0.42217165  0.25437865  0.32890157  1  0.019215  0  -0.084996  -0.12194  0  3.975287  0
C  C49  1  0.38876375  0.21744955  0.29845501  1  -0.127891  0  -0.082959  -0.113945  0  3.975488  0
C  C50  1  0.53358494  0.67268370  0.41371824  1  0.076196  0  -0.002999  -0.019275  0  3.961258  0
C  C51  1  0.54830340  0.81081008  0.35084549  1  -0.030808  0  -0.007218  0.064174  0  3.976854  0
C  C52  1  0.54087380  0.88336469  0.31591441  1  -0.009202  0  0.010251  0.038326  0  3.935092  0
C  C53  1  0.48828398  0.02500311  0.24040698  1  -0.047437  0  -0.008166  0.070928  0  4.012254  0
C  C54  1  0.47457346  0.09726233  0.20274499  1  -0.048861  0  -0.006891  0.081426  0  4.022708  0
C  C55  1  0.48152611  0.13369635  0.23495031  1  -0.015077  0  -0.087114  -0.176572  0  3.923296  0
C  C56  1  0.58597426  0.45033846  0.34260212  1  0.012688  0  -0.077453  -0.089115  0  3.960016  0
C  C57  1  0.58653592  0.41909417  0.30594022  1  0.001305  0  -0.081215  -0.091256  0  3.94894  0
C  C58  1  0.71015166  0.33615494  0.23487650  1  0.179662  0  0.078111  0.033084  0  3.888865  0
C  C59  1  0.67497663  0.29992832  0.20363266  1  -0.019249  0  -0.083074  -0.173507  0  3.967001  0
C  C60  1  0.50141858  0.44340421  0.70999051  1  0.078757  0  -0.083003  -0.096627  0  3.988834  0
C  C61  1  0.51958685  0.40639326  0.77795310  1  -0.186927  0  -0.088925  -0.127071  0  3.987132  0
C  C62  1  0.37392564  0.32832135  0.91815610  1  -0.042353  0  -0.084035  -0.118772  0  3.974359  0
C  C63  1  0.35096813  0.29745526  0.98614522  1  -0.083655  0  -0.084625  -0.116897  0  3.977318  0
C  C64  1  0.57528366  0.41400437  0.41114842  1  0.113175  0  -0.002451  -0.016898  0  3.95972  0
C  C65  1  0.59731613  0.35043241  0.33643952  1  0.044118  0  -0.008156  0.061717  0  3.981711  0
C  C66  1  0.58813747  0.31489770  0.29949531  1  0.039698  0  0.011615  0.042094  0  3.937863  0
C  C67  1  0.51628199  0.23953986  0.23449999  1  0.040495  0  -0.008304  0.070136  0  4.011781  0
C  C68  1  0.48808346  0.20214575  0.19999559  1  0.025975  0  -0.007459  0.081653  0  4.023888  0
C  C69  1  0.48053845  0.23449252  0.13131112  1  -0.07897  0  -0.086667  -0.177509  0  3.920773  0
N  N70  1  0.89341080  0.39762310  0.19422687  1  0.378937  0  0.054919  0.517617  0  4.195972  0
N  N71  1  0.82857755  0.19499140  0.90017024  1  0.382548  0  0.05539  0.519108  0  4.20153  0
N  N72  1  0.81300752  0.90121324  0.40246203  1  0.387491  0  0.055671  0.518135  0  4.199604  0
O  O73  1  0.30592266  0.57177894  0.43549456  1  -1.248308  0  -0.237225  -0.59521  0  2.340217  0
O  O74  1  0.29168210  0.49100420  0.57146939  1  -1.256834  0  -0.236398  -0.594206  0  2.339031  0
O  O75  1  0.32109239  0.43636274  0.49054451  1  -1.261378  0  -0.236493  -0.595389  0  2.344054  0
O  O76  1  0.76253685  0.57075007  0.49032561  1  -1.252183  0  -0.236587  -0.601874  0  2.365463  0
O  O77  1  0.79138345  0.49046051  0.43627267  1  -1.250684  0  -0.236175  -0.59816  0  2.355205  0
O  O78  1  0.77102485  0.43732588  0.57036160  1  -1.260285  0  -0.23703  -0.601931  0  2.362653  0
O  O79  1  0.08674331  0.41574761  0.22168394  1  -0.475168  0  -0.114261  -0.335292  0  2.060061  0
O  O80  1  0.84909663  0.42648930  0.13431967  1  -0.435126  0  -0.140258  -0.333531  0  1.87352  0
O  O81  1  0.05071284  0.22037855  0.85724436  1  -0.456361  0  -0.11488  -0.334214  0  2.052347  0
O  O82  1  0.74499665  0.13701093  0.92635014  1  -0.445763  0  -0.136824  -0.328929  0  1.8704  0
O  O83  1  0.03171822  0.85777101  0.41963505  1  -0.475958  0  -0.114412  -0.333645  0  2.05857  0
O  O84  1  0.72288736  0.92852355  0.43391993  1  -0.430719  0  -0.137089  -0.328998  0  1.870163  0
