# generated using pymatgen
data_CoH19C23N3O8
_symmetry_space_group_name_H-M   'P 1'
_cell_length_a   7.22709178
_cell_length_b   7.91155552
_cell_length_c   10.42230944
_cell_angle_alpha   83.83596504
_cell_angle_beta   72.45140428
_cell_angle_gamma   64.48530620
_symmetry_Int_Tables_number   1
_chemical_formula_structural   CoH19C23N3O8
_chemical_formula_sum   'Co1 H19 C23 N3 O8'
_cell_volume   512.60069326
_cell_formula_units_Z   1
loop_
 _symmetry_equiv_pos_site_id
 _symmetry_equiv_pos_as_xyz
  1  'x, y, z'
loop_
 _atom_site_type_symbol
 _atom_site_label
 _atom_site_symmetry_multiplicity
 _atom_site_fract_x
 _atom_site_fract_y
 _atom_site_fract_z
 _atom_site_occupancy
 _atom_site_pbe_cm5_charge
 _atom_site_pbe_ddec_charge
 _atom_site_pbe_ddec_spin_density
 _atom_site_pbe_ddec_sum_bond_order
 _atom_site_pbe_magmom
Co  Co0  1  0.49712034  0.49554354  0.49990549  1  0.670428  0.936791  2.853788  2.389383  2.598
H  H1  1  0.94914661  0.49038189  0.50973309  1  0.318449  0.273136  0.000831  0.998619  0.001
H  H2  1  0.68411383  0.26668007  0.09243074  1  0.112028  0.128861  7e-05  0.987659  0.0
H  H3  1  0.58880101  0.08517880  0.29103512  1  0.107193  0.107957  -4.3e-05  1.014049  0.0
H  H4  1  0.29936990  0.98278489  0.31941522  1  0.104912  0.109668  8.9e-05  1.036601  0.0
H  H5  1  0.09480777  0.06831338  0.14896499  1  0.106711  0.108641  -3.7e-05  1.00181  0.0
H  H6  1  0.04713447  0.21915634  0.92927896  1  0.113894  0.112736  -0.000119  1.012185  0.0
H  H7  1  0.27274168  0.69984659  0.14372824  1  0.102764  0.105862  0.000385  1.027301  0.0
H  H8  1  0.24096724  0.84315683  0.92028011  1  0.097291  0.101953  -9.1e-05  1.010511  0.0
H  H9  1  0.04349668  0.94229492  0.74763258  1  0.094912  0.097072  -1.3e-05  1.035965  0.0
H  H10  1  0.71830837  0.88493643  0.78080428  1  0.094455  0.095925  -6.5e-05  1.027827  0.0
H  H11  1  0.58868126  0.73299643  0.98517991  1  0.096805  0.098176  -1.1e-05  1.010909  0.0
H  H12  1  0.61869407  0.59759367  0.20808395  1  0.100489  0.12864  3e-05  1.063596  0.0
H  H13  1  0.79153886  0.53616537  0.70605403  1  0.107877  0.163749  -0.000911  1.021704  -0.001
H  H14  1  0.83941475  0.39705948  0.84518243  1  0.09442  0.136044  0.000277  1.044677  0.0
H  H15  1  0.91920612  0.28931567  0.68481438  1  0.104309  0.155349  -0.001528  0.995209  -0.001
H  H16  1  0.84679418  0.02021585  0.58624835  1  0.090682  0.087512  0.000104  1.023267  0.0
H  H17  1  0.94956528  0.15774505  0.46229690  1  0.097615  0.102109  7.1e-05  1.03351  0.001
H  H18  1  0.92994927  0.95828019  0.41183101  1  0.089068  0.09148  0.001227  1.004917  0.002
H  H19  1  0.54194017  0.14036593  0.51154321  1  0.296896  0.325493  0.000453  1.014234  0.001
C  C20  1  0.41512442  0.40041065  0.79407387  1  0.245799  0.528439  -0.00116  4.03548  0.0
C  C21  1  0.44712507  0.26252687  0.00891344  1  0.101003  0.23383  -0.003347  3.998741  -0.002
C  C22  1  0.55853410  0.21999396  0.10458268  1  -0.087995  -0.185797  0.000824  3.972611  0.001
C  C23  1  0.50322162  0.11902514  0.21528063  1  -0.068203  -0.015443  -0.006045  3.932894  -0.003
C  C24  1  0.33731631  0.06293231  0.23178656  1  -0.087465  -0.089139  0.000912  3.975301  0.001
C  C25  1  0.22530193  0.10899486  0.13707321  1  -0.0759  -0.096628  -0.005519  3.946452  -0.003
C  C26  1  0.27945607  0.20970493  0.02221871  1  -0.020849  -0.018039  0.000795  4.101253  0.002
C  C27  1  0.17537026  0.26163252  0.91956276  1  -0.045792  -0.056144  -0.018485  3.89468  -0.011
C  C28  1  0.23446816  0.35805367  0.80762592  1  -0.014957  -0.153804  0.00111  3.998352  0.005
C  C29  1  0.11947255  0.41376082  0.70612697  1  0.141949  0.286391  -0.029252  3.938508  -0.018
C  C30  1  0.17811936  0.55162135  0.37139469  1  0.243398  0.455646  -0.007564  4.094921  -0.005
C  C31  1  0.05428534  0.59862090  0.27403314  1  -0.031647  -0.155203  0.006699  3.982775  0.01
C  C32  1  0.12901381  0.67859427  0.15580079  1  -0.084764  -0.133768  -0.004599  3.988484  -0.003
C  C33  1  0.02428050  0.73505472  0.05445919  1  -0.02855  0.033514  0.001977  4.052091  0.003
C  C34  1  0.09607677  0.82229037  0.93531964  1  -0.098133  -0.1383  -0.002553  4.007096  -0.002
C  C35  1  0.98674023  0.87724656  0.83936254  1  -0.108658  -0.106572  0.002108  4.027978  0.003
C  C36  1  0.80230546  0.84425565  0.85813513  1  -0.09581  -0.075555  -0.002802  4.008771  -0.002
C  C37  1  0.73023351  0.75832148  0.97188303  1  -0.096089  -0.13675  0.001908  3.970659  0.002
C  C38  1  0.83668108  0.70214449  0.07435448  1  -0.010469  0.100027  -0.002767  4.038784  -0.002
C  C39  1  0.76258749  0.61913280  0.19331648  1  -0.123246  -0.300603  0.007022  3.943965  0.009
C  C40  1  0.86203681  0.56799877  0.29683026  1  0.084117  0.32843  -0.002653  4.099499  -0.002
C  C41  1  0.90741821  0.40806071  0.73785643  1  -0.247205  -0.483509  0.001469  3.951073  0.004
C  C42  1  0.85421631  0.07641833  0.48470264  1  -0.154571  -0.111067  0.002059  3.897783  0.002
N  N43  1  0.20427799  0.46423654  0.58703728  1  -0.216996  -0.194024  0.032722  3.465072  0.055
N  N44  1  0.09075408  0.50459244  0.49609050  1  -0.285116  -0.19219  0.001845  3.611762  0.003
N  N45  1  0.43379489  0.88529980  0.56036711  1  0.102492  0.721059  -0.003423  4.379226  -0.003
O  O46  1  0.50038755  0.47375493  0.69753988  1  -0.264633  -0.476201  0.031038  2.473131  0.047
O  O47  1  0.50718124  0.35685144  0.89778921  1  -0.109951  -0.192975  0.00289  2.587231  0.005
O  O48  1  0.35826425  0.55740170  0.34428257  1  -0.280617  -0.488584  0.040659  2.390898  0.069
O  O49  1  0.78996317  0.49132366  0.40865052  1  -0.333517  -0.545824  0.04654  2.377847  0.075
O  O50  1  0.35014540  0.79177697  0.52309076  1  -0.1843  -0.463652  0.027538  2.151132  0.05
O  O51  1  0.58940647  0.80835040  0.60764880  1  -0.167811  -0.420582  -0.003175  1.976839  -0.002
O  O52  1  0.35023447  0.06237040  0.54655341  1  -0.189041  -0.450439  0.002512  2.020396  0.006
O  O53  1  0.64471098  0.19906329  0.47317041  1  -0.407671  -0.4737  0.026208  2.549051  0.044
