# generated using pymatgen
data_ZnH2C7NO4
_symmetry_space_group_name_H-M   'P 1'
_cell_length_a   7.16468566
_cell_length_b   7.16470127
_cell_length_c   19.77393603
_cell_angle_alpha   90.00018855
_cell_angle_beta   90.00018957
_cell_angle_gamma   89.99998300
_symmetry_Int_Tables_number   1
_chemical_formula_structural   ZnH2C7NO4
_chemical_formula_sum   'Zn4 H8 C28 N4 O16'
_cell_volume   1015.05214590
_cell_formula_units_Z   4
loop_
 _symmetry_equiv_pos_site_id
 _symmetry_equiv_pos_as_xyz
  1  'x, y, z'
loop_
 _atom_site_type_symbol
 _atom_site_label
 _atom_site_symmetry_multiplicity
 _atom_site_fract_x
 _atom_site_fract_y
 _atom_site_fract_z
 _atom_site_occupancy
 _atom_site_hle17_bader_spin_density
 _atom_site_hle17_ddec_charge
 _atom_site_hle17_ddec_spin_density
 _atom_site_hle17_ddec_sum_bond_order
 _atom_site_hle17_magmom
 _atom_site_hse06_10hf_bader_spin_density
 _atom_site_hse06_10hf_ddec_charge
 _atom_site_hse06_10hf_ddec_spin_density
 _atom_site_hse06_10hf_ddec_sum_bond_order
 _atom_site_hse06_10hf_magmom
 _atom_site_hse06_bader_spin_density
 _atom_site_hse06_ddec_charge
 _atom_site_hse06_ddec_spin_density
 _atom_site_hse06_ddec_sum_bond_order
 _atom_site_hse06_magmom
 _atom_site_pbe_bader_spin_density
 _atom_site_pbe_cm5_charge
 _atom_site_pbe_ddec_charge
 _atom_site_pbe_ddec_spin_density
 _atom_site_pbe_ddec_sum_bond_order
 _atom_site_pbe_magmom
Zn  Zn0  1  0.99999989  0.00000128  0.28011469  1  0  1.095055  0  1.761397  0  0  0.918313  0  2.22701  0  0  0.968094  0  2.16651  0  0  0.696907  0.883379  0  2.268788  0
Zn  Zn1  1  0.49999893  0.50000060  0.78011943  1  0  1.095335  0  1.761234  0  0  0.918575  0  2.226886  0  0  0.968335  0  2.166411  0  0  0.696885  0.88366  0  2.268658  0
Zn  Zn2  1  0.50000054  0.50000224  0.21988145  1  0  1.095275  0  1.761358  0  0  0.918492  0  2.227044  0  0  0.96826  0  2.166557  0  0  0.696873  0.883575  0  2.268804  0
Zn  Zn3  1  0.99999833  0.00000034  0.71988560  1  0  1.09516  0  1.761199  0  0  0.918472  0  2.226776  0  0  0.968251  0  2.16627  0  0  0.69697  0.88354  0  2.268546  0
H  H4  1  0.19037414  0.76265447  0.05020504  1  0  0.12681  0  0.936857  0  0  0.136203  0  0.994655  0  0  0.140382  0  0.991747  0  0  0.12043  0.133157  0  0.996898  0
H  H5  1  0.73733694  0.69038010  0.55020694  1  0  0.126828  0  0.937026  0  0  0.136201  0  0.994819  0  0  0.14038  0  0.991912  0  0  0.120435  0.133153  0  0.997054  0
H  H6  1  0.80962399  0.23734566  0.05020560  1  0  0.126845  0  0.936893  0  0  0.136179  0  0.994736  0  0  0.140358  0  0.991829  0  0  0.120451  0.133136  0  0.996968  0
H  H7  1  0.26266439  0.30961482  0.55020592  1  0  0.126854  0  0.936964  0  0  0.1362  0  0.99479  0  0  0.140378  0  0.991884  0  0  0.120429  0.133148  0  0.997035  0
H  H8  1  0.69038256  0.73733765  0.44979344  1  0  0.126832  0  0.937029  0  0  0.136207  0  0.994816  0  0  0.140386  0  0.991908  0  0  0.120424  0.133152  0  0.997066  0
H  H9  1  0.76264910  0.19037224  0.94979579  1  0  0.126786  0  0.936837  0  0  0.136185  0  0.994647  0  0  0.140363  0  0.99174  0  0  0.120406  0.133151  0  0.996868  0
H  H10  1  0.30962203  0.26266055  0.44979142  1  0  0.126842  0  0.936982  0  0  0.136209  0  0.994786  0  0  0.140388  0  0.991879  0  0  0.120454  0.133164  0  0.997025  0
H  H11  1  0.23734752  0.80962912  0.94979635  1  0  0.126809  0  0.936834  0  0  0.13617  0  0.994669  0  0  0.140349  0  0.991762  0  0  0.120422  0.133121  0  0.996914  0
C  C12  1  0.99999938  0.00000002  0.03751766  1  0  0.096189  0  3.728393  0  0  0.108043  0  3.967431  0  0  0.110269  0  3.98942  0  0  0.020106  0.106529  0  3.952493  0
C  C13  1  0.50000339  0.49999671  0.53751877  1  0  0.096245  0  3.728324  0  0  0.108205  0  3.967338  0  0  0.11043  0  3.989329  0  0  0.020177  0.10669  0  3.952404  0
C  C14  1  0.50000305  0.49999636  0.46248060  1  0  0.096248  0  3.728362  0  0  0.108146  0  3.967424  0  0  0.110371  0  3.989415  0  0  0.020167  0.10663  0  3.952488  0
C  C15  1  0.00000023  0.00000020  0.96248314  1  0  0.095971  0  3.728525  0  0  0.108147  0  3.967309  0  0  0.110371  0  3.989299  0  0  0.02016  0.106634  0  3.952366  0
C  C16  1  0.10601463  0.86973372  0.07436109  1  0  -0.123264  0  3.619878  0  0  -0.154489  0  3.863698  0  0  -0.15809  0  3.881496  0  0  -0.057515  -0.152095  0  3.851916  0
C  C17  1  0.63026607  0.60601523  0.57436084  1  0  -0.123422  0  3.620223  0  0  -0.154618  0  3.863984  0  0  -0.158219  0  3.881782  0  0  -0.057543  -0.152214  0  3.852194  0
C  C18  1  0.89398511  0.13026663  0.07436163  1  0  -0.123291  0  3.620206  0  0  -0.154456  0  3.863985  0  0  -0.158056  0  3.881784  0  0  -0.057514  -0.152063  0  3.852197  0
C  C19  1  0.36973408  0.39397712  0.57436005  1  0  -0.123444  0  3.620114  0  0  -0.154607  0  3.863887  0  0  -0.158206  0  3.881687  0  0  -0.057515  -0.152205  0  3.852107  0
C  C20  1  0.60602147  0.63026539  0.42563830  1  0  -0.123519  0  3.620253  0  0  -0.154708  0  3.864003  0  0  -0.15831  0  3.881801  0  0  -0.05756  -0.1523  0  3.852223  0
C  C21  1  0.86972836  0.10601410  0.92563976  1  0  -0.123202  0  3.619904  0  0  -0.154564  0  3.863624  0  0  -0.158167  0  3.881426  0  0  -0.057487  -0.152174  0  3.851826  0
C  C22  1  0.39398569  0.36973537  0.42563701  1  0  -0.123363  0  3.620338  0  0  -0.154558  0  3.86408  0  0  -0.15816  0  3.881878  0  0  -0.057537  -0.152161  0  3.852298  0
C  C23  1  0.13026524  0.89398984  0.92564030  1  0  -0.123206  0  3.620056  0  0  -0.154494  0  3.863781  0  0  -0.158095  0  3.881582  0  0  -0.05752  -0.152096  0  3.851997  0
C  C24  1  0.10390879  0.87580548  0.14470015  1  0  0.140894  0  3.720554  0  0  0.141224  0  3.961182  0  0  0.143227  0  3.978672  0  0  0.131273  0.13954  0  3.949643  0
C  C25  1  0.62419494  0.60390521  0.64470293  1  0  0.141151  0  3.720334  0  0  0.141498  0  3.960895  0  0  0.143501  0  3.978381  0  0  0.131354  0.139809  0  3.949363  0
C  C26  1  0.89609160  0.12419552  0.14470018  1  0  0.140936  0  3.720616  0  0  0.141301  0  3.961169  0  0  0.143304  0  3.97866  0  0  0.131298  0.139612  0  3.94964  0
C  C27  1  0.37580306  0.39608918  0.64470164  1  0  0.141175  0  3.7203  0  0  0.14147  0  3.960956  0  0  0.143469  0  3.978443  0  0  0.131384  0.139788  0  3.949416  0
C  C28  1  0.60391080  0.62419504  0.35529823  1  0  0.141329  0  3.720277  0  0  0.141706  0  3.96082  0  0  0.143711  0  3.978309  0  0  0.131433  0.140018  0  3.949283  0
C  C29  1  0.87580507  0.10390762  0.85530020  1  0  0.140969  0  3.720524  0  0  0.141437  0  3.960996  0  0  0.14344  0  3.978483  0  0  0.131355  0.139741  0  3.949478  0
C  C30  1  0.39609292  0.37580648  0.35529695  1  0  0.141044  0  3.720252  0  0  0.141461  0  3.96077  0  0  0.143468  0  3.978257  0  0  0.131315  0.139779  0  3.94923  0
C  C31  1  0.12419487  0.89609288  0.85530124  1  0  0.140828  0  3.720589  0  0  0.141216  0  3.961147  0  0  0.143217  0  3.978634  0  0  0.131295  0.139529  0  3.949615  0
C  C32  1  0.21755253  0.75017028  0.19013015  1  0  0.622749  0  3.913502  0  0  0.574037  0  4.204259  0  0  0.607713  0  4.198072  0  0  0.217633  0.55125  0  4.207627  0
C  C33  1  0.74983917  0.71755284  0.69012802  1  0  0.622474  0  3.913939  0  0  0.573865  0  4.204589  0  0  0.607544  0  4.198405  0  0  0.217561  0.551085  0  4.207941  0
C  C34  1  0.78244828  0.24983252  0.19012968  1  0  0.622662  0  3.913633  0  0  0.57393  0  4.204407  0  0  0.607605  0  4.198222  0  0  0.217581  0.551147  0  4.207767  0
C  C35  1  0.25015925  0.28244475  0.69012797  1  0  0.622579  0  3.913717  0  0  0.573898  0  4.204464  0  0  0.607579  0  4.198276  0  0  0.21757  0.551121  0  4.207819  0
C  C36  1  0.71754989  0.74983438  0.30986584  1  0  0.622431  0  3.913534  0  0  0.573702  0  4.204328  0  0  0.607375  0  4.19815  0  0  0.217454  0.550929  0  4.207674  0
C  C37  1  0.75016221  0.21756046  0.80987677  1  0  0.622584  0  3.913337  0  0  0.573764  0  4.20422  0  0  0.607442  0  4.198031  0  0  0.217482  0.550988  0  4.207579  0
C  C38  1  0.28245481  0.25017649  0.30986275  1  0  0.622621  0  3.913395  0  0  0.573886  0  4.204176  0  0  0.607561  0  4.197997  0  0  0.217593  0.551103  0  4.207532  0
C  C39  1  0.24983452  0.78243963  0.80987680  1  0  0.622721  0  3.913232  0  0  0.573938  0  4.20408  0  0  0.607616  0  4.19789  0  0  0.217587  0.551163  0  4.207435  0
N  N40  1  0.00000082  0.00000081  0.17796457  1  0  -0.335894  0  3.392282  0  0  -0.268884  0  3.656485  0  0  -0.284249  0  3.67016  0  0  -0.313764  -0.258426  0  3.647495  0
N  N41  1  0.49999846  0.49999735  0.67796628  1  0  -0.336186  0  3.392351  0  0  -0.269196  0  3.656662  0  0  -0.284552  0  3.670325  0  0  -0.313917  -0.25875  0  3.647689  0
N  N42  1  0.50000241  0.50000270  0.32203259  1  0  -0.336266  0  3.392322  0  0  -0.269308  0  3.656591  0  0  -0.284672  0  3.670262  0  0  -0.313929  -0.258855  0  3.647608  0
N  N43  1  0.99999819  0.00000096  0.82203715  1  0  -0.335913  0  3.3924  0  0  -0.268905  0  3.656516  0  0  -0.284264  0  3.670183  0  0  -0.313851  -0.258453  0  3.647542  0
O  O44  1  0.32941914  0.63853952  0.15985798  1  0  -0.603089  0  2.015529  0  0  -0.534835  0  2.265976  0  0  -0.563383  0  2.250445  0  0  -0.314785  -0.514834  0  2.275967  0
O  O45  1  0.86145312  0.82940104  0.65986913  1  0  -0.602765  0  2.016373  0  0  -0.534691  0  2.266885  0  0  -0.563233  0  2.251354  0  0  -0.31478  -0.514695  0  2.276866  0
O  O46  1  0.67058418  0.36146441  0.15985751  1  0  -0.603069  0  2.015564  0  0  -0.534819  0  2.266015  0  0  -0.563367  0  2.250486  0  0  -0.314754  -0.514818  0  2.276002  0
O  O47  1  0.13854223  0.17059349  0.65986830  1  0  -0.602887  0  2.016313  0  0  -0.534685  0  2.266768  0  0  -0.563227  0  2.251231  0  0  -0.314802  -0.514692  0  2.276758  0
O  O48  1  0.82940698  0.86146652  0.34013460  1  0  -0.602884  0  2.015595  0  0  -0.534681  0  2.266083  0  0  -0.563229  0  2.25056  0  0  -0.314747  -0.514682  0  2.276063  0
O  O49  1  0.63854124  0.32940896  0.84013933  1  0  -0.602868  0  2.015904  0  0  -0.534615  0  2.266412  0  0  -0.563154  0  2.250878  0  0  -0.314645  -0.514622  0  2.276406  0
O  O50  1  0.17058963  0.13853905  0.34013328  1  0  -0.603006  0  2.015548  0  0  -0.534798  0  2.266041  0  0  -0.56335  0  2.250516  0  0  -0.314842  -0.514795  0  2.276026  0
O  O51  1  0.36145856  0.67058861  0.84014139  1  0  -0.602963  0  2.01588  0  0  -0.534699  0  2.266345  0  0  -0.563238  0  2.250811  0  0  -0.314664  -0.514705  0  2.276334  0
O  O52  1  0.19666285  0.76709661  0.25304428  1  0  -0.59181  0  1.966598  0  0  -0.540941  0  2.202439  0  0  -0.566967  0  2.191626  0  0  -0.298666  -0.522831  0  2.209343  0
O  O53  1  0.73289245  0.69664368  0.75305426  1  0  -0.591904  0  1.966155  0  0  -0.541036  0  2.201946  0  0  -0.567071  0  2.191133  0  0  -0.298654  -0.522924  0  2.208846  0
O  O54  1  0.80333574  0.23290398  0.25304381  1  0  -0.591751  0  1.966627  0  0  -0.540874  0  2.202465  0  0  -0.566899  0  2.191653  0  0  -0.298648  -0.522766  0  2.209363  0
O  O55  1  0.26710515  0.30335310  0.75305274  1  0  -0.591901  0  1.966128  0  0  -0.541022  0  2.20195  0  0  -0.567057  0  2.19114  0  0  -0.298623  -0.522909  0  2.20885  0
O  O56  1  0.69665266  0.73289550  0.24695219  1  0  -0.591742  0  1.966659  0  0  -0.540857  0  2.202517  0  0  -0.566882  0  2.191705  0  0  -0.298567  -0.522752  0  2.209416  0
O  O57  1  0.76710474  0.19666327  0.74695100  1  0  -0.591915  0  1.96604  0  0  -0.541013  0  2.201901  0  0  -0.567051  0  2.191092  0  0  -0.298674  -0.522893  0  2.208794  0
O  O58  1  0.30334448  0.26711340  0.24695117  1  0  -0.59178  0  1.966672  0  0  -0.540885  0  2.202505  0  0  -0.566908  0  2.19169  0  0  -0.29861  -0.522779  0  2.209406  0
O  O59  1  0.23289420  0.80333345  0.74695307  1  0  -0.59193  0  1.965935  0  0  -0.541043  0  2.201796  0  0  -0.567078  0  2.190986  0  0  -0.298754  -0.522931  0  2.208692  0
