# generated using pymatgen
data_ZnH6C7O8
_symmetry_space_group_name_H-M   'P 1'
_cell_length_a   5.05225559
_cell_length_b   9.16722710
_cell_length_c   9.96820041
_cell_angle_alpha   104.71892895
_cell_angle_beta   95.95081806
_cell_angle_gamma   93.10926126
_symmetry_Int_Tables_number   1
_chemical_formula_structural   ZnH6C7O8
_chemical_formula_sum   'Zn2 H12 C14 O16'
_cell_volume   442.56126343
_cell_formula_units_Z   2
loop_
 _symmetry_equiv_pos_site_id
 _symmetry_equiv_pos_as_xyz
  1  'x, y, z'
loop_
 _atom_site_type_symbol
 _atom_site_label
 _atom_site_symmetry_multiplicity
 _atom_site_fract_x
 _atom_site_fract_y
 _atom_site_fract_z
 _atom_site_occupancy
 _atom_site_hle17_bader_spin_density
 _atom_site_hle17_ddec_charge
 _atom_site_hle17_ddec_spin_density
 _atom_site_hle17_ddec_sum_bond_order
 _atom_site_hle17_magmom
 _atom_site_hse06_10hf_bader_spin_density
 _atom_site_hse06_10hf_ddec_charge
 _atom_site_hse06_10hf_ddec_spin_density
 _atom_site_hse06_10hf_ddec_sum_bond_order
 _atom_site_hse06_10hf_magmom
 _atom_site_hse06_bader_spin_density
 _atom_site_hse06_ddec_charge
 _atom_site_hse06_ddec_spin_density
 _atom_site_hse06_ddec_sum_bond_order
 _atom_site_hse06_magmom
 _atom_site_pbe_bader_spin_density
 _atom_site_pbe_cm5_charge
 _atom_site_pbe_ddec_charge
 _atom_site_pbe_ddec_spin_density
 _atom_site_pbe_ddec_sum_bond_order
 _atom_site_pbe_magmom
Zn  Zn0  1  0.29412412  0.68351394  0.78005275  1  0  1.210701  0  1.639777  0  0  1.036842  0  2.109381  0  0  1.08677  0  2.043032  0  0  0.694771  0.998195  0  2.158613  0
Zn  Zn1  1  0.70587800  0.31648819  0.21994726  1  0  1.210664  0  1.639836  0  0  1.036805  0  2.109424  0  0  1.086736  0  2.04308  0  0  0.694757  0.998159  0  2.158667  0
H  H2  1  0.55208875  0.45775210  0.66050164  1  0  0.446636  0  0.852904  0  0  0.410041  0  0.92555  0  0  0.42223  0  0.907865  0  0  0.29463  0.401196  0  0.938367  0
H  H3  1  0.44790905  0.54224777  0.33949761  1  0  0.446628  0  0.852908  0  0  0.410079  0  0.925491  0  0  0.422268  0  0.907806  0  0  0.294646  0.401234  0  0.938308  0
H  H4  1  0.55486973  0.45963258  0.82492378  1  0  0.444356  0  0.854538  0  0  0.407109  0  0.928746  0  0  0.419012  0  0.911466  0  0  0.294855  0.398424  0  0.941325  0
H  H5  1  0.44513040  0.54036955  0.17507612  1  0  0.444341  0  0.854551  0  0  0.407097  0  0.928755  0  0  0.419  0  0.911476  0  0  0.294854  0.398412  0  0.941335  0
H  H6  1  0.58835513  0.92308448  0.79213171  1  0  0.424829  0  0.884819  0  0  0.389166  0  0.954959  0  0  0.401502  0  0.937492  0  0  0.287792  0.380356  0  0.967477  0
H  H7  1  0.41164433  0.07691312  0.20786808  1  0  0.424825  0  0.884827  0  0  0.389177  0  0.954936  0  0  0.401507  0  0.937481  0  0  0.287805  0.380366  0  0.967456  0
H  H8  1  0.76654888  0.81351356  0.86984251  1  0  0.43732  0  0.859524  0  0  0.4068  0  0.921255  0  0  0.417885  0  0.905219  0  0  0.298562  0.39877  0  0.932887  0
H  H9  1  0.23345344  0.18648968  0.13016178  1  0  0.437357  0  0.859467  0  0  0.406831  0  0.921208  0  0  0.417916  0  0.905172  0  0  0.298571  0.398802  0  0.93284  0
H  H10  1  0.72220374  0.88911006  0.52083397  1  0  0.164167  0  0.959743  0  0  0.164958  0  1.028668  0  0  0.170658  0  1.025129  0  0  0.118677  0.160793  0  1.031419  0
H  H11  1  0.27778990  0.11088869  0.47916380  1  0  0.164117  0  0.959775  0  0  0.164905  0  1.028722  0  0  0.170609  0  1.02517  0  0  0.11865  0.160737  0  1.03147  0
H  H12  1  0.71591973  0.89126304  0.08384057  1  0  0.156462  0  0.95327  0  0  0.165164  0  1.011575  0  0  0.16967  0  1.00948  0  0  0.121195  0.161839  0  1.013325  0
H  H13  1  0.28408472  0.10874135  0.91616009  1  0  0.15647  0  0.953261  0  0  0.165178  0  1.011568  0  0  0.169683  0  1.009475  0  0  0.121201  0.161853  0  1.013319  0
C  C14  1  0.13361205  0.69637534  0.51232022  1  0  0.609988  0  3.937977  0  0  0.555928  0  4.234502  0  0  0.588713  0  4.227425  0  0  0.212744  0.533449  0  4.23856  0
C  C15  1  0.86638377  0.30362453  0.48767993  1  0  0.609943  0  3.938136  0  0  0.555838  0  4.2347  0  0  0.58862  0  4.227629  0  0  0.212706  0.533357  0  4.23876  0
C  C16  1  0.98935382  0.75600826  0.40050550  1  0  0.19699  0  3.640964  0  0  0.186354  0  3.90038  0  0  0.196004  0  3.910997  0  0  0.113805  0.179257  0  3.893843  0
C  C17  1  0.01064580  0.24399048  0.59949357  1  0  0.196938  0  3.641039  0  0  0.186375  0  3.900394  0  0  0.196023  0  3.911015  0  0  0.113778  0.179279  0  3.893853  0
C  C18  1  0.79174105  0.85123629  0.41886095  1  0  -0.242343  0  3.615312  0  0  -0.277095  0  3.877192  0  0  -0.288941  0  3.892112  0  0  -0.085997  -0.269115  0  3.867068  0
C  C19  1  0.20825459  0.14876245  0.58113792  1  0  -0.242299  0  3.615368  0  0  -0.2771  0  3.877221  0  0  -0.288945  0  3.892145  0  0  -0.085989  -0.269112  0  3.86709  0
C  C20  1  0.67116140  0.90129731  0.30280637  1  0  0.478159  0  3.795722  0  0  0.457174  0  4.069293  0  0  0.484193  0  4.070145  0  0  0.132158  0.439107  0  4.06781  0
C  C21  1  0.32883423  0.09870144  0.69719150  1  0  0.478185  0  3.795576  0  0  0.457268  0  4.069094  0  0  0.484297  0  4.069935  0  0  0.132154  0.439203  0  4.067606  0
C  C22  1  0.78930180  0.85313998  0.17468230  1  0  -0.240544  0  3.608529  0  0  -0.27462  0  3.863937  0  0  -0.285516  0  3.878349  0  0  -0.087203  -0.267002  0  3.85413  0
C  C23  1  0.21070231  0.14686215  0.82531780  1  0  -0.240537  0  3.608504  0  0  -0.274657  0  3.863922  0  0  -0.285548  0  3.878327  0  0  -0.08718  -0.267036  0  3.854116  0
C  C24  1  0.98402100  0.75575235  0.16565452  1  0  0.189599  0  3.65803  0  0  0.175141  0  3.927668  0  0  0.185097  0  3.938491  0  0  0.110415  0.167921  0  3.921085  0
C  C25  1  0.01598310  0.24424978  0.83434558  1  0  0.189576  0  3.657979  0  0  0.17513  0  3.927642  0  0  0.185084  0  3.938462  0  0  0.110414  0.167911  0  3.921058  0
C  C26  1  0.12157887  0.69309630  0.03913061  1  0  0.621189  0  3.910289  0  0  0.562114  0  4.213366  0  0  0.59494  0  4.205639  0  0  0.219068  0.539621  0  4.217944  0
C  C27  1  0.87842723  0.30690582  0.96086959  1  0  0.621252  0  3.91022  0  0  0.562134  0  4.21335  0  0  0.594966  0  4.205617  0  0  0.219074  0.539641  0  4.217929  0
O  O28  1  0.31169444  0.60795099  0.48281833  1  0  -0.569983  0  1.999883  0  0  -0.516947  0  2.224133  0  0  -0.540174  0  2.214705  0  0  -0.289109  -0.500355  0  2.230014  0
O  O29  1  0.68830104  0.39204662  0.51718126  1  0  -0.569969  0  1.999948  0  0  -0.516897  0  2.224221  0  0  -0.540121  0  2.214792  0  0  -0.289098  -0.500306  0  2.230103  0
O  O30  1  0.06221825  0.74516048  0.63498293  1  0  -0.634212  0  2.023218  0  0  -0.561539  0  2.286667  0  0  -0.591379  0  2.273268  0  0  -0.317296  -0.538905  0  2.296276  0
O  O31  1  0.93777938  0.25483825  0.36501705  1  0  -0.634158  0  2.023251  0  0  -0.561488  0  2.286734  0  0  -0.591332  0  2.273342  0  0  -0.317246  -0.538856  0  2.296347  0
O  O32  1  0.08112781  0.70476730  0.27545253  1  0  -0.191803  0  2.531346  0  0  -0.117557  0  2.747115  0  0  -0.137064  0  2.755403  0  0  -0.091657  -0.104312  0  2.742303  0
O  O33  1  0.91887199  0.29523256  0.72454782  1  0  -0.191812  0  2.531352  0  0  -0.117588  0  2.747096  0  0  -0.137093  0  2.755384  0  0  -0.09167  -0.104339  0  2.742283  0
O  O34  1  0.47324117  0.98122942  0.31316386  1  0  -0.53722  0  1.981828  0  0  -0.480002  0  2.190144  0  0  -0.503342  0  2.183954  0  0  -0.284037  -0.463913  0  2.194268  0
O  O35  1  0.52674944  0.01876256  0.68683013  1  0  -0.537258  0  1.981727  0  0  -0.48003  0  2.189969  0  0  -0.503409  0  2.183817  0  0  -0.284031  -0.463967  0  2.194137  0
O  O36  1  0.30175544  0.60634756  0.04566337  1  0  -0.568484  0  2.005625  0  0  -0.514944  0  2.235379  0  0  -0.538483  0  2.227665  0  0  -0.285878  -0.498228  0  2.239819  0
O  O37  1  0.69824435  0.39365231  0.95433598  1  0  -0.568515  0  2.005602  0  0  -0.514934  0  2.235344  0  0  -0.538479  0  2.227629  0  0  -0.285858  -0.498219  0  2.239785  0
O  O38  1  0.04687067  0.73702978  0.92866743  1  0  -0.652923  0  2.07362  0  0  -0.569897  0  2.33124  0  0  -0.599908  0  2.315558  0  0  -0.307064  -0.547153  0  2.342416  0
O  O39  1  0.95313361  0.26297348  0.07133295  1  0  -0.65295  0  2.073675  0  0  -0.569889  0  2.331282  0  0  -0.599899  0  2.315601  0  0  -0.307074  -0.547145  0  2.342462  0
O  O40  1  0.45688179  0.49141736  0.74581266  1  0  -0.88426  0  1.973239  0  0  -0.816734  0  2.227405  0  0  -0.840458  0  2.184457  0  0  -0.576427  -0.799601  0  2.257805  0
O  O41  1  0.54311817  0.50858364  0.25418697  1  0  -0.884237  0  1.973298  0  0  -0.816734  0  2.227373  0  0  -0.840469  0  2.184451  0  0  -0.576443  -0.799602  0  2.257778  0
O  O42  1  0.58743287  0.85012073  0.85452598  1  0  -0.858581  0  1.92279  0  0  -0.787459  0  2.146467  0  0  -0.811392  0  2.106095  0  0  -0.574005  -0.770338  0  2.175067  0
O  O43  1  0.41256909  0.14988026  0.14547575  1  0  -0.858605  0  1.922709  0  0  -0.787495  0  2.146397  0  0  -0.81143  0  2.106038  0  0  -0.574022  -0.770379  0  2.175003  0
