# generated using pymatgen
data_K3H5C6O7
_symmetry_space_group_name_H-M   'P 1'
_cell_length_a   7.60790444
_cell_length_b   10.45431435
_cell_length_c   12.45272319
_cell_angle_alpha   90.00001931
_cell_angle_beta   89.99985704
_cell_angle_gamma   90.00008211
_symmetry_Int_Tables_number   1
_chemical_formula_structural   K3H5C6O7
_chemical_formula_sum   'K12 H20 C24 O28'
_cell_volume   990.43262572
_cell_formula_units_Z   4
loop_
 _symmetry_equiv_pos_site_id
 _symmetry_equiv_pos_as_xyz
  1  'x, y, z'
loop_
 _atom_site_type_symbol
 _atom_site_label
 _atom_site_symmetry_multiplicity
 _atom_site_fract_x
 _atom_site_fract_y
 _atom_site_fract_z
 _atom_site_occupancy
 _atom_site_hle17_bader_spin_density
 _atom_site_hle17_ddec_charge
 _atom_site_hle17_ddec_spin_density
 _atom_site_hle17_ddec_sum_bond_order
 _atom_site_hle17_magmom
 _atom_site_hse06_10hf_bader_spin_density
 _atom_site_hse06_10hf_ddec_charge
 _atom_site_hse06_10hf_ddec_spin_density
 _atom_site_hse06_10hf_ddec_sum_bond_order
 _atom_site_hse06_10hf_magmom
 _atom_site_hse06_bader_spin_density
 _atom_site_hse06_ddec_charge
 _atom_site_hse06_ddec_spin_density
 _atom_site_hse06_ddec_sum_bond_order
 _atom_site_hse06_magmom
 _atom_site_pbe_bader_spin_density
 _atom_site_pbe_cm5_charge
 _atom_site_pbe_ddec_charge
 _atom_site_pbe_ddec_spin_density
 _atom_site_pbe_ddec_sum_bond_order
 _atom_site_pbe_magmom
K  K0  1  0.64827970  0.24917308  0.12205879  1  0  0.940579  0  0.500614  0  0  0.900154  0  0.688633  0  0  0.912811  0  0.667775  0  0  0.823155  0.890527  0  0.703642  0
K  K1  1  0.85172021  0.74917547  0.62205537  1  0  0.940575  0  0.500606  0  0  0.900159  0  0.688609  0  0  0.912826  0  0.667742  0  0  0.823142  0.890539  0  0.703602  0
K  K2  1  0.14827552  0.24917575  0.37794617  1  0  0.940593  0  0.500587  0  0  0.900174  0  0.688615  0  0  0.912839  0  0.667744  0  0  0.823156  0.890555  0  0.703611  0
K  K3  1  0.35171471  0.74917431  0.87794355  1  0  0.940588  0  0.500577  0  0  0.90016  0  0.68861  0  0  0.912825  0  0.667739  0  0  0.823129  0.890535  0  0.703611  0
K  K4  1  0.35538092  0.97273834  0.20942716  1  0  0.93397  0  0.461908  0  0  0.875899  0  0.662365  0  0  0.895024  0  0.634569  0  0  0.766566  0.860284  0  0.684314  0
K  K5  1  0.14462228  0.47273901  0.70942792  1  0  0.933966  0  0.46189  0  0  0.875886  0  0.662365  0  0  0.895032  0  0.634539  0  0  0.766556  0.860277  0  0.684311  0
K  K6  1  0.85538178  0.97273478  0.29056887  1  0  0.933972  0  0.461902  0  0  0.875884  0  0.662381  0  0  0.895019  0  0.634568  0  0  0.766569  0.860271  0  0.684328  0
K  K7  1  0.64461656  0.47274502  0.79057284  1  0  0.933943  0  0.461932  0  0  0.875887  0  0.662365  0  0  0.895017  0  0.634568  0  0  0.766572  0.860277  0  0.684313  0
K  K8  1  0.14732170  0.69834628  0.37575957  1  0  0.940124  0  0.500438  0  0  0.898762  0  0.689343  0  0  0.911661  0  0.668294  0  0  0.820341  0.889048  0  0.704434  0
K  K9  1  0.35268421  0.19834526  0.87576162  1  0  0.940126  0  0.500436  0  0  0.898761  0  0.689354  0  0  0.911664  0  0.668294  0  0  0.820351  0.889049  0  0.704446  0
K  K10  1  0.64732455  0.69833884  0.12423991  1  0  0.940136  0  0.500424  0  0  0.89877  0  0.689348  0  0  0.911688  0  0.668263  0  0  0.820365  0.889058  0  0.704438  0
K  K11  1  0.85267130  0.19833495  0.62424276  1  0  0.940125  0  0.500416  0  0  0.898774  0  0.689324  0  0  0.911677  0  0.66827  0  0  0.820351  0.889063  0  0.704417  0
H  H12  1  0.94521592  0.57349102  0.12526434  1  0  0.08457  0  0.975467  0  0  0.098176  0  1.042655  0  0  0.101048  0  1.040568  0  0  0.096538  0.096157  0  1.044248  0
H  H13  1  0.55478362  0.07348777  0.62526524  1  0  0.084574  0  0.975503  0  0  0.09818  0  1.042696  0  0  0.101053  0  1.040613  0  0  0.096538  0.096159  0  1.044294  0
H  H14  1  0.44521701  0.57348794  0.37473385  1  0  0.084552  0  0.975483  0  0  0.098154  0  1.042682  0  0  0.101021  0  1.040597  0  0  0.096529  0.096134  0  1.044277  0
H  H15  1  0.05478603  0.07349139  0.87473715  1  0  0.084552  0  0.975484  0  0  0.098172  0  1.042656  0  0  0.101046  0  1.040564  0  0  0.096533  0.096152  0  1.044253  0
H  H16  1  0.04282111  0.59338777  0.99677560  1  0  0.128163  0  0.946391  0  0  0.143786  0  1.004297  0  0  0.146586  0  1.003378  0  0  0.118507  0.141875  0  1.00513  0
H  H17  1  0.45717753  0.09338761  0.49677615  1  0  0.128159  0  0.946368  0  0  0.143783  0  1.004275  0  0  0.146585  0  1.003355  0  0  0.118512  0.141873  0  1.005109  0
H  H18  1  0.54282577  0.59338697  0.50321973  1  0  0.128226  0  0.946263  0  0  0.143838  0  1.004187  0  0  0.146639  0  1.003265  0  0  0.11854  0.141926  0  1.005025  0
H  H19  1  0.95717694  0.09338778  0.00322429  1  0  0.128164  0  0.946388  0  0  0.143782  0  1.004313  0  0  0.146582  0  1.003391  0  0  0.118505  0.141873  0  1.005145  0
H  H20  1  0.03533596  0.34974462  0.00275364  1  0  0.129084  0  0.944827  0  0  0.145336  0  1.00121  0  0  0.147923  0  1.00048  0  0  0.119458  0.143564  0  1.001963  0
H  H21  1  0.46466522  0.84974234  0.50275005  1  0  0.129095  0  0.944826  0  0  0.14535  0  1.0012  0  0  0.147937  0  1.000469  0  0  0.119465  0.143573  0  1.001951  0
H  H22  1  0.53533597  0.34974497  0.49724510  1  0  0.129084  0  0.944829  0  0  0.145325  0  1.00122  0  0  0.147912  0  1.00049  0  0  0.119461  0.143552  0  1.001972  0
H  H23  1  0.96466391  0.84974174  0.99724472  1  0  0.129108  0  0.944802  0  0  0.145339  0  1.001209  0  0  0.147926  0  1.000477  0  0  0.119457  0.143566  0  1.00196  0
H  H24  1  0.95112008  0.36949295  0.13505333  1  0  0.083207  0  0.978049  0  0  0.095566  0  1.047734  0  0  0.098529  0  1.045364  0  0  0.096733  0.093523  0  1.049499  0
H  H25  1  0.54887606  0.86949024  0.63505277  1  0  0.083233  0  0.978077  0  0  0.095598  0  1.047745  0  0  0.098562  0  1.045371  0  0  0.096766  0.093549  0  1.04951  0
H  H26  1  0.45112384  0.36949082  0.36494318  1  0  0.083199  0  0.978065  0  0  0.095575  0  1.047718  0  0  0.098533  0  1.045346  0  0  0.096756  0.093529  0  1.049487  0
H  H27  1  0.04887457  0.86949194  0.86494263  1  0  0.083191  0  0.97807  0  0  0.09557  0  1.047715  0  0  0.098525  0  1.045349  0  0  0.096754  0.093516  0  1.049499  0
H  H28  1  0.38201065  0.47630407  0.19823433  1  0  0.361128  0  0.906975  0  0  0.337838  0  0.982655  0  0  0.349367  0  0.968956  0  0  0.30268  0.32961  0  0.992485  0
H  H29  1  0.11799260  0.97630526  0.69823287  1  0  0.361022  0  0.907061  0  0  0.337811  0  0.982659  0  0  0.349348  0  0.968945  0  0  0.302681  0.329584  0  0.992492  0
H  H30  1  0.88201934  0.47630148  0.30176954  1  0  0.361292  0  0.906787  0  0  0.338017  0  0.982488  0  0  0.349556  0  0.96876  0  0  0.302761  0.329788  0  0.992321  0
H  H31  1  0.61798553  0.97630745  0.80177049  1  0  0.3612  0  0.906882  0  0  0.337955  0  0.982481  0  0  0.34948  0  0.96879  0  0  0.302727  0.329726  0  0.992318  0
C  C32  1  0.14667160  0.71725039  0.12097755  1  0  0.708755  0  3.936785  0  0  0.668258  0  4.239688  0  0  0.700708  0  4.230597  0  0  0.167984  0.646219  0  4.245011  0
C  C33  1  0.35332751  0.21725032  0.62097880  1  0  0.708874  0  3.936619  0  0  0.66838  0  4.239524  0  0  0.700823  0  4.230442  0  0  0.168022  0.64634  0  4.244855  0
C  C34  1  0.64667078  0.71724974  0.37901711  1  0  0.70883  0  3.936649  0  0  0.668333  0  4.239581  0  0  0.700781  0  4.230494  0  0  0.167998  0.646293  0  4.244901  0
C  C35  1  0.85332537  0.21725350  0.87902479  1  0  0.708821  0  3.936731  0  0  0.668331  0  4.239626  0  0  0.700794  0  4.230508  0  0  0.168027  0.64629  0  4.244956  0
C  C36  1  0.07011039  0.58983500  0.08353678  1  0  -0.351432  0  3.637702  0  0  -0.393394  0  3.870497  0  0  -0.400375  0  3.877473  0  0  -0.169383  -0.388608  0  3.865977  0
C  C37  1  0.42988994  0.08983406  0.58353791  1  0  -0.351426  0  3.637626  0  0  -0.393372  0  3.870415  0  0  -0.400356  0  3.877397  0  0  -0.169365  -0.388588  0  3.8659  0
C  C38  1  0.57011467  0.58983054  0.41645796  1  0  -0.351461  0  3.637673  0  0  -0.39335  0  3.870332  0  0  -0.400325  0  3.877315  0  0  -0.169359  -0.388563  0  3.865809  0
C  C39  1  0.92988896  0.08983534  0.91646311  1  0  -0.351432  0  3.63761  0  0  -0.393397  0  3.8704  0  0  -0.400375  0  3.877362  0  0  -0.169362  -0.388612  0  3.865884  0
C  C40  1  0.18745266  0.47282118  0.10415787  1  0  0.262045  0  3.55261  0  0  0.270353  0  3.788561  0  0  0.273873  0  3.799888  0  0  0.072432  0.267737  0  3.781221  0
C  C41  1  0.31254571  0.97281970  0.60415531  1  0  0.262025  0  3.552627  0  0  0.270307  0  3.788649  0  0  0.273828  0  3.79998  0  0  0.072412  0.267687  0  3.781309  0
C  C42  1  0.68745703  0.47281671  0.39584148  1  0  0.261965  0  3.552805  0  0  0.27027  0  3.788705  0  0  0.27379  0  3.800034  0  0  0.072448  0.267654  0  3.78136  0
C  C43  1  0.81254613  0.97282001  0.89584213  1  0  0.262041  0  3.552703  0  0  0.270309  0  3.788711  0  0  0.273829  0  3.800036  0  0  0.072432  0.267693  0  3.78137  0
C  C44  1  0.07149818  0.35427580  0.08827065  1  0  -0.352054  0  3.642566  0  0  -0.39311  0  3.875628  0  0  -0.399828  0  3.882419  0  0  -0.169478  -0.388614  0  3.87134  0
C  C45  1  0.42850134  0.85427444  0.58826792  1  0  -0.352148  0  3.642626  0  0  -0.393248  0  3.875805  0  0  -0.399967  0  3.88259  0  0  -0.169534  -0.388731  0  3.871489  0
C  C46  1  0.57149985  0.35427325  0.41172884  1  0  -0.352055  0  3.642634  0  0  -0.393122  0  3.875705  0  0  -0.39983  0  3.882502  0  0  -0.169507  -0.388622  0  3.871408  0
C  C47  1  0.92849907  0.85427476  0.91172851  1  0  -0.352033  0  3.642621  0  0  -0.393077  0  3.875665  0  0  -0.399786  0  3.882468  0  0  -0.169477  -0.388575  0  3.871366  0
C  C48  1  0.15297377  0.22730339  0.12279234  1  0  0.710353  0  3.934518  0  0  0.669067  0  4.23776  0  0  0.701462  0  4.228841  0  0  0.168192  0.647095  0  4.242968  0
C  C49  1  0.34702799  0.72730003  0.62278892  1  0  0.710464  0  3.934436  0  0  0.66917  0  4.237684  0  0  0.701576  0  4.228747  0  0  0.168194  0.647191  0  4.242892  0
C  C50  1  0.65297164  0.22729796  0.37720940  1  0  0.7104  0  3.934501  0  0  0.669115  0  4.237729  0  0  0.70151  0  4.228808  0  0  0.168222  0.647144  0  4.24293  0
C  C51  1  0.84702323  0.72730129  0.87720679  1  0  0.710292  0  3.934602  0  0  0.669002  0  4.237838  0  0  0.701392  0  4.228929  0  0  0.168145  0.647029  0  4.243044  0
C  C52  1  0.34955528  0.47226836  0.02723240  1  0  0.612703  0  3.924627  0  0  0.56508  0  4.231583  0  0  0.59766  0  4.222463  0  0  0.187769  0.542853  0  4.237211  0
C  C53  1  0.15044473  0.97226863  0.52723330  1  0  0.612634  0  3.924764  0  0  0.565013  0  4.231731  0  0  0.597592  0  4.222617  0  0  0.187736  0.542784  0  4.23736  0
C  C54  1  0.84955275  0.47226775  0.47277072  1  0  0.612734  0  3.924801  0  0  0.565143  0  4.231703  0  0  0.597724  0  4.222583  0  0  0.187791  0.542916  0  4.237329  0
C  C55  1  0.65044878  0.97226897  0.97277001  1  0  0.612606  0  3.925007  0  0  0.565054  0  4.23184  0  0  0.597633  0  4.22272  0  0  0.187723  0.542826  0  4.237467  0
O  O56  1  0.30056164  0.74690712  0.09013278  1  0  -0.76554  0  1.95709  0  0  -0.719853  0  2.204076  0  0  -0.743509  0  2.193341  0  0  -0.528794  -0.702834  0  2.211014  0
O  O57  1  0.19944029  0.24690307  0.59013346  1  0  -0.765608  0  1.957025  0  0  -0.719913  0  2.203995  0  0  -0.743565  0  2.193259  0  0  -0.52881  -0.702898  0  2.210939  0
O  O58  1  0.80055938  0.74691031  0.40986327  1  0  -0.765584  0  1.957142  0  0  -0.719873  0  2.204048  0  0  -0.743526  0  2.193312  0  0  -0.528801  -0.702855  0  2.210987  0
O  O59  1  0.69944196  0.24690817  0.90987358  1  0  -0.765573  0  1.957271  0  0  -0.719844  0  2.204148  0  0  -0.743502  0  2.193406  0  0  -0.5288  -0.702827  0  2.211091  0
O  O60  1  0.04982622  0.78693354  0.18083522  1  0  -0.788284  0  1.929027  0  0  -0.7439  0  2.173313  0  0  -0.767057  0  2.161462  0  0  -0.496952  -0.727384  0  2.181815  0
O  O61  1  0.45017410  0.28693166  0.68083632  1  0  -0.788314  0  1.929002  0  0  -0.743943  0  2.173299  0  0  -0.767097  0  2.16145  0  0  -0.496946  -0.727428  0  2.181806  0
O  O62  1  0.54982039  0.78693192  0.31915800  1  0  -0.788319  0  1.929043  0  0  -0.743926  0  2.17328  0  0  -0.767082  0  2.16143  0  0  -0.496956  -0.727409  0  2.181782  0
O  O63  1  0.95017089  0.28693578  0.81916312  1  0  -0.788285  0  1.928892  0  0  -0.743919  0  2.173192  0  0  -0.767083  0  2.161333  0  0  -0.496961  -0.727404  0  2.181699  0
O  O64  1  0.06049344  0.15541246  0.18342411  1  0  -0.790832  0  1.93082  0  0  -0.745904  0  2.175905  0  0  -0.769251  0  2.164126  0  0  -0.501949  -0.729241  0  2.184344  0
O  O65  1  0.43950924  0.65540920  0.68341895  1  0  -0.790859  0  1.930846  0  0  -0.745921  0  2.175931  0  0  -0.769277  0  2.164151  0  0  -0.501934  -0.72926  0  2.184373  0
O  O66  1  0.56048630  0.15540796  0.31657935  1  0  -0.790849  0  1.930736  0  0  -0.745931  0  2.175834  0  0  -0.769279  0  2.164054  0  0  -0.501969  -0.729268  0  2.184271  0
O  O67  1  0.93950473  0.65541235  0.81657499  1  0  -0.790805  0  1.930869  0  0  -0.745877  0  2.175942  0  0  -0.769226  0  2.164168  0  0  -0.501955  -0.729215  0  2.184382  0
O  O68  1  0.30568603  0.19978468  0.08883739  1  0  -0.762176  0  1.9593  0  0  -0.715725  0  2.20565  0  0  -0.739318  0  2.194923  0  0  -0.530088  -0.698761  0  2.212557  0
O  O69  1  0.19431318  0.69978021  0.58883662  1  0  -0.762233  0  1.959254  0  0  -0.715771  0  2.205603  0  0  -0.739371  0  2.194871  0  0  -0.530091  -0.698809  0  2.21251  0
O  O70  1  0.80568245  0.19977639  0.41116491  1  0  -0.762177  0  1.959261  0  0  -0.715735  0  2.205625  0  0  -0.739328  0  2.194896  0  0  -0.530086  -0.698773  0  2.21253  0
O  O71  1  0.69431091  0.69978244  0.91116253  1  0  -0.762147  0  1.959252  0  0  -0.715693  0  2.205593  0  0  -0.739288  0  2.19487  0  0  -0.530075  -0.698732  0  2.2125  0
O  O72  1  0.32343191  0.47131198  0.92676177  1  0  -0.740583  0  1.939759  0  0  -0.700258  0  2.187  0  0  -0.72331  0  2.176125  0  0  -0.44577  -0.683737  0  2.194153  0
O  O73  1  0.17656776  0.97131112  0.42676128  1  0  -0.740577  0  1.93966  0  0  -0.700236  0  2.186865  0  0  -0.723291  0  2.176004  0  0  -0.445787  -0.683714  0  2.194021  0
O  O74  1  0.82342314  0.47131026  0.57324113  1  0  -0.740578  0  1.939847  0  0  -0.700252  0  2.187026  0  0  -0.723318  0  2.176182  0  0  -0.445767  -0.683733  0  2.194183  0
O  O75  1  0.67657871  0.97131227  0.07324064  1  0  -0.740579  0  1.939815  0  0  -0.700256  0  2.186965  0  0  -0.723318  0  2.176115  0  0  -0.445766  -0.683733  0  2.194121  0
O  O76  1  0.49796661  0.47343256  0.07451432  1  0  -0.729528  0  2.018528  0  0  -0.681698  0  2.26079  0  0  -0.705331  0  2.248488  0  0  -0.475954  -0.665073  0  2.268947  0
O  O77  1  0.00203846  0.97343459  0.57451383  1  0  -0.729435  0  2.018662  0  0  -0.681623  0  2.260933  0  0  -0.705257  0  2.248632  0  0  -0.475908  -0.665004  0  2.269094  0
O  O78  1  0.99796692  0.47343385  0.42549098  1  0  -0.729552  0  2.01851  0  0  -0.681737  0  2.260772  0  0  -0.705372  0  2.248466  0  0  -0.475954  -0.665114  0  2.268932  0
O  O79  1  0.50203876  0.97343587  0.92549291  1  0  -0.729478  0  2.018721  0  0  -0.681677  0  2.260941  0  0  -0.705304  0  2.248639  0  0  -0.475901  -0.665055  0  2.269099  0
O  O80  1  0.25310784  0.47533598  0.21301674  1  0  -0.614248  0  1.980463  0  0  -0.574458  0  2.201089  0  0  -0.588718  0  2.18758  0  0  -0.422011  -0.564269  0  2.210528  0
O  O81  1  0.24689403  0.97533157  0.71301588  1  0  -0.614148  0  1.9805  0  0  -0.574422  0  2.201043  0  0  -0.588686  0  2.187527  0  0  -0.422017  -0.564215  0  2.210448  0
O  O82  1  0.75311791  0.47533339  0.28698412  1  0  -0.614408  0  1.980354  0  0  -0.574645  0  2.200888  0  0  -0.588909  0  2.187366  0  0  -0.422146  -0.564459  0  2.210333  0
O  O83  1  0.74688702  0.97533853  0.78698487  1  0  -0.6143  0  1.98043  0  0  -0.574546  0  2.20104  0  0  -0.588803  0  2.187533  0  0  -0.422068  -0.564346  0  2.210458  0
