# generated using pymatgen
data_ErCrH4C6NO6
_symmetry_space_group_name_H-M   'P 1'
_cell_length_a   6.59273612
_cell_length_b   6.98394903
_cell_length_c   18.98185872
_cell_angle_alpha   89.99993526
_cell_angle_beta   89.99994198
_cell_angle_gamma   89.99993087
_symmetry_Int_Tables_number   1
_chemical_formula_structural   ErCrH4C6NO6
_chemical_formula_sum   'Er4 Cr4 H16 C24 N4 O24'
_cell_volume   873.98804218
_cell_formula_units_Z   4
loop_
 _symmetry_equiv_pos_site_id
 _symmetry_equiv_pos_as_xyz
  1  'x, y, z'
loop_
 _atom_site_type_symbol
 _atom_site_label
 _atom_site_symmetry_multiplicity
 _atom_site_fract_x
 _atom_site_fract_y
 _atom_site_fract_z
 _atom_site_occupancy
 _atom_site_hle17_bader_spin_density
 _atom_site_hle17_ddec_charge
 _atom_site_hle17_ddec_spin_density
 _atom_site_hle17_ddec_sum_bond_order
 _atom_site_hle17_magmom
 _atom_site_hse06_10hf_bader_charge
 _atom_site_hse06_10hf_bader_spin_density
 _atom_site_hse06_10hf_ddec_charge
 _atom_site_hse06_10hf_ddec_spin_density
 _atom_site_hse06_10hf_ddec_sum_bond_order
 _atom_site_hse06_10hf_magmom
 _atom_site_hse06_bader_spin_density
 _atom_site_hse06_ddec_charge
 _atom_site_hse06_ddec_spin_density
 _atom_site_hse06_ddec_sum_bond_order
 _atom_site_hse06_magmom
 _atom_site_pbe_bader_spin_density
 _atom_site_pbe_cm5_charge
 _atom_site_pbe_ddec_charge
 _atom_site_pbe_ddec_spin_density
 _atom_site_pbe_ddec_sum_bond_order
 _atom_site_pbe_magmom
Er  Er0  1  0.38379579  0.85789085  0.22415325  1  0  2.309855  0  1.675251  0  2.183403  0  2.201851  0  2.121633  0  0  2.255684  0  2.076797  0  0  1.482204  2.161004  0  2.156981  0
Er  Er1  1  0.11620856  0.14211326  0.72415401  1  0  2.309865  0  1.675329  0  2.18335  0  2.201877  0  2.121684  0  0  2.255708  0  2.076853  0  0  1.482217  2.160998  0  2.157079  0
Er  Er2  1  0.61621697  0.35789128  0.27584636  1  0  2.309808  0  1.675358  0  2.18352  0  2.20176  0  2.121799  0  0  2.2556  0  2.076961  0  0  1.482183  2.160904  0  2.157168  0
Er  Er3  1  0.88378175  0.64211351  0.77584681  1  0  2.30984  0  1.67539  0  2.183477  0  2.201796  0  2.121828  0  0  2.255626  0  2.077  0  0  1.482201  2.160951  0  2.157193  0
Cr  Cr4  1  0.83062232  0.87788635  0.27968461  1  0  1.865623  0  3.531177  0  2.078646  0  1.933221  0  3.979927  0  0  2.014548  0  3.957667  0  0  1.342311  1.877317  0  3.997237  0
Cr  Cr5  1  0.66938094  0.12212272  0.77968588  1  0  1.865766  0  3.531055  0  2.078973  0  1.933378  0  3.9798  0  0  2.014652  0  3.957611  0  0  1.342335  1.877457  0  3.997146  0
Cr  Cr6  1  0.16939042  0.37788319  0.22031341  1  0  1.865991  0  3.530668  0  2.078744  0  1.933348  0  3.979708  0  0  2.014952  0  3.957059  0  0  1.342345  1.87745  0  3.997012  0
Cr  Cr7  1  0.33060939  0.62212666  0.72031916  1  0  1.865661  0  3.530837  0  2.078533  0  1.933098  0  3.979779  0  0  2.014559  0  3.957339  0  0  1.342194  1.877181  0  3.997102  0
H  H8  1  0.40810522  0.16609200  0.95437377  1  0  0.127121  0  0.948451  0  0.140291  0  0.137123  0  1.006025  0  0  0.140521  0  1.005157  0  0  0.111995  0.134679  0  1.006875  0
H  H9  1  0.09189693  0.83390281  0.45437365  1  0  0.127129  0  0.948422  0  0.140319  0  0.137088  0  1.006022  0  0  0.140488  0  1.005154  0  0  0.112002  0.134646  0  1.006861  0
H  H10  1  0.59189113  0.66609187  0.54562599  1  0  0.127166  0  0.948379  0  0.140283  0  0.137118  0  1.006009  0  0  0.140516  0  1.00514  0  0  0.112028  0.134678  0  1.006843  0
H  H11  1  0.90810221  0.33389931  0.04562386  1  0  0.127123  0  0.948426  0  0.140249  0  0.137065  0  1.006038  0  0  0.140464  0  1.005172  0  0  0.112012  0.134624  0  1.006877  0
H  H12  1  0.48449211  0.13758793  0.08380886  1  0  0.08865  0  0.938053  0  0.14089  0  0.095193  0  1.003289  0  0  0.098189  0  1.000707  0  0  0.123895  0.093031  0  1.005183  0
H  H13  1  0.01550811  0.86240946  0.58380935  1  0  0.088677  0  0.938005  0  0.141167  0  0.095227  0  1.003234  0  0  0.098222  0  1.000652  0  0  0.123898  0.093062  0  1.00513  0
H  H14  1  0.51551030  0.63758819  0.41619032  1  0  0.088633  0  0.938142  0  0.141186  0  0.09524  0  1.003313  0  0  0.098234  0  1.000734  0  0  0.123894  0.093074  0  1.005207  0
H  H15  1  0.98448952  0.36241188  0.91618875  1  0  0.088624  0  0.938105  0  0.141194  0  0.095234  0  1.003279  0  0  0.098227  0  1.000702  0  0  0.123902  0.093068  0  1.00518  0
H  H16  1  0.88632049  0.80717309  0.98931955  1  0  0.109489  0  0.981949  0  0.147492  0  0.117796  0  1.044033  0  0  0.119716  0  1.046017  0  0  0.108887  0.116371  0  1.042909  0
H  H17  1  0.61367911  0.19282389  0.48931864  1  0  0.109439  0  0.981976  0  0.147515  0  0.117753  0  1.04406  0  0  0.119671  0  1.046046  0  0  0.108885  0.116328  0  1.04293  0
H  H18  1  0.11367872  0.30717350  0.51068120  1  0  0.109435  0  0.981968  0  0.147484  0  0.117787  0  1.044013  0  0  0.119705  0  1.045999  0  0  0.108905  0.116362  0  1.042878  0
H  H19  1  0.38631868  0.69282268  0.01068157  1  0  0.109398  0  0.982002  0  0.147493  0  0.117745  0  1.04406  0  0  0.119664  0  1.046044  0  0  0.108889  0.116325  0  1.042928  0
H  H20  1  0.97912089  0.79742058  0.11728955  1  0  0.09118  0  0.949055  0  0.094087  0  0.099778  0  1.011138  0  0  0.102835  0  1.008326  0  0  0.122254  0.09757  0  1.013218  0
H  H21  1  0.52087982  0.20257897  0.61728873  1  0  0.091204  0  0.94902  0  0.094111  0  0.0998  0  1.011104  0  0  0.102856  0  1.008295  0  0  0.122261  0.097592  0  1.013184  0
H  H22  1  0.02088284  0.29742282  0.38271061  1  0  0.091224  0  0.949005  0  0.094094  0  0.099802  0  1.011113  0  0  0.102859  0  1.008301  0  0  0.122251  0.097596  0  1.013195  0
H  H23  1  0.47911801  0.70258081  0.88271206  1  0  0.091249  0  0.948968  0  0.094086  0  0.099819  0  1.011071  0  0  0.102875  0  1.008261  0  0  0.122265  0.097616  0  1.013151  0
C  C24  1  0.10577665  0.96436988  0.88416767  1  0  0.725455  0  3.841608  0  1.667616  0  0.679706  0  4.133  0  0  0.715819  0  4.119223  0  0  0.243156  0.655283  0  4.141144  0
C  C25  1  0.39422572  0.03562802  0.38416778  1  0  0.725655  0  3.841217  0  1.667757  0  0.679774  0  4.132823  0  0  0.715889  0  4.119041  0  0  0.243188  0.655345  0  4.140955  0
C  C26  1  0.89422086  0.46436331  0.61583196  1  0  0.72578  0  3.841223  0  1.66779  0  0.679747  0  4.133081  0  0  0.715861  0  4.119297  0  0  0.243193  0.655331  0  4.141191  0
C  C27  1  0.60578137  0.53562765  0.11583249  1  0  0.725607  0  3.8414  0  1.667762  0  0.679794  0  4.132907  0  0  0.715907  0  4.119123  0  0  0.243243  0.655373  0  4.141031  0
C  C28  1  0.14407776  0.98283494  0.96185447  1  0  -0.008247  0  3.703422  0  -0.005101  0  0.010158  0  3.932375  0  0  0.007432  0  3.951799  0  0  0.007977  0.01192  0  3.919356  0
C  C29  1  0.35592285  0.01715699  0.46185355  1  0  -0.008331  0  3.703371  0  -0.005297  0  0.010115  0  3.932348  0  0  0.007388  0  3.951769  0  0  0.007993  0.011891  0  3.919299  0
C  C30  1  0.85591820  0.48283867  0.53814621  1  0  -0.008322  0  3.703234  0  -0.005332  0  0.010149  0  3.932274  0  0  0.007425  0  3.951691  0  0  0.007954  0.011913  0  3.919234  0
C  C31  1  0.64407516  0.51715539  0.03814515  1  0  -0.008255  0  3.70334  0  -0.005297  0  0.010155  0  3.932325  0  0  0.007433  0  3.951738  0  0  0.008012  0.011921  0  3.9193  0
C  C32  1  0.30889603  0.08477698  0.98915596  1  0  -0.120783  0  3.665971  0  -0.012288  0  -0.140705  0  3.910031  0  0  -0.146056  0  3.930543  0  0  -0.073193  -0.13723  0  3.896353  0
C  C33  1  0.19110754  0.91521773  0.48915630  1  0  -0.120823  0  3.666058  0  -0.012155  0  -0.140693  0  3.910139  0  0  -0.146043  0  3.930649  0  0  -0.073223  -0.137221  0  3.896439  0
C  C34  1  0.69110648  0.58477541  0.51084330  1  0  -0.120787  0  3.666052  0  -0.012063  0  -0.140668  0  3.910142  0  0  -0.146016  0  3.93065  0  0  -0.073214  -0.137198  0  3.896444  0
C  C35  1  0.80888999  0.41521731  0.01084276  1  0  -0.120755  0  3.665989  0  -0.012124  0  -0.140615  0  3.910122  0  0  -0.145961  0  3.930624  0  0  -0.073204  -0.137131  0  3.896428  0
C  C36  1  0.35203883  0.06751308  0.06081747  1  0  0.141687  0  3.685886  0  0.389769  0  0.112729  0  3.949205  0  0  0.119203  0  3.964316  0  0  0.055686  0.108506  0  3.938797  0
C  C37  1  0.14796297  0.93248152  0.56081736  1  0  0.141736  0  3.685796  0  0.389487  0  0.112772  0  3.949107  0  0  0.119247  0  3.964217  0  0  0.05571  0.108549  0  3.938694  0
C  C38  1  0.64796215  0.56751597  0.43918226  1  0  0.141688  0  3.685857  0  0.389467  0  0.112679  0  3.949161  0  0  0.119152  0  3.964277  0  0  0.055674  0.108454  0  3.938742  0
C  C39  1  0.85203457  0.43248259  0.93918071  1  0  0.141679  0  3.685846  0  0.389614  0  0.112664  0  3.949158  0  0  0.119135  0  3.964276  0  0  0.055647  0.108441  0  3.93876  0
C  C40  1  0.01897488  0.88307057  0.00858485  1  0  -0.118945  0  3.694065  0  -0.0943  0  -0.138797  0  3.936166  0  0  -0.143707  0  3.95739  0  0  -0.075715  -0.135623  0  3.922082  0
C  C41  1  0.48102556  0.11692705  0.50858497  1  0  -0.118779  0  3.694017  0  -0.094298  0  -0.138631  0  3.936111  0  0  -0.14354  0  3.957336  0  0  -0.075658  -0.135458  0  3.922008  0
C  C42  1  0.98102723  0.38306990  0.49141474  1  0  -0.118851  0  3.693975  0  -0.094268  0  -0.13873  0  3.936067  0  0  -0.143638  0  3.957289  0  0  -0.075696  -0.135553  0  3.921964  0
C  C43  1  0.51896933  0.61692421  0.99141481  1  0  -0.118753  0  3.694006  0  -0.094307  0  -0.138626  0  3.936085  0  0  -0.143534  0  3.957308  0  0  -0.075659  -0.135455  0  3.922003  0
C  C44  1  0.07034647  0.87702227  0.07951415  1  0  0.139995  0  3.693789  0  0.509167  0  0.113847  0  3.946196  0  0  0.120304  0  3.96067  0  0  0.053817  0.109609  0  3.936196  0
C  C45  1  0.42965376  0.12297656  0.57951269  1  0  0.139916  0  3.693917  0  0.509143  0  0.11377  0  3.946339  0  0  0.120225  0  3.960814  0  0  0.053744  0.109524  0  3.936338  0
C  C46  1  0.92965565  0.37702475  0.42048651  1  0  0.139929  0  3.694058  0  0.509181  0  0.113791  0  3.946476  0  0  0.120247  0  3.960952  0  0  0.053781  0.109539  0  3.93648  0
C  C47  1  0.57034264  0.62297673  0.92048708  1  0  0.139881  0  3.694007  0  0.509182  0  0.113753  0  3.946428  0  0  0.120208  0  3.960907  0  0  0.053745  0.109506  0  3.936447  0
N  N48  1  0.23882726  0.96086152  0.10509484  1  0  -0.394527  0  3.239065  0  -1.2223  0  -0.341017  0  3.506947  0  0  -0.354301  0  3.522279  0  0  -0.372448  -0.33168  0  3.496125  0
N  N49  1  0.26117592  0.03913866  0.60509454  1  0  -0.394594  0  3.239011  0  -1.222249  0  -0.341101  0  3.506917  0  0  -0.354382  0  3.522246  0  0  -0.372454  -0.331767  0  3.496104  0
N  N50  1  0.76118082  0.46086141  0.39490472  1  0  -0.394586  0  3.239063  0  -1.22232  0  -0.341063  0  3.506956  0  0  -0.354348  0  3.522289  0  0  -0.372443  -0.331724  0  3.496134  0
N  N51  1  0.73881906  0.53914015  0.89490527  1  0  -0.394559  0  3.239138  0  -1.222347  0  -0.341042  0  3.50703  0  0  -0.354329  0  3.522367  0  0  -0.372416  -0.331712  0  3.496236  0
O  O52  1  0.03821302  0.80223532  0.86440833  1  0  -0.760346  0  2.096516  0  -1.228579  0  -0.71612  0  2.356578  0  0  -0.743807  0  2.347515  0  0  -0.399522  -0.696195  0  2.361773  0
O  O53  1  0.46178637  0.19775834  0.36440782  1  0  -0.760387  0  2.09638  0  -1.228768  0  -0.716122  0  2.356517  0  0  -0.743811  0  2.347453  0  0  -0.399517  -0.696189  0  2.3617  0
O  O54  1  0.96177710  0.30223433  0.63559137  1  0  -0.760428  0  2.096629  0  -1.228819  0  -0.716108  0  2.356816  0  0  -0.743806  0  2.347772  0  0  -0.399486  -0.696174  0  2.361991  0
O  O55  1  0.53822507  0.69776659  0.13559080  1  0  -0.760454  0  2.096409  0  -1.228751  0  -0.716209  0  2.356512  0  0  -0.743904  0  2.347465  0  0  -0.399566  -0.696275  0  2.36169  0
O  O56  1  0.14284075  0.10559361  0.84437037  1  0  -0.700039  0  2.043551  0  -1.21035  0  -0.654717  0  2.296583  0  0  -0.679552  0  2.284756  0  0  -0.370965  -0.636966  0  2.30372  0
O  O57  1  0.35716022  0.89440012  0.34436908  1  0  -0.700159  0  2.043341  0  -1.210312  0  -0.65478  0  2.296434  0  0  -0.679626  0  2.284622  0  0  -0.370992  -0.637041  0  2.303579  0
O  O58  1  0.85715264  0.60559712  0.65563151  1  0  -0.700202  0  2.043232  0  -1.210368  0  -0.65476  0  2.296376  0  0  -0.679603  0  2.284561  0  0  -0.370999  -0.637043  0  2.303545  0
O  O59  1  0.64284643  0.39440518  0.15563051  1  0  -0.700096  0  2.043517  0  -1.210374  0  -0.654725  0  2.296539  0  0  -0.679586  0  2.284764  0  0  -0.371018  -0.637002  0  2.303713  0
O  O60  1  0.68596930  0.68247265  0.27529628  1  0  -0.987964  0  1.722204  0  -0.947024  0  -0.983732  0  2.026509  0  0  -1.017054  0  2.021947  0  0  -0.630577  -0.960014  0  2.029703  0
O  O61  1  0.81403397  0.31753501  0.77529795  1  0  -0.988081  0  1.722334  0  -0.947049  0  -0.983821  0  2.02654  0  0  -1.017133  0  2.022002  0  0  -0.6306  -0.9601  0  2.029749  0
O  O62  1  0.31404216  0.18247073  0.22470130  1  0  -0.988049  0  1.722138  0  -0.94712  0  -0.983723  0  2.026408  0  0  -1.017136  0  2.021818  0  0  -0.630564  -0.960016  0  2.02962  0
O  O63  1  0.18595309  0.81753768  0.72470333  1  0  -0.987948  0  1.722206  0  -0.946838  0  -0.983625  0  2.026414  0  0  -1.017018  0  2.02189  0  0  -0.63052  -0.959901  0  2.029602  0
O  O64  1  0.67829311  0.04384548  0.24042469  1  0  -1.035575  0  1.646542  0  -1.009266  0  -1.020343  0  1.938053  0  0  -1.052679  0  1.927758  0  0  -0.672221  -0.996932  0  1.945082  0
O  O65  1  0.82170875  0.95616371  0.74042504  1  0  -1.035574  0  1.646523  0  -1.009527  0  -1.020355  0  1.938012  0  0  -1.052682  0  1.927737  0  0  -0.672206  -0.996927  0  1.945031  0
O  O66  1  0.32172003  0.54384072  0.25957399  1  0  -1.035659  0  1.646424  0  -1.009398  0  -1.020338  0  1.93793  0  0  -1.052757  0  1.927592  0  0  -0.672191  -0.996917  0  1.944936  0
O  O67  1  0.17827966  0.45616328  0.75957881  1  0  -1.035587  0  1.646378  0  -1.009386  0  -1.020337  0  1.937915  0  0  -1.052717  0  1.927605  0  0  -0.672202  -0.996915  0  1.944935  0
O  O68  1  0.04429334  0.84675264  0.23598882  1  0  -0.858776  0  1.533529  0  -0.903636  0  -0.876487  0  1.845183  0  0  -0.906986  0  1.83762  0  0  -0.599084  -0.855119  0  1.850739  0
O  O69  1  0.45570946  0.15325573  0.73599051  1  0  -0.858836  0  1.533544  0  -0.903598  0  -0.876542  0  1.845165  0  0  -0.907024  0  1.837615  0  0  -0.599074  -0.855157  0  1.850724  0
O  O70  1  0.95571944  0.34675270  0.26401026  1  0  -0.858942  0  1.533557  0  -0.903516  0  -0.876539  0  1.845192  0  0  -0.907119  0  1.837569  0  0  -0.599128  -0.855169  0  1.85075  0
O  O71  1  0.54428235  0.65325785  0.76401294  1  0  -0.858852  0  1.533603  0  -0.903597  0  -0.876468  0  1.845188  0  0  -0.907004  0  1.837598  0  0  -0.599078  -0.855103  0  1.850758  0
O  O72  1  0.87446435  0.93719935  0.35973998  1  0  -0.613755  0  1.259785  0  -0.718548  0  -0.629466  0  1.498756  0  0  -0.650049  0  1.493793  0  0  -0.458474  -0.6155  0  1.502859  0
O  O73  1  0.62554322  0.06280804  0.85974182  1  0  -0.613807  0  1.25979  0  -0.718547  0  -0.629506  0  1.498735  0  0  -0.650071  0  1.493784  0  0  -0.458483  -0.61554  0  1.502856  0
O  O74  1  0.12554831  0.43719649  0.14025749  1  0  -0.613904  0  1.25969  0  -0.718573  0  -0.629527  0  1.498695  0  0  -0.650184  0  1.49366  0  0  -0.458499  -0.615567  0  1.502803  0
O  O75  1  0.37445174  0.56280645  0.64026167  1  0  -0.613845  0  1.259787  0  -0.718527  0  -0.629464  0  1.498747  0  0  -0.650083  0  1.493754  0  0  -0.458447  -0.615479  0  1.502836  0
