# generated using pymatgen
data_ZnSiH16C24N4(Cl2F3)2
_symmetry_space_group_name_H-M   'P 1'
_cell_length_a   7.72926703
_cell_length_b   14.00978285
_cell_length_c   14.00971909
_cell_angle_alpha   89.72715586
_cell_angle_beta   86.11384975
_cell_angle_gamma   86.11411998
_symmetry_Int_Tables_number   1
_chemical_formula_structural   ZnSiH16C24N4(Cl2F3)2
_chemical_formula_sum   'Zn1 Si1 H16 C24 N4 Cl4 F6'
_cell_volume   1510.07953251
_cell_formula_units_Z   1
loop_
 _symmetry_equiv_pos_site_id
 _symmetry_equiv_pos_as_xyz
  1  'x, y, z'
loop_
 _atom_site_type_symbol
 _atom_site_label
 _atom_site_symmetry_multiplicity
 _atom_site_fract_x
 _atom_site_fract_y
 _atom_site_fract_z
 _atom_site_occupancy
 _atom_site_pbe_bader_charge
 _atom_site_pbe_bader_spin_density
 _atom_site_pbe_cm5_charge
 _atom_site_pbe_ddec_charge
 _atom_site_pbe_ddec_spin_density
 _atom_site_pbe_ddec_sum_bond_order
 _atom_site_pbe_magmom
Zn  Zn0  1  0.49999203  0.49999906  0.49999952  1  1.377325  0  0.705286  0.733715  0  2.349439  0
Si  Si1  1  0.99999449  0.49999764  0.50000078  1  3.158027  0  0.260183  1.722674  0  3.945142  0
H  H2  1  0.25225352  0.50024196  0.33745071  1  0.158712  0  0.117264  0.102317  0  1.040372  0
H  H3  1  0.25645249  0.50013117  0.16539504  1  0.132354  0  0.093037  0.106052  0  1.081622  0
H  H4  1  0.81742495  0.49989549  0.15935508  1  0.089172  0  0.096566  0.106643  0  1.046355  0
H  H5  1  0.79019545  0.49990663  0.33348598  1  0.188414  0  0.118111  0.104392  0  1.033638  0
H  H6  1  0.18255004  0.50010263  0.84064287  1  0.088944  0  0.096648  0.106746  0  1.046483  0
H  H7  1  0.74352232  0.49986839  0.83460790  1  0.132591  0  0.093008  0.105905  0  1.08157  0
H  H8  1  0.74772484  0.49976045  0.66255067  1  0.159005  0  0.117296  0.102357  0  1.040459  0
H  H9  1  0.20978706  0.50009363  0.66651383  1  0.187924  0  0.118093  0.104402  0  1.033697  0
H  H10  1  0.25226050  0.33744957  0.50024019  1  0.158794  0  0.117273  0.102275  0  1.040402  0
H  H11  1  0.25646155  0.16539452  0.50012859  1  0.132445  0  0.093014  0.105975  0  1.081476  0
H  H12  1  0.81743091  0.15935478  0.49989101  1  0.089117  0  0.09659  0.106674  0  1.046409  0
H  H13  1  0.79020163  0.33348526  0.49990370  1  0.188419  0  0.11811  0.104391  0  1.033719  0
H  H14  1  0.18255325  0.84064263  0.50010447  1  0.088996  0  0.096664  0.106799  0  1.046384  0
H  H15  1  0.74352710  0.83460860  0.49986813  1  0.132556  0  0.092989  0.105879  0  1.081567  0
H  H16  1  0.74772582  0.66255141  0.49975948  1  0.158924  0  0.117306  0.102337  0  1.04043  0
H  H17  1  0.20978754  0.66651357  0.50009587  1  0.187973  0  0.118095  0.104402  0  1.033698  0
C  C18  1  0.37649538  0.50014790  0.29586115  1  0.538539  0  0.051757  0.106782  0  3.90648  0
C  C19  1  0.38025932  0.50010541  0.19654356  1  -0.082421  0  -0.089228  -0.166174  0  3.929622  0
C  C20  1  0.53922105  0.50000320  0.14061183  1  -0.0306  0  0.001317  0.100234  0  3.972555  0
C  C21  1  0.68771335  0.49992388  0.19426591  1  0.038514  0  -0.090738  -0.169994  0  3.933337  0
C  C22  1  0.67394751  0.49991915  0.29361629  1  0.432214  0  0.052622  0.107284  0  3.903298  0
C  C23  1  0.56034393  0.49999242  0.03408163  1  0.039032  0  0.021354  0.032879  0  3.901473  0
C  C24  1  0.43962751  0.50000285  0.96591931  1  0.122251  0  0.021328  0.033048  0  3.901666  0
C  C25  1  0.31225896  0.50007496  0.80573284  1  0.038425  0  -0.090838  -0.170162  0  3.933926  0
C  C26  1  0.46075265  0.49999493  0.85938830  1  -0.030442  0  0.001311  0.100108  0  3.972924  0
C  C27  1  0.61971522  0.49989629  0.80346081  1  -0.082549  0  -0.089154  -0.165842  0  3.929275  0
C  C28  1  0.62348860  0.49985094  0.70413861  1  0.538575  0  0.051875  0.106857  0  3.906564  0
C  C29  1  0.32602981  0.50008112  0.70638370  1  0.432326  0  0.052665  0.107372  0  3.903177  0
C  C30  1  0.37649930  0.29585981  0.50014713  1  0.538478  0  0.051793  0.106845  0  3.906534  0
C  C31  1  0.38026674  0.19654276  0.50010253  1  -0.082608  0  -0.089209  -0.166063  0  3.929286  0
C  C32  1  0.53922908  0.14061141  0.49999931  1  -0.030527  0  0.001342  0.100235  0  3.972506  0
C  C33  1  0.68772192  0.19426627  0.49991931  1  0.038553  0  -0.090779  -0.170098  0  3.933612  0
C  C34  1  0.67395490  0.29361481  0.49991631  1  0.432118  0  0.05263  0.107307  0  3.903447  0
C  C35  1  0.56034964  0.03408170  0.49999155  1  0.039012  0  0.021414  0.033016  0  3.90135  0
C  C36  1  0.43963150  0.96591928  0.50000259  1  0.122296  0  0.021288  0.032948  0  3.901548  0
C  C37  1  0.31226345  0.80573185  0.50007826  1  0.038482  0  -0.090839  -0.170241  0  3.933843  0
C  C38  1  0.46075603  0.85938886  0.49999754  1  -0.030455  0  0.00128  0.100131  0  3.972915  0
C  C39  1  0.61971672  0.80346036  0.49989651  1  -0.082572  0  -0.089148  -0.165871  0  3.929345  0
C  C40  1  0.62349108  0.70413973  0.49985168  1  0.538595  0  0.051833  0.106827  0  3.906691  0
C  C41  1  0.32603323  0.70638188  0.50008188  1  0.432317  0  0.052664  0.107359  0  3.903309  0
N  N42  1  0.52011665  0.50003878  0.34492580  1  -1.257868  0  -0.313123  -0.220478  0  3.502791  0
N  N43  1  0.47986343  0.49996006  0.65507410  1  -1.257755  0  -0.313241  -0.220701  0  3.502864  0
N  N44  1  0.52012057  0.34492577  0.50003663  1  -1.257781  0  -0.313178  -0.220539  0  3.502868  0
N  N45  1  0.47986584  0.65507450  0.49996232  1  -1.25777  0  -0.3132  -0.220605  0  3.503052  0
Cl  Cl46  1  0.77842763  0.49997518  0.99299936  1  -0.185763  0  0.03799  -0.035315  0  1.691183  0
Cl  Cl47  1  0.22154615  0.50002223  0.00700149  1  -0.186381  0  0.038002  -0.03535  0  1.691417  0
Cl  Cl48  1  0.77843061  0.99299876  0.49997580  1  -0.185832  0  0.037987  -0.035321  0  1.691223  0
Cl  Cl49  1  0.22154932  0.00700151  0.50001982  1  -0.186352  0  0.038  -0.035328  0  1.691366  0
F  F50  1  0.22707946  0.50041037  0.50041467  1  -0.821915  0  -0.193312  -0.496238  0  1.35529  0
F  F51  1  0.77291135  0.49958560  0.49958485  1  -0.82194  0  -0.193263  -0.496162  0  1.355252  0
F  F52  1  0.99999907  0.58608066  0.41392026  1  -0.824767  0  -0.24167  -0.540613  0  1.085262  0
F  F53  1  0.99999094  0.41391676  0.58608054  1  -0.824699  0  -0.241609  -0.540588  0  1.085307  0
F  F54  1  0.02198615  0.41393297  0.41393174  1  -0.824209  0  -0.241732  -0.54075  0  1.085083  0
F  F55  1  0.97800587  0.58606371  0.58606915  1  -0.824207  0  -0.241724  -0.540734  0  1.085084  0
