# generated using pymatgen
data_Ag2H9(C3N)3
_symmetry_space_group_name_H-M   'P 1'
_cell_length_a   6.41880692
_cell_length_b   11.38852271
_cell_length_c   14.94055133
_cell_angle_alpha   90.00001726
_cell_angle_beta   89.99995764
_cell_angle_gamma   90.00020341
_symmetry_Int_Tables_number   1
_chemical_formula_structural   Ag2H9(C3N)3
_chemical_formula_sum   'Ag8 H36 C36 N12'
_cell_volume   1092.16518420
_cell_formula_units_Z   4
loop_
 _symmetry_equiv_pos_site_id
 _symmetry_equiv_pos_as_xyz
  1  'x, y, z'
loop_
 _atom_site_type_symbol
 _atom_site_label
 _atom_site_symmetry_multiplicity
 _atom_site_fract_x
 _atom_site_fract_y
 _atom_site_fract_z
 _atom_site_occupancy
 _atom_site_hle17_bader_spin_density
 _atom_site_hle17_ddec_charge
 _atom_site_hle17_ddec_spin_density
 _atom_site_hle17_ddec_sum_bond_order
 _atom_site_hle17_magmom
 _atom_site_hse06_10hf_bader_spin_density
 _atom_site_hse06_10hf_ddec_charge
 _atom_site_hse06_10hf_ddec_spin_density
 _atom_site_hse06_10hf_ddec_sum_bond_order
 _atom_site_hse06_10hf_magmom
 _atom_site_hse06_bader_spin_density
 _atom_site_hse06_ddec_charge
 _atom_site_hse06_ddec_spin_density
 _atom_site_hse06_ddec_sum_bond_order
 _atom_site_hse06_magmom
 _atom_site_pbe_bader_spin_density
 _atom_site_pbe_cm5_charge
 _atom_site_pbe_ddec_charge
 _atom_site_pbe_ddec_spin_density
 _atom_site_pbe_ddec_sum_bond_order
 _atom_site_pbe_magmom
Ag  Ag0  1  0.25000548  0.54746473  0.74673820  1  0  0.263656  0  2.057693  0  0  0.17315  0  2.535219  0  0  0.188617  0  2.490484  0  0  0.323239  0.158057  0  2.575639  0
Ag  Ag1  1  0.75000507  0.45252745  0.25325766  1  0  0.263597  0  2.0574  0  0  0.173061  0  2.534907  0  0  0.188531  0  2.490174  0  0  0.323187  0.157963  0  2.575325  0
Ag  Ag2  1  0.25000406  0.45252782  0.24673522  1  0  0.263722  0  2.057462  0  0  0.173252  0  2.534921  0  0  0.188696  0  2.49023  0  0  0.323272  0.158158  0  2.57534  0
Ag  Ag3  1  0.75000805  0.54748279  0.75326064  1  0  0.26368  0  2.057889  0  0  0.173194  0  2.535395  0  0  0.188644  0  2.490683  0  0  0.323307  0.158102  0  2.575814  0
Ag  Ag4  1  0.24999604  0.81568638  0.02641006  1  0  0.544035  0  1.645366  0  0  0.428222  0  2.084077  0  0  0.445917  0  2.053189  0  0  0.521743  0.418069  0  2.104922  0
Ag  Ag5  1  0.74999581  0.18431018  0.97358580  1  0  0.543934  0  1.64525  0  0  0.428119  0  2.08394  0  0  0.445815  0  2.053059  0  0  0.521664  0.417965  0  2.104793  0
Ag  Ag6  1  0.25000141  0.18431311  0.52641161  1  0  0.54404  0  1.645263  0  0  0.428242  0  2.08395  0  0  0.445935  0  2.053067  0  0  0.521754  0.418089  0  2.104798  0
Ag  Ag7  1  0.75000446  0.81569136  0.47358625  1  0  0.543955  0  1.645309  0  0  0.428129  0  2.084027  0  0  0.445833  0  2.053127  0  0  0.521697  0.417973  0  2.104876  0
H  H8  1  0.24999889  0.26271126  0.12178733  1  0  0.106979  0  0.958179  0  0  0.120507  0  1.020126  0  0  0.122451  0  1.02039  0  0  0.096981  0.119267  0  1.019908  0
H  H9  1  0.74999451  0.73728531  0.87821053  1  0  0.106991  0  0.958253  0  0  0.120491  0  1.020205  0  0  0.122431  0  1.020468  0  0  0.096966  0.119252  0  1.019983  0
H  H10  1  0.25000618  0.73728827  0.62178835  1  0  0.107022  0  0.958177  0  0  0.120524  0  1.020124  0  0  0.122465  0  1.020391  0  0  0.096963  0.119283  0  1.019904  0
H  H11  1  0.75000280  0.26271356  0.37821487  1  0  0.107089  0  0.958161  0  0  0.12059  0  1.020095  0  0  0.122529  0  1.020359  0  0  0.097008  0.119352  0  1.019871  0
H  H12  1  0.24999497  0.20449314  0.83663109  1  0  0.115373  0  0.938486  0  0  0.132568  0  0.985314  0  0  0.134222  0  0.986809  0  0  0.109218  0.131547  0  0.98433  0
H  H13  1  0.74999844  0.79550782  0.16336610  1  0  0.115346  0  0.938584  0  0  0.132535  0  0.985422  0  0  0.134191  0  0.986915  0  0  0.109181  0.131514  0  0.984435  0
H  H14  1  0.25000194  0.79550824  0.33663957  1  0  0.115327  0  0.938741  0  0  0.132493  0  0.985583  0  0  0.134146  0  0.987079  0  0  0.10917  0.131472  0  0.984597  0
H  H15  1  0.74999614  0.20449009  0.66336900  1  0  0.115377  0  0.938478  0  0  0.132575  0  0.985308  0  0  0.13423  0  0.986804  0  0  0.109213  0.131555  0  0.984324  0
H  H16  1  0.24999273  0.98817336  0.86964469  1  0  0.078274  0  0.958141  0  0  0.088402  0  1.021179  0  0  0.090251  0  1.019977  0  0  0.111233  0.087253  0  1.021822  0
H  H17  1  0.74999288  0.01182584  0.13035518  1  0  0.07829  0  0.958143  0  0  0.088412  0  1.021189  0  0  0.090262  0  1.019986  0  0  0.111232  0.087265  0  1.021833  0
H  H18  1  0.25000100  0.01182626  0.36964161  1  0  0.078269  0  0.958173  0  0  0.088394  0  1.021223  0  0  0.090243  0  1.020022  0  0  0.111231  0.087247  0  1.021866  0
H  H19  1  0.74999864  0.98817118  0.63035425  1  0  0.078293  0  0.958099  0  0  0.088422  0  1.021134  0  0  0.09027  0  1.019932  0  0  0.111221  0.087273  0  1.021778  0
H  H20  1  0.24998852  0.93891486  0.16957681  1  0  0.105585  0  0.977131  0  0  0.120368  0  1.052746  0  0  0.124143  0  1.048747  0  0  0.082712  0.117618  0  1.055548  0
H  H21  1  0.75000333  0.06108434  0.83042105  1  0  0.105625  0  0.977099  0  0  0.120397  0  1.052725  0  0  0.124171  0  1.048725  0  0  0.082706  0.117646  0  1.055532  0
H  H22  1  0.25000245  0.06108469  0.66957633  1  0  0.105598  0  0.977081  0  0  0.120379  0  1.052705  0  0  0.124154  0  1.048706  0  0  0.082706  0.117625  0  1.055514  0
H  H23  1  0.75000342  0.93891715  0.33042153  1  0  0.105626  0  0.977074  0  0  0.120403  0  1.052696  0  0  0.12418  0  1.048694  0  0  0.08272  0.117652  0  1.055502  0
H  H24  1  0.11305998  0.06730563  0.20640804  1  0  0.119391  0  0.964114  0  0  0.142002  0  1.021655  0  0  0.142936  0  1.022716  0  0  0.095422  0.141356  0  1.020855  0
H  H25  1  0.61306945  0.93269154  0.79358853  1  0  0.119441  0  0.964074  0  0  0.142047  0  1.021617  0  0  0.142982  0  1.022678  0  0  0.095432  0.141401  0  1.020817  0
H  H26  1  0.38694183  0.93269744  0.70641106  1  0  0.119423  0  0.964071  0  0  0.142046  0  1.021602  0  0  0.142981  0  1.022663  0  0  0.095422  0.1414  0  1.020802  0
H  H27  1  0.88693581  0.06731082  0.29358877  1  0  0.119418  0  0.964136  0  0  0.142037  0  1.021656  0  0  0.142972  0  1.022717  0  0  0.095449  0.141391  0  1.020857  0
H  H28  1  0.88693810  0.93269006  0.79358782  1  0  0.119435  0  0.964089  0  0  0.142044  0  1.021626  0  0  0.142979  0  1.022687  0  0  0.095452  0.141398  0  1.020826  0
H  H29  1  0.38693331  0.06730591  0.20641335  1  0  0.119406  0  0.964122  0  0  0.142016  0  1.021662  0  0  0.142952  0  1.022722  0  0  0.095431  0.14137  0  1.020862  0
H  H30  1  0.61306872  0.06730791  0.29358881  1  0  0.119429  0  0.964102  0  0  0.142033  0  1.021649  0  0  0.142969  0  1.022709  0  0  0.095425  0.141387  0  1.020848  0
H  H31  1  0.11305292  0.93269278  0.70641043  1  0  0.119418  0  0.96409  0  0  0.142039  0  1.021627  0  0  0.142974  0  1.022688  0  0  0.095445  0.141392  0  1.020827  0
H  H32  1  0.24999867  0.40682316  0.89320065  1  0  0.099153  0  0.98397  0  0  0.116954  0  1.057795  0  0  0.118224  0  1.057122  0  0  0.077012  0.116507  0  1.057557  0
H  H33  1  0.74999629  0.59317867  0.10679922  1  0  0.099164  0  0.983982  0  0  0.116959  0  1.057786  0  0  0.118227  0  1.057117  0  0  0.077015  0.116511  0  1.057553  0
H  H34  1  0.25000593  0.59317911  0.39320239  1  0  0.099157  0  0.983995  0  0  0.116949  0  1.057808  0  0  0.118217  0  1.057139  0  0  0.077018  0.116499  0  1.057577  0
H  H35  1  0.74999838  0.40682185  0.60680351  1  0  0.099146  0  0.983938  0  0  0.116939  0  1.057772  0  0  0.118204  0  1.057107  0  0  0.077034  0.116492  0  1.057535  0
H  H36  1  0.11235623  0.42229301  0.99606301  1  0  0.116797  0  0.946441  0  0  0.140435  0  1.00411  0  0  0.141107  0  1.00524  0  0  0.095183  0.139983  0  1.003227  0
H  H37  1  0.61235705  0.57770768  0.00393825  1  0  0.116814  0  0.946512  0  0  0.140433  0  1.004185  0  0  0.141106  0  1.005316  0  0  0.09518  0.139992  0  1.003291  0
H  H38  1  0.38764508  0.57770667  0.49606269  1  0  0.116818  0  0.946516  0  0  0.140454  0  1.004173  0  0  0.141127  0  1.005302  0  0  0.095214  0.140005  0  1.003284  0
H  H39  1  0.88764248  0.42229281  0.50393848  1  0  0.116798  0  0.94646  0  0  0.140437  0  1.004121  0  0  0.141112  0  1.00525  0  0  0.095179  0.139994  0  1.003229  0
H  H40  1  0.88763562  0.57770883  0.00393820  1  0  0.116827  0  0.946518  0  0  0.140445  0  1.004187  0  0  0.141119  0  1.005318  0  0  0.095183  0.140003  0  1.003295  0
H  H41  1  0.38765038  0.42229240  0.99606430  1  0  0.116781  0  0.94645  0  0  0.140418  0  1.004125  0  0  0.141091  0  1.005255  0  0  0.095176  0.139969  0  1.003238  0
H  H42  1  0.61235145  0.42229166  0.50393919  1  0  0.116815  0  0.946399  0  0  0.140452  0  1.004066  0  0  0.141125  0  1.005194  0  0  0.095196  0.14  0  1.003183  0
H  H43  1  0.11236339  0.57770815  0.49606206  1  0  0.116811  0  0.946557  0  0  0.140435  0  1.004226  0  0  0.141109  0  1.005356  0  0  0.09517  0.139993  0  1.003331  0
C  C44  1  0.24999575  0.40486501  0.66552498  1  0  -0.044235  0  3.471078  0  0  -0.026057  0  3.803538  0  0  -0.023394  0  3.811744  0  0  -0.028005  -0.026202  0  3.800047  0
C  C45  1  0.75001791  0.59513068  0.33447087  1  0  -0.044282  0  3.47132  0  0  -0.026106  0  3.803782  0  0  -0.023443  0  3.811986  0  0  -0.02804  -0.026251  0  3.800287  0
C  C46  1  0.24999367  0.59513454  0.16552739  1  0  -0.044321  0  3.47098  0  0  -0.026152  0  3.803454  0  0  -0.023486  0  3.811658  0  0  -0.028108  -0.026301  0  3.799963  0
C  C47  1  0.75000130  0.40487257  0.83447114  1  0  -0.044141  0  3.471344  0  0  -0.025968  0  3.803787  0  0  -0.023303  0  3.811992  0  0  -0.028011  -0.026113  0  3.800295  0
C  C48  1  0.25001365  0.69056759  0.82753108  1  0  -0.067632  0  3.473295  0  0  -0.045086  0  3.810047  0  0  -0.04393  0  3.818322  0  0  -0.03914  -0.043308  0  3.805514  0
C  C49  1  0.74998911  0.30942195  0.17246009  1  0  -0.067763  0  3.47398  0  0  -0.045197  0  3.810661  0  0  -0.044047  0  3.818935  0  0  -0.03915  -0.043412  0  3.806126  0
C  C50  1  0.25001444  0.30942148  0.32753343  1  0  -0.067825  0  3.473757  0  0  -0.045284  0  3.810496  0  0  -0.044135  0  3.818767  0  0  -0.039185  -0.0435  0  3.805962  0
C  C51  1  0.75001013  0.69056894  0.67247180  1  0  -0.067694  0  3.473339  0  0  -0.04516  0  3.810117  0  0  -0.044  0  3.818394  0  0  -0.039194  -0.043385  0  3.805584  0
C  C52  1  0.24997812  0.08366256  0.07684118  1  0  0.311667  0  3.727681  0  0  0.316675  0  3.97439  0  0  0.326623  0  3.993562  0  0  0.117921  0.309763  0  3.96171  0
C  C53  1  0.74998881  0.91633488  0.92316003  1  0  0.311609  0  3.727758  0  0  0.316594  0  3.974475  0  0  0.326538  0  3.993657  0  0  0.117843  0.309681  0  3.961794  0
C  C54  1  0.25000679  0.91633519  0.57684156  1  0  0.311675  0  3.727743  0  0  0.316647  0  3.974476  0  0  0.326592  0  3.993653  0  0  0.117894  0.309736  0  3.961797  0
C  C55  1  0.75000532  0.08366489  0.42316031  1  0  0.311702  0  3.727685  0  0  0.316655  0  3.974433  0  0  0.326597  0  3.993617  0  0  0.117885  0.309742  0  3.961758  0
C  C56  1  0.24999253  0.20497241  0.06351170  1  0  -0.217356  0  3.663177  0  0  -0.238229  0  3.898652  0  0  -0.247569  0  3.919526  0  0  -0.08811  -0.232112  0  3.885132  0
C  C57  1  0.74999776  0.79502503  0.93648750  1  0  -0.21751  0  3.663406  0  0  -0.238342  0  3.898835  0  0  -0.247677  0  3.919701  0  0  -0.088119  -0.232225  0  3.885312  0
C  C58  1  0.25001109  0.79502622  0.56351206  1  0  -0.217475  0  3.663343  0  0  -0.238275  0  3.898709  0  0  -0.247615  0  3.919586  0  0  -0.088062  -0.232158  0  3.885186  0
C  C59  1  0.75000413  0.20497474  0.43649049  1  0  -0.21758  0  3.663415  0  0  -0.23836  0  3.898866  0  0  -0.247694  0  3.919733  0  0  -0.088081  -0.232244  0  3.885351  0
C  C60  1  0.24999656  0.25270749  0.97739431  1  0  0.19152  0  3.771719  0  0  0.213403  0  4.012242  0  0  0.220435  0  4.030725  0  0  0.007281  0.20864  0  4.000474  0
C  C61  1  0.74999529  0.74729347  0.02260489  1  0  0.191702  0  3.771662  0  0  0.213643  0  4.012042  0  0  0.220676  0  4.030522  0  0  0.007346  0.208881  0  4.000273  0
C  C62  1  0.25000167  0.74729130  0.47739608  1  0  0.191546  0  3.771812  0  0  0.213475  0  4.01222  0  0  0.220508  0  4.030701  0  0  0.00728  0.208713  0  4.000453  0
C  C63  1  0.75000265  0.25271054  0.52260847  1  0  0.191622  0  3.771723  0  0  0.213463  0  4.01228  0  0  0.220497  0  4.030758  0  0  0.007202  0.2087  0  4.000516  0
C  C64  1  0.24999948  0.17303867  0.90555157  1  0  -0.204091  0  3.741201  0  0  -0.222727  0  3.992396  0  0  -0.23005  0  4.01049  0  0  -0.09602  -0.218496  0  3.981312  0
C  C65  1  0.75000016  0.82696228  0.09444629  1  0  -0.204054  0  3.74136  0  0  -0.222698  0  3.992499  0  0  -0.23002  0  4.010592  0  0  -0.095999  -0.218462  0  3.981408  0
C  C66  1  0.25000510  0.82696185  0.40555872  1  0  -0.204016  0  3.741568  0  0  -0.222635  0  3.992688  0  0  -0.229955  0  4.010776  0  0  -0.096019  -0.218402  0  3.981602  0
C  C67  1  0.74999454  0.17303560  0.59444851  1  0  -0.204116  0  3.741164  0  0  -0.222756  0  3.992376  0  0  -0.230078  0  4.010465  0  0  -0.096033  -0.218525  0  3.981292  0
C  C68  1  0.25000221  0.05330497  0.92314127  1  0  0.126102  0  3.740814  0  0  0.092371  0  4.004004  0  0  0.100655  0  4.020332  0  0  0.03252  0.086639  0  3.99356  0
C  C69  1  0.74999587  0.94669423  0.07685994  1  0  0.125953  0  3.740945  0  0  0.092224  0  4.004159  0  0  0.100508  0  4.020488  0  0  0.032469  0.086471  0  3.993747  0
C  C70  1  0.24999923  0.94669467  0.42314175  1  0  0.126058  0  3.74085  0  0  0.092309  0  4.004063  0  0  0.100594  0  4.020391  0  0  0.032516  0.086566  0  3.99364  0
C  C71  1  0.75000197  0.05330541  0.57685812  1  0  0.126033  0  3.740815  0  0  0.092316  0  4.004004  0  0  0.100601  0  4.020332  0  0  0.032518  0.086582  0  3.993567  0
C  C72  1  0.24999814  0.03533235  0.16979290  1  0  -0.366533  0  3.703278  0  0  -0.448532  0  3.935624  0  0  -0.452895  0  3.943393  0  0  -0.238998  -0.4451  0  3.930011  0
C  C73  1  0.75000462  0.96466598  0.83020831  1  0  -0.366637  0  3.703261  0  0  -0.448633  0  3.935639  0  0  -0.452994  0  3.943404  0  0  -0.239018  -0.445202  0  3.930032  0
C  C74  1  0.24999751  0.96466545  0.66979329  1  0  -0.366611  0  3.703238  0  0  -0.448645  0  3.935619  0  0  -0.453008  0  3.943384  0  0  -0.239022  -0.445213  0  3.930017  0
C  C75  1  0.75000369  0.03533463  0.33020792  1  0  -0.36662  0  3.703304  0  0  -0.448616  0  3.935692  0  0  -0.452978  0  3.943453  0  0  -0.239018  -0.445185  0  3.930085  0
C  C76  1  0.25000321  0.38293773  0.96430244  1  0  -0.334781  0  3.709781  0  0  -0.41521  0  3.936677  0  0  -0.418987  0  3.947966  0  0  -0.23941  -0.412132  0  3.928078  0
C  C77  1  0.74999487  0.61706499  0.03569944  1  0  -0.334854  0  3.709983  0  0  -0.415275  0  3.936854  0  0  -0.419056  0  3.948147  0  0  -0.239427  -0.41222  0  3.928247  0
C  C78  1  0.25000594  0.61706369  0.46430218  1  0  -0.334819  0  3.710028  0  0  -0.415266  0  3.936926  0  0  -0.419042  0  3.948213  0  0  -0.23945  -0.4122  0  3.928323  0
C  C79  1  0.74999837  0.38293814  0.53570104  1  0  -0.334814  0  3.709783  0  0  -0.41522  0  3.936662  0  0  -0.418999  0  3.947954  0  0  -0.239393  -0.412153  0  3.928056  0
N  N80  1  0.24999242  0.32377810  0.61740961  1  0  -0.405003  0  3.255726  0  0  -0.329289  0  3.557485  0  0  -0.346453  0  3.571996  0  0  -0.400662  -0.318706  0  3.547262  0
N  N81  1  0.75001189  0.67621584  0.38258892  1  0  -0.404883  0  3.255864  0  0  -0.329145  0  3.557577  0  0  -0.346314  0  3.572097  0  0  -0.400538  -0.31856  0  3.54735  0
N  N82  1  0.24999085  0.67621967  0.11740267  1  0  -0.404949  0  3.255654  0  0  -0.329227  0  3.557415  0  0  -0.346389  0  3.571922  0  0  -0.400552  -0.318642  0  3.547191  0
N  N83  1  0.75000100  0.32379621  0.88259720  1  0  -0.405044  0  3.256008  0  0  -0.329316  0  3.55774  0  0  -0.346479  0  3.572245  0  0  -0.400569  -0.318734  0  3.547527  0
N  N84  1  0.25000919  0.77228057  0.87538341  1  0  -0.41121  0  3.078197  0  0  -0.349113  0  3.354802  0  0  -0.364566  0  3.372387  0  0  -0.381353  -0.339422  0  3.341989  0
N  N85  1  0.74998734  0.22772215  0.12461579  1  0  -0.411003  0  3.079084  0  0  -0.348912  0  3.355665  0  0  -0.36436  0  3.373244  0  0  -0.381311  -0.339222  0  3.342854  0
N  N86  1  0.25001414  0.22772345  0.37538172  1  0  -0.411038  0  3.078709  0  0  -0.348943  0  3.355306  0  0  -0.364388  0  3.372882  0  0  -0.38134  -0.339252  0  3.342496  0
N  N87  1  0.75000419  0.77228453  0.62461280  1  0  -0.411154  0  3.078012  0  0  -0.349058  0  3.354634  0  0  -0.364511  0  3.372221  0  0  -0.381364  -0.339366  0  3.341821  0
N  N88  1  0.25000287  0.00871956  0.00668111  1  0  -0.363885  0  3.296151  0  0  -0.29324  0  3.577664  0  0  -0.311763  0  3.593304  0  0  -0.34936  -0.280544  0  3.567189  0
N  N89  1  0.74999677  0.99127789  0.99332077  1  0  -0.363716  0  3.296148  0  0  -0.293101  0  3.577716  0  0  -0.311626  0  3.593362  0  0  -0.349298  -0.280402  0  3.567243  0
N  N90  1  0.25000708  0.99127993  0.50668151  1  0  -0.363823  0  3.296063  0  0  -0.293195  0  3.577651  0  0  -0.311719  0  3.593291  0  0  -0.349324  -0.280489  0  3.567153  0
N  N91  1  0.74999879  0.00872015  0.49331903  1  0  -0.363846  0  3.296126  0  0  -0.293211  0  3.577704  0  0  -0.311736  0  3.593349  0  0  -0.349355  -0.280517  0  3.567234  0
