# generated using pymatgen
data_CuHgH6C10N4(ClO2)2
_symmetry_space_group_name_H-M   'P 1'
_cell_length_a   7.22937274
_cell_length_b   9.62353166
_cell_length_c   11.09884166
_cell_angle_alpha   79.54358243
_cell_angle_beta   71.01141022
_cell_angle_gamma   67.97371394
_symmetry_Int_Tables_number   1
_chemical_formula_structural   CuHgH6C10N4(ClO2)2
_chemical_formula_sum   'Cu2 Hg2 H12 C20 N8 Cl4 O8'
_cell_volume   675.29952041
_cell_formula_units_Z   2
loop_
 _symmetry_equiv_pos_site_id
 _symmetry_equiv_pos_as_xyz
  1  'x, y, z'
loop_
 _atom_site_type_symbol
 _atom_site_label
 _atom_site_symmetry_multiplicity
 _atom_site_fract_x
 _atom_site_fract_y
 _atom_site_fract_z
 _atom_site_occupancy
 _atom_site_hle17_ddec_charge
 _atom_site_hle17_ddec_spin_density
 _atom_site_hle17_ddec_sum_bond_order
 _atom_site_hle17_magmom
 _atom_site_hse06_10hf_ddec_charge
 _atom_site_hse06_10hf_ddec_spin_density
 _atom_site_hse06_10hf_ddec_sum_bond_order
 _atom_site_hse06_10hf_magmom
 _atom_site_hse06_ddec_charge
 _atom_site_hse06_ddec_spin_density
 _atom_site_hse06_ddec_sum_bond_order
 _atom_site_hse06_magmom
 _atom_site_pbe_cm5_charge
 _atom_site_pbe_ddec_charge
 _atom_site_pbe_ddec_spin_density
 _atom_site_pbe_ddec_sum_bond_order
 _atom_site_pbe_magmom
Cu  Cu0  1  0.50000221  0.00000031  0.50000036  1  0.804479  -0.726623  1.884888  -0.5  0.777112  -0.805315  2.283948  -0.611  0.865799  -0.882723  2.214979  -0.697  0.71595  0.723008  -0.748237  2.332671  -0.555
Cu  Cu1  1  0.99999816  0.50000117  0.99999890  1  0.804438  0.724886  1.884699  0.499  0.777463  0.803926  2.283343  0.61  0.866174  0.882158  2.214034  0.696  0.715592  0.723179  0.748094  2.331235  0.554
Hg  Hg2  1  0.00000097  0.99999909  0.99999971  1  0.822905  0.00014  2.033419  -0.001  0.679396  -5e-05  2.527356  -0.001  0.733449  6.7e-05  2.484888  -0.001  0.535352  0.644764  4.2e-05  2.557239  -0.001
Hg  Hg3  1  0.00000147  0.49999842  0.49999947  1  0.824216  -0.000302  2.031153  0.0  0.681553  -0.000183  2.525526  0.0  0.735328  -0.000225  2.482916  0.0  0.534802  0.64405  -3.2e-05  2.554556  0.001
H  H4  1  0.63442347  0.89637401  0.92073578  1  0.097093  -0.000846  0.942304  -0.001  0.100009  -0.00071  1.013428  -0.001  0.102881  -0.000466  1.010999  -0.001  0.115086  0.097976  -0.000969  1.015323  -0.001
H  H5  1  0.45154135  0.60377146  0.57919822  1  0.098043  0.000877  0.94149  0.001  0.100918  0.000734  1.012292  0.001  0.103774  0.000474  1.009849  0.001  0.115593  0.098532  0.000968  1.014689  0.001
H  H6  1  0.36558191  0.10362545  0.07926365  1  0.097099  -0.000841  0.94234  -0.001  0.100027  -0.00071  1.013442  -0.001  0.102899  -0.000466  1.011015  -0.001  0.115119  0.097996  -0.000968  1.015333  -0.001
H  H7  1  0.54846211  0.39622685  0.42080519  1  0.098026  0.000872  0.941481  0.001  0.100909  0.000733  1.012266  0.001  0.103765  0.000474  1.009823  0.001  0.115573  0.098519  0.000968  1.014665  0.001
H  H8  1  0.98215550  0.14533818  0.67100255  1  0.088331  -0.000532  0.970907  -0.001  0.090232  -0.00046  1.044769  -0.001  0.09246  -0.00031  1.043565  0.0  0.106374  0.088501  -0.000611  1.045971  -0.001
H  H9  1  0.79803504  0.35485298  0.82910279  1  0.088958  0.000553  0.969563  0.001  0.091068  0.00048  1.043319  0.001  0.093289  0.000319  1.042116  0.0  0.106501  0.089325  0.00061  1.044463  0.001
H  H10  1  0.01785532  0.85465792  0.32899468  1  0.088411  -0.000527  0.970845  -0.001  0.090232  -0.00046  1.044809  -0.001  0.092462  -0.00031  1.043599  0.0  0.106397  0.088494  -0.000611  1.046023  -0.001
H  H11  1  0.20196454  0.64514086  0.17089809  1  0.08893  0.000554  0.969624  0.001  0.091101  0.00048  1.043334  0.001  0.093322  0.000318  1.042128  0.0  0.106523  0.089359  0.00061  1.044479  0.001
H  H12  1  0.82030582  0.14853897  0.49886999  1  0.11805  -0.00088  0.948675  -0.002  0.121741  -0.000733  1.016091  -0.002  0.125321  -0.000574  1.013556  -0.001  0.124809  0.119053  -0.000849  1.018131  -0.002
H  H13  1  0.46733312  0.35134322  0.00106795  1  0.118135  0.000914  0.947663  0.002  0.121836  0.000759  1.014897  0.002  0.125362  0.000586  1.01243  0.001  0.124915  0.118963  0.00085  1.017286  0.002
H  H14  1  0.17969467  0.85146161  0.50112934  1  0.11806  -0.000879  0.948664  -0.002  0.12177  -0.000733  1.016033  -0.002  0.125349  -0.000574  1.013498  -0.001  0.124807  0.119077  -0.000849  1.018077  -0.002
H  H15  1  0.53266432  0.64865511  0.99893269  1  0.11806  0.00091  0.947695  0.002  0.121816  0.000759  1.014867  0.002  0.125342  0.000586  1.0124  0.001  0.124921  0.118945  0.00085  1.017256  0.002
C  C16  1  0.59210208  0.94921120  0.73146673  1  0.066162  0.006685  3.703433  0.007  0.070814  0.001211  3.947111  0.002  0.071621  0.002124  3.963733  0.003  0.118941  0.070061  0.000489  3.936223  0.001
C  C17  1  0.27269746  0.55100387  0.76843697  1  0.06272  -0.006593  3.705537  -0.007  0.069539  -0.001188  3.9457  -0.002  0.070143  -0.002108  3.962655  -0.003  0.118504  0.068656  -0.000484  3.935432  -0.001
C  C18  1  0.40789944  0.05078825  0.26853509  1  0.066194  0.00669  3.703389  0.007  0.070832  0.001212  3.947125  0.002  0.071641  0.002123  3.963749  0.003  0.118918  0.070077  0.000489  3.936235  0.001
C  C19  1  0.72730253  0.44899673  0.23155994  1  0.062792  -0.006606  3.705406  -0.007  0.069645  -0.001188  3.945548  -0.002  0.070248  -0.002112  3.962506  -0.003  0.11851  0.068767  -0.000484  3.935275  -0.001
C  C20  1  0.67741133  0.95226979  0.82661106  1  0.107705  -0.006376  3.650547  -0.006  0.074134  -0.002366  3.90304  -0.002  0.079254  -0.002448  3.916737  -0.002  0.066898  0.070846  -0.002413  3.893802  -0.002
C  C21  1  0.45616986  0.54789879  0.67332653  1  0.108884  0.006403  3.649752  0.006  0.075386  0.002421  3.900445  0.002  0.080482  0.002465  3.914305  0.002  0.067263  0.071454  0.002412  3.892501  0.002
C  C22  1  0.32259075  0.04772742  0.17338846  1  0.107748  -0.006393  3.6506  -0.006  0.074191  -0.002366  3.903081  -0.002  0.079309  -0.002447  3.916782  -0.002  0.066942  0.070906  -0.002412  3.89384  -0.002
C  C23  1  0.54382821  0.45210066  0.32667436  1  0.108857  0.006428  3.649673  0.006  0.075368  0.002422  3.900349  0.002  0.080461  0.002468  3.914214  0.002  0.06728  0.071438  0.002412  3.892395  0.002
C  C24  1  0.86826551  0.08960736  0.68872175  1  0.102405  -0.009347  3.650054  -0.01  0.074986  -0.004062  3.907626  -0.005  0.078051  -0.003763  3.924075  -0.004  0.060673  0.072859  -0.004302  3.896918  -0.005
C  C25  1  0.64621665  0.41050892  0.81128326  1  0.10167  0.00938  3.646768  0.01  0.07405  0.004117  3.9044  0.005  0.077055  0.003773  3.921019  0.004  0.060534  0.07168  0.004296  3.894288  0.005
C  C26  1  0.13174146  0.91038873  0.31127786  1  0.10226  -0.009362  3.650114  -0.01  0.074876  -0.004063  3.907677  -0.005  0.07794  -0.003761  3.924126  -0.004  0.060523  0.072755  -0.004302  3.896981  -0.005
C  C27  1  0.35377931  0.58948717  0.18871566  1  0.101677  0.009389  3.646681  0.01  0.073967  0.004115  3.904413  0.005  0.07697  0.003777  3.921036  0.004  0.060483  0.071595  0.004296  3.8943  0.005
C  C28  1  0.78213855  0.09013314  0.59262781  1  0.090508  0.006458  3.602609  0.007  0.065026  0.000551  3.855207  0.001  0.069299  0.001699  3.872417  0.003  0.061253  0.062319  -0.000424  3.844414  0.0
C  C29  1  0.46457230  0.40986379  0.90730618  1  0.09099  -0.006398  3.598059  -0.007  0.065582  -0.000542  3.850921  -0.001  0.069747  -0.001709  3.868384  -0.003  0.061544  0.06252  0.000419  3.840669  0.0
C  C30  1  0.21786210  0.90986519  0.40737255  1  0.090537  0.006459  3.602583  0.007  0.065113  0.000551  3.855088  0.001  0.069387  0.001697  3.872299  0.003  0.061319  0.062409  -0.000424  3.844292  0.0
C  C31  1  0.53542599  0.59013118  0.09269100  1  0.091239  -0.006399  3.597762  -0.007  0.065749  -0.000539  3.850742  -0.001  0.069916  -0.001712  3.868204  -0.003  0.061607  0.062688  0.000419  3.840491  0.0
C  C32  1  0.43257348  0.87641552  0.74984568  1  0.612307  0.00402  3.918614  0.006  0.565737  -0.000529  4.222203  0.001  0.602218  -0.000347  4.216801  0.001  0.20195  0.541098  -0.000717  4.224722  0.001
C  C33  1  0.05888933  0.62404869  0.75010894  1  0.612634  -0.004003  3.918694  -0.006  0.565486  0.000539  4.221953  -0.001  0.602011  0.000342  4.216595  -0.001  0.202243  0.540535  0.00071  4.225239  -0.001
C  C34  1  0.56742375  0.12358729  0.25015866  1  0.612314  0.004019  3.918627  0.006  0.565723  -0.000531  4.222279  0.001  0.602204  -0.000347  4.216881  0.001  0.201997  0.541097  -0.000718  4.224779  0.001
C  C35  1  0.94111125  0.37595413  0.24989059  1  0.612559  -0.004005  3.918449  -0.006  0.565346  0.000539  4.221837  -0.001  0.601872  0.000343  4.21648  -0.001  0.202173  0.540395  0.000711  4.225122  -0.001
N  N36  1  0.64589128  0.01835862  0.61562901  1  -0.255351  -0.072783  3.358977  -0.088  -0.213346  -0.051805  3.644448  -0.067  -0.237777  -0.044055  3.664927  -0.06  -0.333436  -0.199113  -0.055414  3.632959  -0.069
N  N37  1  0.27966969  0.48176716  0.88428177  1  -0.25451  0.072662  3.358099  0.088  -0.212982  0.051735  3.642612  0.067  -0.2375  0.044001  3.663228  0.06  -0.333863  -0.198962  0.055386  3.63122  0.069
N  N38  1  0.35410667  0.98163969  0.38437405  1  -0.255397  -0.072779  3.358898  -0.088  -0.213453  -0.051805  3.644428  -0.067  -0.237885  -0.044052  3.664903  -0.06  -0.333448  -0.199221  -0.055414  3.63294  -0.069
N  N39  1  0.72032718  0.51823568  0.11571560  1  -0.254691  0.072667  3.358133  0.088  -0.213127  0.051736  3.642657  0.067  -0.237648  0.044005  3.663276  0.06  -0.333932  -0.199116  0.055388  3.631274  0.069
N  N40  1  0.81541449  0.02176455  0.80501829  1  -0.259531  0.006154  3.116384  0.007  -0.208563  0.002068  3.38375  0.003  -0.220002  0.002451  3.398621  0.003  -0.289627  -0.200583  0.001517  3.373477  0.002
N  N41  1  0.64194493  0.47838695  0.69497335  1  -0.259024  -0.005918  3.115539  -0.007  -0.208218  -0.001988  3.382695  -0.002  -0.21976  -0.002424  3.397694  -0.003  -0.289752  -0.200395  -0.001514  3.373609  -0.002
N  N42  1  0.18459015  0.97823266  0.19498307  1  -0.259516  0.006163  3.116459  0.007  -0.208536  0.002068  3.383777  0.003  -0.219974  0.002449  3.398651  0.003  -0.28959  -0.200555  0.001516  3.373502  0.002
N  N43  1  0.35805279  0.52161026  0.30502613  1  -0.259046  -0.00593  3.115577  -0.007  -0.208222  -0.001987  3.382771  -0.002  -0.219764  -0.002426  3.397773  -0.003  -0.289753  -0.200398  -0.001513  3.373678  -0.002
Cl  Cl44  1  0.23231923  0.29908513  0.59089632  1  -0.439228  0.001252  1.141152  0.0  -0.388603  0.001286  1.453418  0.0  -0.409418  0.001351  1.431594  0.0  -0.229227  -0.373915  0.001223  1.468686  0.0
Cl  Cl45  1  0.12219151  0.20107015  0.90895980  1  -0.439666  -0.001118  1.141986  0.0  -0.388283  -0.001256  1.453515  0.0  -0.409011  -0.001314  1.431703  0.0  -0.229932  -0.375068  -0.00122  1.469435  0.0
Cl  Cl46  1  0.76768167  0.70091319  0.40910526  1  -0.439217  0.001251  1.14113  0.0  -0.388569  0.001285  1.453398  0.0  -0.409385  0.001351  1.431574  0.0  -0.22921  -0.373873  0.001222  1.468653  0.0
Cl  Cl47  1  0.87780930  0.79892593  0.09104159  1  -0.43965  -0.001118  1.141951  0.0  -0.388289  -0.001256  1.453504  0.0  -0.409018  -0.001314  1.431695  0.0  -0.229928  -0.375082  -0.00122  1.469438  0.0
O  O48  1  0.36414676  0.89324260  0.65200443  1  -0.574977  -0.098334  2.041582  -0.126  -0.553827  -0.065149  2.332828  -0.092  -0.598172  -0.051049  2.328008  -0.076  -0.32264  -0.525116  -0.073027  2.336906  -0.099
O  O49  1  0.90950787  0.60716433  0.84792509  1  -0.574039  0.098537  2.041713  0.127  -0.553095  0.065622  2.333251  0.093  -0.597464  0.051357  2.328219  0.076  -0.322759  -0.524528  0.073099  2.337388  0.099
O  O50  1  0.63584816  0.10676020  0.34799929  1  -0.574957  -0.098325  2.041757  -0.126  -0.553825  -0.065139  2.33296  -0.092  -0.598166  -0.051043  2.328138  -0.076  -0.322633  -0.525125  -0.073015  2.337049  -0.099
O  O51  1  0.09048725  0.39284413  0.15207109  1  -0.574194  0.098509  2.041565  0.127  -0.553085  0.065625  2.333251  0.093  -0.597443  0.05136  2.328193  0.076  -0.32272  -0.524519  0.073102  2.337388  0.099
O  O52  1  0.37390434  0.80842551  0.85401381  1  -0.568081  -0.021029  1.951988  -0.026  -0.528552  -0.010609  2.189973  -0.014  -0.556938  -0.005056  2.183605  -0.007  -0.306286  -0.506866  -0.01685  2.192808  -0.022
O  O53  1  0.03640618  0.69210596  0.64596216  1  -0.568162  0.021224  1.951397  0.026  -0.528857  0.010679  2.189912  0.014  -0.557326  0.005035  2.183677  0.007  -0.306427  -0.507347  0.016874  2.192982  0.022
O  O54  1  0.62609518  0.19157957  0.14598560  1  -0.568131  -0.021027  1.951884  -0.026  -0.528567  -0.010607  2.189901  -0.014  -0.556954  -0.005056  2.183534  -0.007  -0.306349  -0.506885  -0.016848  2.192728  -0.022
O  O55  1  0.96358981  0.30790361  0.35403548  1  -0.568034  0.021215  1.951392  0.026  -0.528731  0.010678  2.189908  0.014  -0.557199  0.005035  2.183673  0.007  -0.30636  -0.507228  0.01687  2.192986  0.022
