# generated using pymatgen
data_Al4H28C37O22
_symmetry_space_group_name_H-M   'P 1'
_cell_length_a   6.66683195
_cell_length_b   16.57294193
_cell_length_c   18.53510176
_cell_angle_alpha   106.83568225
_cell_angle_beta   89.44195174
_cell_angle_gamma   90.42115607
_symmetry_Int_Tables_number   1
_chemical_formula_structural   Al4H28C37O22
_chemical_formula_sum   'Al4 H28 C37 O22'
_cell_volume   1960.03479624
_cell_formula_units_Z   1
loop_
 _symmetry_equiv_pos_site_id
 _symmetry_equiv_pos_as_xyz
  1  'x, y, z'
loop_
 _atom_site_type_symbol
 _atom_site_label
 _atom_site_symmetry_multiplicity
 _atom_site_fract_x
 _atom_site_fract_y
 _atom_site_fract_z
 _atom_site_occupancy
 _atom_site_pbe_bader_charge
 _atom_site_pbe_bader_spin_density
 _atom_site_pbe_cm5_charge
 _atom_site_pbe_ddec_charge
 _atom_site_pbe_ddec_spin_density
 _atom_site_pbe_ddec_sum_bond_order
 _atom_site_pbe_magmom
Al  Al0  1  0.13254313  0.49939229  0.49833037  1  2.502482  0  0.403484  1.644342  0  2.579272  0
Al  Al1  1  0.63247955  0.50159759  0.50132447  1  2.501106  0  0.402423  1.647807  0  2.57525  0
Al  Al2  1  0.63762478  0.99953946  0.99970794  1  2.501857  0  0.40298  1.645321  0  2.582214  0
Al  Al3  1  0.13751140  0.00156809  0.00201819  1  2.502285  0  0.402719  1.646048  0  2.582596  0
H  H4  1  0.62652693  0.86388572  0.77355307  1  0.089783  0  0.095694  0.098439  0  0.989192  0
H  H5  1  0.76161706  0.77067747  0.62936821  1  0.040016  0  0.094157  0.092463  0  0.975029  0
H  H6  1  0.58662470  0.73183217  0.68336415  1  0.0493  0  0.095006  0.099543  0  1.001045  0
H  H7  1  0.63279860  0.74599719  0.83387642  1  0.028247  0  0.098495  0.10441  0  0.993961  0
H  H8  1  0.19072892  0.76591744  0.82141726  1  0.019068  0  0.091753  0.091725  0  0.982223  0
H  H9  1  0.19037348  0.84976321  0.78092006  1  0.055538  0  0.093542  0.092203  0  0.985197  0
H  H10  1  0.13653242  0.75873139  0.65917306  1  0.016814  0  0.090944  0.089569  0  0.97626  0
H  H11  1  0.21406933  0.67879177  0.69847193  1  0.074219  0  0.095267  0.106103  0  1.022606  0
H  H12  1  0.85394491  0.72575647  0.87822357  1  0.058311  0  0.098485  0.100077  0  0.968456  0
H  H13  1  0.96972466  0.62385311  0.76982073  1  0.084604  0  0.114984  0.114156  0  0.943371  0
H  H14  1  0.69213656  0.34320519  0.28203752  1  0.037022  0  0.093658  0.092075  0  0.98321  0
H  H15  1  0.68149629  0.26795615  0.33197233  1  0.017325  0  0.088945  0.082968  0  0.989562  0
H  H16  1  0.68441935  0.23683477  0.16737121  1  0.00947  0  0.08914  0.082617  0  0.988492  0
H  H17  1  0.36654714  0.39393780  0.23791456  1  0.027106  0  0.095309  0.0926  0  0.971337  0
H  H18  1  0.34635393  0.28222061  0.12791342  1  0.033051  0  0.09218  0.086633  0  0.977152  0
H  H19  1  0.12074152  0.25615560  0.34000884  1  0.009802  0  0.092869  0.089739  0  0.992511  0
H  H20  1  0.34320884  0.22050103  0.37176610  1  -0.006257  0  0.092022  0.086263  0  0.978374  0
H  H21  1  0.36683406  0.10895532  0.26176324  1  0.020774  0  0.09554  0.09306  0  0.970762  0
H  H22  1  0.13446790  0.13924969  0.23278288  1  0.020856  0  0.095459  0.095274  0  0.986762  0
H  H23  1  0.13348100  0.36226688  0.26724566  1  0.057268  0  0.095504  0.095428  0  0.988249  0
H  H24  1  0.69334136  0.16165703  0.21734246  1  0.036656  0  0.092826  0.090752  0  0.986064  0
H  H25  1  0.85237614  0.88568934  0.73153108  1  0.03803  0  0.093692  0.091515  0  0.971167  0
H  H26  1  0.12346653  0.24516231  0.16014020  1  0.034936  0  0.092618  0.089858  0  0.993842  0
H  H27  1  0.61318974  0.47770981  0.71461433  1  0.620169  0  0.324008  0.360509  0  0.914559  0
H  H28  1  0.37908485  0.60642799  0.54818419  1  0.628951  0  0.356715  0.436109  0  0.848171  0
H  H29  1  0.87811567  0.38915307  0.47576524  1  0.600654  0  0.359807  0.439063  0  0.839577  0
H  H30  1  0.38313719  0.89237582  0.95864783  1  0.599653  0  0.35737  0.436172  0  0.845991  0
H  H31  1  0.88589405  0.11161658  0.02935364  1  0.646501  0  0.359262  0.438287  0  0.841393  0
C  C32  1  0.38416490  0.38616931  0.38437542  1  1.564342  0  0.279065  0.647634  0  4.015654  0
C  C33  1  0.37796282  0.41349452  0.58565200  1  1.710906  0  0.269638  0.684832  0  4.213516  0
C  C34  1  0.88715466  0.61542065  0.61595313  1  1.57547  0  0.277557  0.642357  0  4.015271  0
C  C35  1  0.88379929  0.58663666  0.41442368  1  1.693781  0  0.273353  0.692038  0  4.195042  0
C  C36  1  0.88529002  0.63598363  0.36191413  1  0.07727  0  4.8e-05  -0.13397  0  3.827344  0
C  C37  1  0.88569652  0.67999051  0.31889357  1  -0.163667  0  -0.009753  0.024302  0  4.261112  0
C  C38  1  0.88538387  0.72842504  0.27215194  1  0.069655  0  -0.001969  -0.005136  0  4.195755  0
C  C39  1  0.88452205  0.77317008  0.22930713  1  -0.124809  0  -1.3e-05  -0.001681  0  4.194816  0
C  C40  1  0.88338431  0.82159566  0.18255882  1  -0.307711  0  -0.009665  0.022937  0  4.261902  0
C  C41  1  0.88246621  0.86561929  0.13956814  1  0.219006  0  -6.3e-05  -0.132435  0  3.826833  0
C  C42  1  0.77117941  0.83698463  0.74995529  1  -0.088131  0  -0.156149  -0.173174  0  3.856849  0
C  C43  1  0.73968941  0.75659096  0.68333579  1  -0.045764  0  -0.160229  -0.181606  0  3.869833  0
C  C44  1  0.79537525  0.73612728  0.82638722  1  -0.011246  0  -0.15144  -0.195458  0  3.84994  0
C  C45  1  0.10905684  0.79234088  0.78226134  1  -0.03472  0  -0.162725  -0.180553  0  3.894405  0
C  C46  1  0.89419677  0.81473055  0.81174213  1  0.037077  0  -0.014031  0.015503  0  3.811024  0
C  C47  1  0.89109575  0.68833355  0.68836312  1  0.040031  0  -0.005187  0.011027  0  3.755834  0
C  C48  1  0.83748393  0.65765201  0.75899422  1  -0.031312  0  -0.073879  -0.143298  0  3.773047  0
C  C49  1  0.10190461  0.72810116  0.70321326  1  -0.03308  0  -0.166372  -0.19762  0  3.893835  0
C  C50  1  0.60765954  0.28797615  0.28726362  1  -0.015019  0  -0.162378  -0.177606  0  3.891121  0
C  C51  1  0.60900981  0.21637551  0.21217074  1  -0.010813  0  -0.162911  -0.177558  0  3.892364  0
C  C52  1  0.28535251  0.34029406  0.24820835  1  -0.04166  0  -0.154702  -0.170331  0  3.849149  0
C  C53  1  0.27659336  0.23756835  0.32414164  1  0.014595  0  -0.155153  -0.169618  0  3.85467  0
C  C54  1  0.39103856  0.31414360  0.31177138  1  0.03587  0  -0.014252  0.011911  0  3.815752  0
C  C55  1  0.39323843  0.18897114  0.18785850  1  0.050056  0  -0.014699  0.011035  0  3.817147  0
C  C56  1  0.27874243  0.26476158  0.17569340  1  -0.037297  0  -0.155695  -0.170098  0  3.85674  0
C  C57  1  0.28572804  0.16210967  0.25158244  1  0.006333  0  -0.153339  -0.169093  0  3.845401  0
C  C58  1  0.37478777  0.36703332  0.64060085  1  0.210461  0  -0.005037  -0.152079  0  3.846873  0
C  C59  1  0.37877873  0.32465232  0.68499172  1  -0.343056  0  -0.007154  0.031233  0  4.255472  0
C  C60  1  0.38254351  0.27706320  0.73240925  1  -0.127607  0  -0.002302  -0.00905  0  4.191069  0
C  C61  1  0.38644063  0.23199968  0.77494547  1  0.087526  0  0.004022  0.006647  0  4.190766  0
C  C62  1  0.38919934  0.18288773  0.82104942  1  -0.311888  0  -0.010531  0.018176  0  4.260352  0
C  C63  1  0.39084833  0.13797533  0.86324102  1  0.22747  0  0.003804  -0.123639  0  3.821918  0
C  C64  1  0.39033066  0.08752130  0.91496701  1  1.712018  0  0.269995  0.687225  0  4.202018  0
C  C65  1  0.38911448  0.11647074  0.11556343  1  1.552404  0  0.280132  0.648707  0  4.013042  0
C  C66  1  0.88477742  0.91505273  0.08708949  1  1.695945  0  0.272253  0.690792  0  4.198378  0
C  C67  1  0.88953940  0.88593287  0.88485243  1  1.558574  0  0.280084  0.65193  0  4.006612  0
C  C68  1  0.66264886  0.59617153  0.74587342  1  1.513815  0  0.233409  0.600727  0  4.068935  0
O  O69  1  0.55160815  0.43539461  0.56873048  1  -1.222273  0  -0.227632  -0.579584  0  2.307353  0
O  O70  1  0.21205109  0.41467345  0.40935425  1  -1.268709  0  -0.235188  -0.600676  0  2.350622  0
O  O71  1  0.05429687  0.56919767  0.43610985  1  -1.216283  0  -0.223857  -0.567661  0  2.283125  0
O  O72  1  0.20963006  0.42686204  0.55990742  1  -1.226183  0  -0.22374  -0.564258  0  2.286705  0
O  O73  1  0.05422306  0.58523597  0.58752540  1  -1.262824  0  -0.228252  -0.584222  0  2.370158  0
O  O74  1  0.54958975  0.41249884  0.41649180  1  -1.275755  0  -0.231326  -0.595738  0  2.376675  0
O  O75  1  0.38251983  0.55148911  0.51098243  1  -1.428793  0  -0.446011  -0.990045  0  2.187047  0
O  O76  1  0.71587468  0.59060470  0.58763385  1  -1.26832  0  -0.235261  -0.602693  0  2.361657  0
O  O77  1  0.71185943  0.56677335  0.43449020  1  -1.220142  0  -0.223312  -0.566981  0  2.28487  0
O  O78  1  0.88091551  0.45014853  0.49173214  1  -1.401735  0  -0.447368  -0.997768  0  2.214376  0
O  O79  1  0.21784194  0.09015207  0.08828746  1  -1.273777  0  -0.23685  -0.603579  0  2.348913  0
O  O80  1  0.56141716  0.06832414  0.93468599  1  -1.220726  0  -0.22568  -0.570026  0  2.282786  0
O  O81  1  0.71769022  0.91247097  0.91196928  1  -1.270536  0  -0.236531  -0.601464  0  2.345044  0
O  O82  1  0.55633760  0.08729933  0.08617379  1  -1.270509  0  -0.231236  -0.594671  0  2.374191  0
O  O83  1  0.71486514  0.93183782  0.06443575  1  -1.220755  0  -0.224734  -0.569797  0  2.283033  0
O  O84  1  0.21829901  0.06892067  0.93598375  1  -1.221987  0  -0.225897  -0.571384  0  2.287447  0
O  O85  1  0.38622622  0.94989083  0.99119932  1  -1.401295  0  -0.446293  -0.992894  0  2.197172  0
O  O86  1  0.05728406  0.93568181  0.06820800  1  -1.220402  0  -0.22397  -0.568119  0  2.287443  0
O  O87  1  0.05633716  0.91291236  0.91556755  1  -1.268214  0  -0.231956  -0.596695  0  2.366653  0
O  O88  1  0.88752092  0.05087038  0.00875489  1  -1.447644  0  -0.447701  -0.998554  0  2.214796  0
O  O89  1  0.48474075  0.61471820  0.75047542  1  -1.149392  0  -0.292322  -0.495621  0  2.105006  0
O  O90  1  0.72939244  0.51570033  0.72828715  1  -1.12417  0  -0.335471  -0.473708  0  2.237922  0
