# generated using pymatgen
data_TbH9(CO2)4
_symmetry_space_group_name_H-M   'P 1'
_cell_length_a   6.79954344
_cell_length_b   10.76364381
_cell_length_c   11.13036061
_cell_angle_alpha   96.71071707
_cell_angle_beta   90.00000113
_cell_angle_gamma   89.99992208
_symmetry_Int_Tables_number   1
_chemical_formula_structural   TbH9(CO2)4
_chemical_formula_sum   'Tb4 H36 C16 O32'
_cell_volume   809.02628408
_cell_formula_units_Z   4
loop_
 _symmetry_equiv_pos_site_id
 _symmetry_equiv_pos_as_xyz
  1  'x, y, z'
loop_
 _atom_site_type_symbol
 _atom_site_label
 _atom_site_symmetry_multiplicity
 _atom_site_fract_x
 _atom_site_fract_y
 _atom_site_fract_z
 _atom_site_occupancy
 _atom_site_hle17_bader_spin_density
 _atom_site_hle17_ddec_charge
 _atom_site_hle17_ddec_spin_density
 _atom_site_hle17_ddec_sum_bond_order
 _atom_site_hle17_magmom
 _atom_site_hse06_10hf_bader_spin_density
 _atom_site_hse06_10hf_ddec_charge
 _atom_site_hse06_10hf_ddec_spin_density
 _atom_site_hse06_10hf_ddec_sum_bond_order
 _atom_site_hse06_10hf_magmom
 _atom_site_hse06_bader_spin_density
 _atom_site_hse06_ddec_charge
 _atom_site_hse06_ddec_spin_density
 _atom_site_hse06_ddec_sum_bond_order
 _atom_site_hse06_magmom
 _atom_site_pbe_bader_spin_density
 _atom_site_pbe_cm5_charge
 _atom_site_pbe_ddec_charge
 _atom_site_pbe_ddec_spin_density
 _atom_site_pbe_ddec_sum_bond_order
 _atom_site_pbe_magmom
Tb  Tb0  1  0.97678307  0.15350175  0.09665313  1  0  2.29553  0  1.685463  0  0  2.157211  0  2.14652  0  0  2.269537  0  1.978783  0  0  1.469121  2.122473  0  2.18029  0
Tb  Tb1  1  0.47677821  0.84649840  0.40334795  1  0  2.295581  0  1.685428  0  0  2.157246  0  2.146517  0  0  2.269591  0  1.978736  0  0  1.469131  2.122533  0  2.180252  0
Tb  Tb2  1  0.02322571  0.84649953  0.90334975  1  0  2.295543  0  1.685435  0  0  2.157154  0  2.146646  0  0  2.269573  0  1.978756  0  0  1.469133  2.122436  0  2.180381  0
Tb  Tb3  1  0.52322322  0.15349911  0.59665095  1  0  2.295579  0  1.685424  0  0  2.157207  0  2.146572  0  0  2.269575  0  1.978756  0  0  1.469125  2.122462  0  2.180347  0
H  H4  1  0.47382995  0.38531491  0.10558075  1  0  0.102876  0  0.913446  0  0  0.11238  0  0.97495  0  0  0.115327  0  0.97208  0  0  0.114295  0.110381  0  0.976841  0
H  H5  1  0.97383094  0.61469359  0.39441311  1  0  0.102866  0  0.913468  0  0  0.112349  0  0.975066  0  0  0.115295  0  0.972193  0  0  0.114255  0.110348  0  0.976958  0
H  H6  1  0.52618178  0.61468815  0.89441243  1  0  0.10291  0  0.913377  0  0  0.112372  0  0.974978  0  0  0.11532  0  0.972103  0  0  0.114265  0.110372  0  0.976871  0
H  H7  1  0.02618226  0.38530954  0.60558817  1  0  0.102905  0  0.913414  0  0  0.112386  0  0.974956  0  0  0.115334  0  0.972081  0  0  0.114274  0.110385  0  0.97685  0
H  H8  1  0.50599841  0.28809928  0.96549398  1  0  0.108937  0  0.959228  0  0  0.116409  0  1.025996  0  0  0.119585  0  1.022728  0  0  0.119895  0.114396  0  1.027836  0
H  H9  1  0.00599527  0.71190307  0.53450261  1  0  0.108815  0  0.959315  0  0  0.116385  0  1.026008  0  0  0.119559  0  1.02274  0  0  0.119895  0.114372  0  1.027849  0
H  H10  1  0.49400302  0.71189913  0.03450141  1  0  0.108812  0  0.959271  0  0  0.116347  0  1.025996  0  0  0.11952  0  1.022728  0  0  0.119889  0.114335  0  1.027838  0
H  H11  1  0.99399881  0.28809728  0.46550107  1  0  0.108811  0  0.959247  0  0  0.116303  0  1.026022  0  0  0.119477  0  1.022754  0  0  0.119861  0.11429  0  1.027865  0
H  H12  1  0.26111279  0.34068913  0.84786643  1  0  0.10982  0  0.93042  0  0  0.120184  0  0.992495  0  0  0.122999  0  0.990365  0  0  0.121182  0.118203  0  0.994223  0
H  H13  1  0.76110926  0.65931208  0.65213364  1  0  0.10984  0  0.930383  0  0  0.12019  0  0.992469  0  0  0.123006  0  0.99034  0  0  0.121196  0.118203  0  0.994194  0
H  H14  1  0.73888570  0.65932247  0.15214113  1  0  0.109767  0  0.93041  0  0  0.120114  0  0.992508  0  0  0.122929  0  0.990378  0  0  0.121122  0.118118  0  0.994235  0
H  H15  1  0.23888481  0.34067322  0.34785948  1  0  0.109811  0  0.930413  0  0  0.120148  0  0.992512  0  0  0.122964  0  0.990384  0  0  0.121135  0.118154  0  0.994242  0
H  H16  1  0.20761936  0.47584120  0.95059425  1  0  0.094708  0  0.928454  0  0  0.105053  0  0.991439  0  0  0.107416  0  0.989461  0  0  0.113283  0.10348  0  0.992714  0
H  H17  1  0.70762051  0.52416097  0.54940323  1  0  0.094734  0  0.928428  0  0  0.105052  0  0.991445  0  0  0.107417  0  0.989464  0  0  0.113291  0.103471  0  0.992717  0
H  H18  1  0.79238207  0.52416945  0.04941231  1  0  0.094795  0  0.928393  0  0  0.105148  0  0.991348  0  0  0.107515  0  0.989365  0  0  0.113334  0.103559  0  0.992615  0
H  H19  1  0.29237503  0.47582806  0.45058939  1  0  0.094824  0  0.928384  0  0  0.105187  0  0.991327  0  0  0.107553  0  0.989352  0  0  0.113327  0.103604  0  0.992586  0
H  H20  1  0.13201467  0.09233277  0.85042275  1  0  0.437174  0  0.851716  0  0  0.413575  0  0.90337  0  0  0.422754  0  0.890321  0  0  0.297008  0.40738  0  0.912381  0
H  H21  1  0.63199151  0.90766391  0.64957954  1  0  0.437245  0  0.851623  0  0  0.413637  0  0.903303  0  0  0.422815  0  0.890254  0  0  0.297074  0.407439  0  0.912317  0
H  H22  1  0.86799852  0.90767129  0.14957773  1  0  0.437143  0  0.851793  0  0  0.413553  0  0.903432  0  0  0.42273  0  0.890383  0  0  0.297018  0.407357  0  0.912442  0
H  H23  1  0.36800698  0.09233173  0.35042006  1  0  0.437214  0  0.851683  0  0  0.41361  0  0.903351  0  0  0.422788  0  0.890301  0  0  0.297032  0.407412  0  0.912366  0
H  H24  1  0.82400494  0.37854802  0.26347249  1  0  0.427894  0  0.87924  0  0  0.394329  0  0.947025  0  0  0.406391  0  0.929647  0  0  0.288397  0.385997  0  0.959103  0
H  H25  1  0.32400641  0.62145412  0.23652700  1  0  0.427868  0  0.879283  0  0  0.394297  0  0.947078  0  0  0.406358  0  0.929703  0  0  0.288387  0.385967  0  0.959153  0
H  H26  1  0.17599208  0.62144949  0.73652730  1  0  0.427895  0  0.879242  0  0  0.394326  0  0.947032  0  0  0.406387  0  0.929657  0  0  0.288405  0.385993  0  0.959111  0
H  H27  1  0.67599060  0.37854525  0.76347119  1  0  0.427942  0  0.879186  0  0  0.394363  0  0.946995  0  0  0.406424  0  0.929618  0  0  0.288417  0.386032  0  0.959072  0
H  H28  1  0.01277395  0.43102065  0.20205308  1  0  0.426714  0  0.879012  0  0  0.393897  0  0.946471  0  0  0.40514  0  0.930159  0  0  0.290603  0.386151  0  0.957801  0
H  H29  1  0.51277650  0.56898178  0.29794734  1  0  0.426718  0  0.879016  0  0  0.393901  0  0.946472  0  0  0.405145  0  0.930157  0  0  0.290589  0.386154  0  0.957804  0
H  H30  1  0.98722454  0.56897970  0.79795060  1  0  0.426638  0  0.879119  0  0  0.393828  0  0.946564  0  0  0.40507  0  0.930254  0  0  0.290553  0.386084  0  0.957893  0
H  H31  1  0.48722346  0.43101664  0.70204896  1  0  0.426654  0  0.879114  0  0  0.393842  0  0.94656  0  0  0.405084  0  0.930249  0  0  0.290564  0.386093  0  0.957895  0
H  H32  1  0.81879158  0.16282163  0.34754289  1  0  0.428976  0  0.858529  0  0  0.400779  0  0.924762  0  0  0.410633  0  0.910558  0  0  0.309876  0.393663  0  0.935361  0
H  H33  1  0.31879407  0.83717958  0.15245651  1  0  0.428956  0  0.858565  0  0  0.400767  0  0.924779  0  0  0.41062  0  0.910575  0  0  0.30988  0.39365  0  0.935379  0
H  H34  1  0.18120985  0.83718056  0.65245830  1  0  0.42898  0  0.858538  0  0  0.400786  0  0.924754  0  0  0.410642  0  0.910545  0  0  0.309892  0.393669  0  0.935354  0
H  H35  1  0.68120736  0.16282073  0.84754268  1  0  0.42897  0  0.858548  0  0  0.400779  0  0.92476  0  0  0.410633  0  0.910556  0  0  0.309887  0.393662  0  0.935362  0
H  H36  1  0.89810734  0.02545851  0.32048877  1  0  0.434341  0  0.860322  0  0  0.404531  0  0.922349  0  0  0.416311  0  0.905059  0  0  0.307651  0.396374  0  0.934462  0
H  H37  1  0.39810808  0.97454356  0.17950982  1  0  0.434368  0  0.860273  0  0  0.404544  0  0.922332  0  0  0.416327  0  0.905034  0  0  0.307651  0.396386  0  0.934445  0
H  H38  1  0.10188967  0.97454275  0.67951142  1  0  0.43435  0  0.860312  0  0  0.404548  0  0.922319  0  0  0.416328  0  0.905029  0  0  0.307661  0.396393  0  0.934431  0
H  H39  1  0.60189482  0.02545676  0.82049027  1  0  0.434344  0  0.860317  0  0  0.404535  0  0.922344  0  0  0.416317  0  0.905051  0  0  0.307647  0.396378  0  0.934456  0
C  C40  1  0.95612414  0.36014379  0.89612512  1  0  0.697692  0  3.849762  0  0  0.639431  0  4.164168  0  0  0.672904  0  4.157248  0  0  0.223961  0.61698  0  4.169104  0
C  C41  1  0.45612998  0.63985161  0.60387165  1  0  0.697548  0  3.849835  0  0  0.639335  0  4.164167  0  0  0.672811  0  4.15725  0  0  0.223926  0.616864  0  4.16911  0
C  C42  1  0.04387287  0.63986219  0.10388095  1  0  0.697548  0  3.849814  0  0  0.639229  0  4.164358  0  0  0.672699  0  4.157452  0  0  0.223836  0.61676  0  4.169288  0
C  C43  1  0.54386851  0.36014022  0.39612037  1  0  0.697625  0  3.849872  0  0  0.639317  0  4.164339  0  0  0.672796  0  4.157418  0  0  0.223861  0.616846  0  4.169278  0
C  C44  1  0.46093958  0.18882022  0.11861994  1  0  0.74605  0  3.812462  0  0  0.695766  0  4.112522  0  0  0.730568  0  4.104423  0  0  0.241314  0.672385  0  4.119347  0
C  C45  1  0.96093428  0.81119486  0.38137731  1  0  0.746155  0  3.812668  0  0  0.695954  0  4.112668  0  0  0.730749  0  4.104568  0  0  0.241326  0.672589  0  4.11947  0
C  C46  1  0.53906332  0.81118197  0.88138124  1  0  0.746026  0  3.812609  0  0  0.695794  0  4.11262  0  0  0.730596  0  4.104523  0  0  0.241266  0.672417  0  4.119443  0
C  C47  1  0.03907009  0.18881290  0.61861907  1  0  0.74597  0  3.81275  0  0  0.69567  0  4.11285  0  0  0.730469  0  4.104757  0  0  0.241278  0.672303  0  4.11965  0
C  C48  1  0.42205303  0.29984093  0.05016940  1  0  -0.089357  0  3.624547  0  0  -0.140794  0  3.880184  0  0  -0.139019  0  3.881367  0  0  -0.065468  -0.142099  0  3.880496  0
C  C49  1  0.92204943  0.70016205  0.44982927  1  0  -0.089109  0  3.62425  0  0  -0.140736  0  3.880058  0  0  -0.13895  0  3.881228  0  0  -0.065468  -0.142047  0  3.880367  0
C  C50  1  0.57795281  0.70016123  0.94982818  1  0  -0.089094  0  3.624272  0  0  -0.140597  0  3.879947  0  0  -0.138814  0  3.881122  0  0  -0.065388  -0.141905  0  3.880265  0
C  C51  1  0.07795053  0.29983455  0.55017312  1  0  -0.089054  0  3.624286  0  0  -0.140536  0  3.879909  0  0  -0.13875  0  3.881075  0  0  -0.06538  -0.141846  0  3.880219  0
C  C52  1  0.17232885  0.37592669  0.92773342  1  0  -0.082743  0  3.634117  0  0  -0.133523  0  3.891405  0  0  -0.131752  0  3.893661  0  0  -0.065858  -0.134884  0  3.891088  0
C  C53  1  0.67233128  0.62407551  0.57226316  1  0  -0.082758  0  3.634114  0  0  -0.1335  0  3.891299  0  0  -0.131737  0  3.893565  0  0  -0.065871  -0.134824  0  3.890944  0
C  C54  1  0.82766963  0.62408304  0.07227394  1  0  -0.082835  0  3.634062  0  0  -0.133547  0  3.891259  0  0  -0.131777  0  3.893513  0  0  -0.065863  -0.134837  0  3.89085  0
C  C55  1  0.32766721  0.37591443  0.42772596  1  0  -0.082905  0  3.634019  0  0  -0.133664  0  3.891189  0  0  -0.131906  0  3.893451  0  0  -0.065873  -0.134962  0  3.890798  0
O  O56  1  0.95127528  0.35207168  0.22225239  1  0  -0.9495  0  1.887946  0  0  -0.906509  0  2.101186  0  0  -0.934862  0  2.062754  0  0  -0.656356  -0.892663  0  2.124465  0
O  O57  1  0.45127817  0.64793033  0.27774529  1  0  -0.949473  0  1.887968  0  0  -0.906496  0  2.10125  0  0  -0.934854  0  2.062814  0  0  -0.656337  -0.892652  0  2.124526  0
O  O58  1  0.04872468  0.64792680  0.77775110  1  0  -0.949448  0  1.888029  0  0  -0.906434  0  2.101265  0  0  -0.934801  0  2.06283  0  0  -0.656323  -0.892593  0  2.124543  0
O  O59  1  0.54871885  0.35207085  0.72224770  1  0  -0.94953  0  1.887965  0  0  -0.906503  0  2.101188  0  0  -0.934864  0  2.062756  0  0  -0.656364  -0.892659  0  2.12447  0
O  O60  1  0.21625685  0.30725020  0.02623869  1  0  -0.340977  0  2.478226  0  0  -0.267214  0  2.723795  0  0  -0.289487  0  2.728714  0  0  -0.265544  -0.256102  0  2.720798  0
O  O61  1  0.71625621  0.69275482  0.47375931  1  0  -0.34103  0  2.478101  0  0  -0.267206  0  2.723685  0  0  -0.289482  0  2.728602  0  0  -0.265532  -0.256107  0  2.720678  0
O  O62  1  0.78374899  0.69275857  0.97376588  1  0  -0.341067  0  2.478087  0  0  -0.267279  0  2.723665  0  0  -0.289567  0  2.728582  0  0  -0.26559  -0.256191  0  2.720651  0
O  O63  1  0.28374522  0.30723419  0.52623151  1  0  -0.341071  0  2.478011  0  0  -0.267224  0  2.723538  0  0  -0.289503  0  2.728456  0  0  -0.265564  -0.256128  0  2.72052  0
O  O64  1  0.31277969  0.13319757  0.16012729  1  0  -0.733439  0  1.993486  0  0  -0.670623  0  2.231461  0  0  -0.70488  0  2.215788  0  0  -0.362871  -0.652312  0  2.239696  0
O  O65  1  0.81278015  0.86680742  0.33987699  1  0  -0.733472  0  1.993755  0  0  -0.670677  0  2.231697  0  0  -0.704934  0  2.216025  0  0  -0.362847  -0.652378  0  2.239926  0
O  O66  1  0.68722615  0.86680651  0.83987588  1  0  -0.733431  0  1.993505  0  0  -0.67064  0  2.231469  0  0  -0.704912  0  2.215797  0  0  -0.362809  -0.652333  0  2.2397  0
O  O67  1  0.18722569  0.13319104  0.66012470  1  0  -0.733398  0  1.993699  0  0  -0.67059  0  2.231696  0  0  -0.704852  0  2.216027  0  0  -0.362831  -0.652283  0  2.239923  0
O  O68  1  0.92928876  0.11351123  0.31001608  1  0  -0.875325  0  1.838301  0  0  -0.829427  0  2.028235  0  0  -0.854917  0  1.99089  0  0  -0.617504  -0.816726  0  2.050805  0
O  O69  1  0.42928673  0.88648802  0.18998401  1  0  -0.875352  0  1.838276  0  0  -0.829449  0  2.028194  0  0  -0.85494  0  1.990845  0  0  -0.617513  -0.816748  0  2.050772  0
O  O70  1  0.07071414  0.88649007  0.68998860  1  0  -0.875315  0  1.838282  0  0  -0.829456  0  2.028279  0  0  -0.854958  0  1.990926  0  0  -0.617529  -0.816757  0  2.050847  0
O  O71  1  0.57071469  0.11351041  0.81001409  1  0  -0.875309  0  1.838283  0  0  -0.82941  0  2.028211  0  0  -0.854905  0  1.990859  0  0  -0.61751  -0.816705  0  2.050786  0
O  O72  1  0.85592191  0.28047565  0.94555028  1  0  -0.717875  0  2.070772  0  0  -0.66141  0  2.325281  0  0  -0.69395  0  2.312579  0  0  -0.363441  -0.644305  0  2.332487  0
O  O73  1  0.35591729  0.71952078  0.55444749  1  0  -0.717829  0  2.07071  0  0  -0.661366  0  2.325148  0  0  -0.693906  0  2.312434  0  0  -0.363455  -0.644267  0  2.332367  0
O  O74  1  0.14407805  0.71952568  0.05445890  1  0  -0.717682  0  2.070756  0  0  -0.661242  0  2.325339  0  0  -0.693789  0  2.31263  0  0  -0.363358  -0.64415  0  2.33256  0
O  O75  1  0.64407679  0.28047482  0.44554761  1  0  -0.717804  0  2.070752  0  0  -0.661301  0  2.325237  0  0  -0.693847  0  2.312531  0  0  -0.363371  -0.644197  0  2.332454  0
O  O76  1  0.88924605  0.42760656  0.81909691  1  0  -0.627673  0  1.997815  0  0  -0.557044  0  2.211356  0  0  -0.583699  0  2.201304  0  0  -0.300171  -0.53803  0  2.21689  0
O  O77  1  0.38924762  0.57238611  0.68090047  1  0  -0.627606  0  1.997819  0  0  -0.557006  0  2.211338  0  0  -0.583656  0  2.201275  0  0  -0.300155  -0.537971  0  2.216863  0
O  O78  1  0.11074361  0.57239287  0.18090758  1  0  -0.627628  0  1.997797  0  0  -0.556946  0  2.21131  0  0  -0.583595  0  2.201247  0  0  -0.300115  -0.537934  0  2.216849  0
O  O79  1  0.61074204  0.42760576  0.31909514  1  0  -0.627666  0  1.997913  0  0  -0.557017  0  2.211439  0  0  -0.583672  0  2.201376  0  0  -0.300141  -0.537996  0  2.216976  0
O  O80  1  0.63653670  0.15762040  0.13271878  1  0  -0.709729  0  2.023316  0  0  -0.65862  0  2.280831  0  0  -0.692613  0  2.264392  0  0  -0.382814  -0.640953  0  2.288349  0
O  O81  1  0.13652301  0.84239225  0.36728810  1  0  -0.70987  0  2.023583  0  0  -0.658749  0  2.281036  0  0  -0.692742  0  2.26459  0  0  -0.382808  -0.641108  0  2.288586  0
O  O82  1  0.36347209  0.84237991  0.86728130  1  0  -0.709795  0  2.023449  0  0  -0.658655  0  2.280903  0  0  -0.692663  0  2.264456  0  0  -0.382815  -0.64099  0  2.288415  0
O  O83  1  0.86346812  0.15761465  0.63271717  1  0  -0.709797  0  2.023344  0  0  -0.658672  0  2.280866  0  0  -0.692672  0  2.264425  0  0  -0.382849  -0.641016  0  2.288399  0
O  O84  1  0.06845898  0.05380224  0.91497100  1  0  -1.184087  0  1.748274  0  0  -1.128372  0  1.988521  0  0  -1.174392  0  1.952206  0  0  -0.816535  -1.109785  0  2.006256  0
O  O85  1  0.56844603  0.94619543  0.58503139  1  0  -1.184176  0  1.748179  0  0  -1.128473  0  1.988402  0  0  -1.174487  0  1.952088  0  0  -0.816613  -1.109882  0  2.006139  0
O  O86  1  0.93153804  0.94619813  0.08503448  1  0  -1.184103  0  1.748409  0  0  -1.12838  0  1.988601  0  0  -1.174402  0  1.952295  0  0  -0.816565  -1.109765  0  2.006287  0
O  O87  1  0.43154952  0.05380112  0.41496560  1  0  -1.184156  0  1.748234  0  0  -1.128459  0  1.988466  0  0  -1.174473  0  1.952155  0  0  -0.816571  -1.109867  0  2.006204  0
