# generated using pymatgen
data_DyH8C12(NO3)3
_symmetry_space_group_name_H-M   'P 1'
_cell_length_a   8.14139670
_cell_length_b   7.91204408
_cell_length_c   12.12748440
_cell_angle_alpha   77.79777932
_cell_angle_beta   99.51095979
_cell_angle_gamma   78.52877000
_symmetry_Int_Tables_number   1
_chemical_formula_structural   DyH8C12(NO3)3
_chemical_formula_sum   'Dy2 H16 C24 N6 O18'
_cell_volume   730.56364963
_cell_formula_units_Z   2
loop_
 _symmetry_equiv_pos_site_id
 _symmetry_equiv_pos_as_xyz
  1  'x, y, z'
loop_
 _atom_site_type_symbol
 _atom_site_label
 _atom_site_symmetry_multiplicity
 _atom_site_fract_x
 _atom_site_fract_y
 _atom_site_fract_z
 _atom_site_occupancy
 _atom_site_hle17_bader_spin_density
 _atom_site_hle17_ddec_charge
 _atom_site_hle17_ddec_spin_density
 _atom_site_hle17_ddec_sum_bond_order
 _atom_site_hle17_magmom
 _atom_site_hse06_10hf_bader_spin_density
 _atom_site_hse06_10hf_ddec_charge
 _atom_site_hse06_10hf_ddec_spin_density
 _atom_site_hse06_10hf_ddec_sum_bond_order
 _atom_site_hse06_10hf_magmom
 _atom_site_hse06_bader_spin_density
 _atom_site_hse06_ddec_charge
 _atom_site_hse06_ddec_spin_density
 _atom_site_hse06_ddec_sum_bond_order
 _atom_site_hse06_magmom
 _atom_site_pbe_bader_spin_density
 _atom_site_pbe_cm5_charge
 _atom_site_pbe_ddec_charge
 _atom_site_pbe_ddec_spin_density
 _atom_site_pbe_ddec_sum_bond_order
 _atom_site_pbe_magmom
Dy  Dy0  1  0.78510949  0.20409475  0.47404010  1  0  2.160349  0  1.708799  0  0  2.078297  0  2.044354  0  0  2.135891  0  1.999381  0  0  1.488852  2.041284  0  2.074345  0
Dy  Dy1  1  0.21488169  0.79591369  0.52596078  1  0  2.160321  0  1.708674  0  0  2.078229  0  2.044277  0  0  2.13585  0  1.999272  0  0  1.48887  2.041222  0  2.074261  0
H  H2  1  0.22128045  0.40071447  0.03370456  1  0  0.110627  0  0.947047  0  0  0.120564  0  1.007519  0  0  0.124265  0  1.005476  0  0  0.108896  0.117889  0  1.009191  0
H  H3  1  0.77874280  0.59927760  0.96629429  1  0  0.110589  0  0.946971  0  0  0.120513  0  1.007472  0  0  0.124215  0  1.005429  0  0  0.108875  0.117838  0  1.009144  0
H  H4  1  0.41309345  0.50968499  0.90650556  1  0  0.085575  0  0.932383  0  0  0.093833  0  0.99436  0  0  0.096686  0  0.991612  0  0  0.119407  0.091838  0  0.996249  0
H  H5  1  0.58691210  0.49030515  0.09348322  1  0  0.085515  0  0.932344  0  0  0.093821  0  0.994287  0  0  0.096674  0  0.991534  0  0  0.119408  0.091824  0  0.996176  0
H  H6  1  0.47879326  0.05308043  0.78730542  1  0  0.098882  0  0.904942  0  0  0.108579  0  0.960505  0  0  0.111485  0  0.958322  0  0  0.124299  0.106521  0  0.962014  0
H  H7  1  0.52120690  0.94689754  0.21269416  1  0  0.098938  0  0.904941  0  0  0.108576  0  0.960591  0  0  0.111479  0  0.958412  0  0  0.124344  0.10654  0  0.962069  0
H  H8  1  0.29394051  0.92438032  0.90785306  1  0  0.113046  0  0.960282  0  0  0.122093  0  1.022187  0  0  0.125043  0  1.022055  0  0  0.108482  0.120066  0  1.022294  0
H  H9  1  0.70606549  0.07559971  0.09215883  1  0  0.112964  0  0.960309  0  0  0.12203  0  1.022213  0  0  0.12498  0  1.022078  0  0  0.108439  0.119987  0  1.022338  0
H  H10  1  0.30759264  0.80109675  0.12062320  1  0  0.289919  0  0.941079  0  0  0.261851  0  1.020281  0  0  0.27227  0  1.011682  0  0  0.306532  0.25447  0  1.026349  0
H  H11  1  0.69242297  0.19889805  0.87937677  1  0  0.290026  0  0.941026  0  0  0.261901  0  1.020329  0  0  0.272317  0  1.011729  0  0  0.30657  0.254517  0  1.026398  0
H  H12  1  0.08771953  0.62466607  0.12297084  1  0  0.398648  0  0.816665  0  0  0.374703  0  0.887487  0  0  0.383797  0  0.877634  0  0  0.337556  0.368208  0  0.894591  0
H  H13  1  0.91230229  0.37533500  0.87703502  1  0  0.398825  0  0.816436  0  0  0.374827  0  0.887256  0  0  0.383914  0  0.877424  0  0  0.33767  0.368333  0  0.894355  0
H  H14  1  0.03136979  0.44484256  0.40883260  1  0  0.450953  0  0.835908  0  0  0.424797  0  0.889095  0  0  0.436331  0  0.872321  0  0  0.311343  0.417342  0  0.899985  0
H  H15  1  0.96862616  0.55516581  0.59116755  1  0  0.451011  0  0.835801  0  0  0.424827  0  0.889039  0  0  0.436363  0  0.872261  0  0  0.311364  0.417371  0  0.899932  0
H  H16  1  0.12205736  0.24183738  0.42185255  1  0  0.446193  0  0.847855  0  0  0.417535  0  0.906809  0  0  0.429203  0  0.88975  0  0  0.305499  0.409889  0  0.918035  0
H  H17  1  0.87793982  0.75816011  0.57815584  1  0  0.446424  0  0.847525  0  0  0.417713  0  0.906575  0  0  0.429389  0  0.889509  0  0  0.305561  0.410062  0  0.917801  0
C  C18  1  0.91022356  0.08774829  0.28814498  1  0  0.657081  0  3.915703  0  0  0.609116  0  4.217529  0  0  0.645174  0  4.207108  0  0  0.211042  0.585726  0  4.224145  0
C  C19  1  0.08978920  0.91224664  0.71185325  1  0  0.657028  0  3.915649  0  0  0.609045  0  4.217523  0  0  0.645105  0  4.20711  0  0  0.210971  0.585651  0  4.224142  0
C  C20  1  0.01914774  0.04102712  0.20668649  1  0  0.063968  0  3.702564  0  0  0.059162  0  3.968088  0  0  0.061178  0  3.982093  0  0  0.107808  0.058254  0  3.957951  0
C  C21  1  0.98084768  0.95898136  0.79331113  1  0  0.063897  0  3.701759  0  0  0.059047  0  3.967279  0  0  0.061051  0  3.98129  0  0  0.107734  0.058147  0  3.957138  0
C  C22  1  0.10798643  0.87036579  0.20646111  1  0  -0.029874  0  3.737487  0  0  -0.045741  0  4.00191  0  0  -0.049585  0  4.020479  0  0  0.088367  -0.043248  0  3.989423  0
C  C23  1  0.89201292  0.12965512  0.79355480  1  0  -0.029897  0  3.737384  0  0  -0.045632  0  4.001569  0  0  -0.049464  0  4.020136  0  0  0.088429  -0.043145  0  3.989081  0
C  C24  1  0.10479834  0.69174316  0.26734851  1  0  0.669762  0  3.783953  0  0  0.617888  0  4.085629  0  0  0.654008  0  4.073878  0  0  0.256139  0.593825  0  4.093035  0
C  C25  1  0.89518063  0.30829426  0.73262468  1  0  0.6699  0  3.784191  0  0  0.617963  0  4.085768  0  0  0.654083  0  4.074011  0  0  0.256254  0.593893  0  4.093178  0
C  C26  1  0.15986942  0.07358188  0.07061372  1  0  0.3272  0  3.744955  0  0  0.295162  0  4.022717  0  0  0.308672  0  4.035855  0  0  0.218737  0.286339  0  4.013478  0
C  C27  1  0.84015431  0.92640838  0.92939788  1  0  0.327333  0  3.744757  0  0  0.295005  0  4.022774  0  0  0.308512  0  4.035908  0  0  0.218555  0.286176  0  4.013552  0
C  C28  1  0.24743898  0.15100358  0.98461132  1  0  0.012535  0  3.834127  0  0  0.027245  0  4.073044  0  0  0.027998  0  4.096351  0  0  7.5e-05  0.026795  0  4.057264  0
C  C29  1  0.75257313  0.84902809  0.01539247  1  0  0.012431  0  3.834069  0  0  0.027399  0  4.072755  0  0  0.028151  0  4.096066  0  0  0.000142  0.026949  0  4.056974  0
C  C30  1  0.27549611  0.32154304  0.97922601  1  0  -0.134913  0  3.695111  0  0  -0.155989  0  3.942061  0  0  -0.161754  0  3.961897  0  0  -0.074085  -0.152221  0  3.928796  0
C  C31  1  0.72450126  0.67845867  0.02077512  1  0  -0.134892  0  3.694717  0  0  -0.155988  0  3.941569  0  0  -0.161759  0  3.961418  0  0  -0.074027  -0.152219  0  3.928299  0
C  C32  1  0.38495885  0.37963672  0.91091624  1  0  0.137075  0  3.702299  0  0  0.109172  0  3.961903  0  0  0.115802  0  3.977201  0  0  0.055044  0.104867  0  3.951318  0
C  C33  1  0.61504526  0.62035816  0.08908766  1  0  0.137155  0  3.702486  0  0  0.109196  0  3.962111  0  0  0.115826  0  3.977412  0  0  0.055081  0.104892  0  3.951522  0
C  C34  1  0.42046224  0.12589796  0.84391740  1  0  0.13422  0  3.679272  0  0  0.107742  0  3.938004  0  0  0.114093  0  3.953445  0  0  0.052128  0.103614  0  3.9274  0
C  C35  1  0.57954279  0.87408759  0.15608869  1  0  0.133978  0  3.679611  0  0  0.107526  0  3.938381  0  0  0.113879  0  3.953817  0  0  0.052025  0.103384  0  3.927765  0
C  C36  1  0.31557071  0.05503481  0.91069099  1  0  -0.162212  0  3.735441  0  0  -0.185073  0  3.987148  0  0  -0.192652  0  4.011797  0  0  -0.088967  -0.180014  0  3.970512  0
C  C37  1  0.68443074  0.94495356  0.08931212  1  0  -0.162029  0  3.735605  0  0  -0.184956  0  3.987183  0  0  -0.192532  0  4.011825  0  0  -0.088963  -0.179891  0  3.970565  0
C  C38  1  0.44094502  0.06852089  0.44569790  1  0  0.586899  0  3.888053  0  0  0.540929  0  4.193434  0  0  0.573895  0  4.181252  0  0  0.215719  0.519651  0  4.200988  0
C  C39  1  0.55904995  0.93147554  0.55430477  1  0  0.586855  0  3.88814  0  0  0.540971  0  4.193402  0  0  0.573979  0  4.181166  0  0  0.215711  0.519688  0  4.200958  0
C  C40  1  0.51933254  0.56300052  0.44768293  1  0  0.572685  0  3.904918  0  0  0.52904  0  4.211545  0  0  0.562024  0  4.20071  0  0  0.213576  0.507834  0  4.218041  0
C  C41  1  0.48064273  0.43701907  0.55231022  1  0  0.57262  0  3.904604  0  0  0.528953  0  4.211253  0  0  0.561937  0  4.200416  0  0  0.213642  0.50775  0  4.217749  0
N  N42  1  0.04922227  0.16497993  0.11996135  1  0  -0.377279  0  2.89152  0  0  -0.364133  0  3.168315  0  0  -0.374236  0  3.177062  0  0  -0.323501  -0.356971  0  3.161887  0
N  N43  1  0.95077918  0.83499736  0.88005584  1  0  -0.377259  0  2.890927  0  0  -0.364059  0  3.167805  0  0  -0.374155  0  3.176546  0  0  -0.323416  -0.356901  0  3.161393  0
N  N44  1  0.19325432  0.89371969  0.11759091  1  0  -0.359154  0  3.422312  0  0  -0.299306  0  3.659195  0  0  -0.31652  0  3.674476  0  0  -0.371336  -0.287543  0  3.648792  0
N  N45  1  0.80673162  0.10627698  0.88240988  1  0  -0.359399  0  3.422411  0  0  -0.299484  0  3.659289  0  0  -0.316694  0  3.674559  0  0  -0.371454  -0.287715  0  3.648908  0
N  N46  1  0.46378612  0.28005055  0.84909042  1  0  -0.287784  0  3.101465  0  0  -0.244346  0  3.36431  0  0  -0.255348  0  3.376433  0  0  -0.308485  -0.236519  0  3.35559  0
N  N47  1  0.53621538  0.71995272  0.15090224  1  0  -0.287653  0  3.102023  0  0  -0.244219  0  3.364834  0  0  -0.255221  0  3.376958  0  0  -0.308503  -0.236397  0  3.356122  0
O  O48  1  0.78361968  0.21977252  0.25920824  1  0  -0.605161  0  1.91494  0  0  -0.573158  0  2.141104  0  0  -0.596789  0  2.132045  0  0  -0.32338  -0.557677  0  2.147362  0
O  O49  1  0.21639746  0.78022071  0.74079781  1  0  -0.605069  0  1.914927  0  0  -0.573046  0  2.141066  0  0  -0.596683  0  2.132011  0  0  -0.323317  -0.557562  0  2.147328  0
O  O50  1  0.95632311  0.98781251  0.39276845  1  0  -0.785408  0  2.141229  0  0  -0.74304  0  2.395869  0  0  -0.775594  0  2.391675  0  0  -0.428307  -0.723456  0  2.400694  0
O  O51  1  0.04366636  0.01219732  0.60723137  1  0  -0.785425  0  2.14119  0  0  -0.743004  0  2.395743  0  0  -0.775557  0  2.391552  0  0  -0.428316  -0.723426  0  2.400585  0
O  O52  1  0.09772460  0.64729966  0.37005697  1  0  -0.56275  0  2.087057  0  0  -0.515957  0  2.309461  0  0  -0.540613  0  2.301452  0  0  -0.270968  -0.500313  0  2.315194  0
O  O53  1  0.90227114  0.35268300  0.62992520  1  0  -0.562709  0  2.087426  0  0  -0.515872  0  2.309786  0  0  -0.540522  0  2.301774  0  0  -0.270921  -0.500216  0  2.315515  0
O  O54  1  0.10918058  0.56829178  0.20584359  1  0  -0.486361  0  2.034204  0  0  -0.437672  0  2.233759  0  0  -0.455881  0  2.21783  0  0  -0.304444  -0.424741  0  2.244214  0
O  O55  1  0.89083606  0.43169899  0.79415781  1  0  -0.486503  0  2.0343  0  0  -0.437693  0  2.233901  0  0  -0.455902  0  2.21797  0  0  -0.304515  -0.424762  0  2.244365  0
O  O56  1  0.50835394  0.17239985  0.38450071  1  0  -0.633511  0  2.002379  0  0  -0.600308  0  2.233591  0  0  -0.624583  0  2.224138  0  0  -0.360201  -0.584759  0  2.240006  0
O  O57  1  0.49163875  0.82760085  0.61549464  1  0  -0.633444  0  2.002698  0  0  -0.600263  0  2.233881  0  0  -0.624548  0  2.224402  0  0  -0.360147  -0.584714  0  2.240295  0
O  O58  1  0.28306376  0.06343492  0.42832870  1  0  -0.678937  0  2.095651  0  0  -0.632522  0  2.333329  0  0  -0.659309  0  2.323732  0  0  -0.36458  -0.614884  0  2.339723  0
O  O59  1  0.71693470  0.93657744  0.57166927  1  0  -0.679029  0  2.095426  0  0  -0.632608  0  2.333062  0  0  -0.659409  0  2.323448  0  0  -0.364632  -0.614965  0  2.339455  0
O  O60  1  0.64694609  0.50090322  0.40846874  1  0  -0.64237  0  2.030972  0  0  -0.608158  0  2.271566  0  0  -0.63391  0  2.262536  0  0  -0.393194  -0.591613  0  2.277592  0
O  O61  1  0.35304322  0.49909771  0.59152235  1  0  -0.642207  0  2.031382  0  0  -0.607966  0  2.27197  0  0  -0.633718  0  2.262941  0  0  -0.393141  -0.591423  0  2.277997  0
O  O62  1  0.42042619  0.71741664  0.41072920  1  0  -0.665633  0  2.086971  0  0  -0.62822  0  2.331112  0  0  -0.65612  0  2.326076  0  0  -0.365699  -0.609687  0  2.334166  0
O  O63  1  0.57956703  0.28259056  0.58926857  1  0  -0.665818  0  2.086196  0  0  -0.62841  0  2.330328  0  0  -0.656314  0  2.325302  0  0  -0.365855  -0.609875  0  2.333384  0
O  O64  1  0.01521642  0.32276848  0.42733817  1  0  -0.904247  0  1.869143  0  0  -0.864095  0  2.053411  0  0  -0.884946  0  2.019649  0  0  -0.652369  -0.850774  0  2.075775  0
O  O65  1  0.98477405  0.67723988  0.57266521  1  0  -0.9045  0  1.868885  0  0  -0.864331  0  2.053217  0  0  -0.885199  0  2.019434  0  0  -0.652426  -0.851003  0  2.075596  0
