# generated using pymatgen
data_ErH17C15(NO3)3
_symmetry_space_group_name_H-M   'P 1'
_cell_length_a   12.94225680
_cell_length_b   12.94159845
_cell_length_c   14.58182331
_cell_angle_alpha   83.79485698
_cell_angle_beta   83.79448678
_cell_angle_gamma   61.75432394
_symmetry_Int_Tables_number   1
_chemical_formula_structural   ErH17C15(NO3)3
_chemical_formula_sum   'Er4 H68 C60 N12 O36'
_cell_volume   2134.40867627
_cell_formula_units_Z   4
loop_
 _symmetry_equiv_pos_site_id
 _symmetry_equiv_pos_as_xyz
  1  'x, y, z'
loop_
 _atom_site_type_symbol
 _atom_site_label
 _atom_site_symmetry_multiplicity
 _atom_site_fract_x
 _atom_site_fract_y
 _atom_site_fract_z
 _atom_site_occupancy
 _atom_site_pbe_bader_charge
 _atom_site_pbe_bader_spin_density
 _atom_site_pbe_cm5_charge
 _atom_site_pbe_ddec_charge
 _atom_site_pbe_ddec_spin_density
 _atom_site_pbe_ddec_sum_bond_order
 _atom_site_pbe_magmom
Er  Er0  1  0.98142935  0.34519014  0.53068443  1  2.181035  0  1.519484  2.04554  0  2.180228  0
Er  Er1  1  0.65482440  0.01857465  0.96931291  1  2.180993  0  1.51963  2.045468  0  2.180505  0
Er  Er2  1  0.01854628  0.65480274  0.46930740  1  2.180689  0  1.519526  2.045633  0  2.180047  0
Er  Er3  1  0.34518550  0.98141537  0.03069721  1  2.181045  0  1.519641  2.045412  0  2.18062  0
H  H4  1  0.30914903  0.47740964  0.37291200  1  0.093355  0  0.119269  0.135072  0  0.998119  0
H  H5  1  0.52254097  0.69081601  0.12712150  1  0.093201  0  0.119195  0.13494  0  0.998414  0
H  H6  1  0.69081076  0.52259374  0.62709474  1  0.092939  0  0.119235  0.134971  0  0.998089  0
H  H7  1  0.47741184  0.30922561  0.87288845  1  0.093488  0  0.119195  0.134774  0  0.998341  0
H  H8  1  0.26112653  0.20340389  0.27201653  1  0.098471  0  0.104583  0.107549  0  1.026265  0
H  H9  1  0.79655213  0.73887928  0.22794146  1  0.09909  0  0.104619  0.10768  0  1.026221  0
H  H10  1  0.73887899  0.79658199  0.72797519  1  0.098668  0  0.104593  0.107539  0  1.026131  0
H  H11  1  0.20344810  0.26110207  0.77205462  1  0.098823  0  0.104563  0.107569  0  1.026075  0
H  H12  1  0.53727024  0.27883693  0.14769743  1  0.117217  0  0.111734  0.122647  0  1.020145  0
H  H13  1  0.72117789  0.46269982  0.35230944  1  0.116924  0  0.111812  0.122688  0  1.020142  0
H  H14  1  0.46271334  0.72119106  0.85230747  1  0.116992  0  0.111759  0.122613  0  1.020311  0
H  H15  1  0.27878808  0.53730303  0.64767962  1  0.116591  0  0.111794  0.122747  0  1.020178  0
H  H16  1  0.26792296  0.16962078  0.55364969  1  0.086735  0  0.124888  0.046676  0  1.00616  0
H  H17  1  0.83038464  0.73204256  0.94635019  1  0.086486  0  0.124889  0.046538  0  1.006247  0
H  H18  1  0.73207735  0.83039477  0.44631982  1  0.086927  0  0.124943  0.046666  0  1.006155  0
H  H19  1  0.16961910  0.26794722  0.05366671  1  0.08627  0  0.124931  0.046649  0  1.006223  0
H  H20  1  0.43126746  0.00780702  0.72267501  1  0.072914  0  0.109752  0.136575  0  0.987977  0
H  H21  1  0.99220625  0.56870702  0.77731470  1  0.072377  0  0.109745  0.136522  0  0.98786  0
H  H22  1  0.56876630  0.99221078  0.27727604  1  0.072175  0  0.109711  0.136559  0  0.988049  0
H  H23  1  0.00779665  0.43129717  0.22268513  1  0.072229  0  0.109741  0.136518  0  0.98792  0
H  H24  1  0.43608054  0.06632496  0.60640885  1  0.049162  0  0.109672  0.119518  0  0.990939  0
H  H25  1  0.93369577  0.56387722  0.89357585  1  0.049315  0  0.109663  0.119528  0  0.991068  0
H  H26  1  0.56391981  0.93370226  0.39354173  1  0.049817  0  0.109578  0.119484  0  0.991252  0
H  H27  1  0.06631414  0.43611047  0.10642282  1  0.049655  0  0.109641  0.119507  0  0.991064  0
H  H28  1  0.48041769  0.91270420  0.63005485  1  0.045768  0  0.102929  0.116715  0  0.998962  0
H  H29  1  0.08730475  0.51955000  0.86993083  1  0.045542  0  0.102884  0.116639  0  0.999167  0
H  H30  1  0.51959848  0.08732106  0.36989236  1  0.045497  0  0.102887  0.116745  0  0.99902  0
H  H31  1  0.91270254  0.48044670  0.13006587  1  0.045637  0  0.102877  0.116665  0  0.998946  0
H  H32  1  0.32515361  0.85695627  0.69247183  1  0.099112  0  0.109593  0.131687  0  0.983813  0
H  H33  1  0.14303646  0.67485576  0.80754419  1  0.099057  0  0.109612  0.131723  0  0.98367  0
H  H34  1  0.67487220  0.14305435  0.30748956  1  0.098837  0  0.109513  0.131548  0  0.983839  0
H  H35  1  0.85696292  0.32517412  0.19248921  1  0.098978  0  0.109542  0.13159  0  0.983914  0
H  H36  1  0.17701500  0.95965033  0.66975556  1  0.117294  0  0.114357  0.140178  0  0.988602  0
H  H37  1  0.04031001  0.82299550  0.83025514  1  0.117401  0  0.114411  0.140144  0  0.988716  0
H  H38  1  0.82300199  0.04036592  0.33024317  1  0.117101  0  0.114354  0.14012  0  0.988425  0
H  H39  1  0.95964717  0.17703085  0.16975378  1  0.117533  0  0.114376  0.140149  0  0.988714  0
H  H40  1  0.24063826  0.96911852  0.77041384  1  0.083591  0  0.107161  0.129295  0  0.999983  0
H  H41  1  0.03087951  0.75935153  0.72959360  1  0.083689  0  0.107136  0.129298  0  0.999813  0
H  H42  1  0.75942269  0.03087251  0.22956735  1  0.083484  0  0.107129  0.129204  0  1.000092  0
H  H43  1  0.96913302  0.24063413  0.27042011  1  0.083408  0  0.107205  0.129351  0  1.000148  0
H  H44  1  0.05844975  0.20553568  0.74598151  1  0.06994  0  0.12766  0.048795  0  1.012279  0
H  H45  1  0.79447070  0.94154266  0.75403485  1  0.070635  0  0.127614  0.048763  0  1.012294  0
H  H46  1  0.94154169  0.79444746  0.25401043  1  0.120108  0  0.127639  0.048736  0  1.012156  0
H  H47  1  0.20549699  0.05844614  0.24597526  1  0.070976  0  0.127677  0.04879  0  1.01224  0
H  H48  1  0.76066209  0.34839394  0.92405640  1  0.104755  0  0.109227  0.128937  0  1.00473  0
H  H49  1  0.65158185  0.23934000  0.57595489  1  0.104682  0  0.109281  0.128963  0  1.004686  0
H  H50  1  0.23934259  0.65162108  0.07594019  1  0.104854  0  0.109233  0.129026  0  1.004725  0
H  H51  1  0.34832515  0.76066164  0.42408033  1  0.10493  0  0.109173  0.129048  0  1.004883  0
H  H52  1  0.73610012  0.30307866  0.82126734  1  0.079744  0  0.108416  0.128041  0  0.995693  0
H  H53  1  0.69701642  0.26389038  0.67868632  1  0.077328  0  0.108404  0.128037  0  0.995621  0
H  H54  1  0.26389472  0.69685618  0.17877206  1  0.07953  0  0.108382  0.127994  0  0.9956  0
H  H55  1  0.30319498  0.73608007  0.32120850  1  0.083258  0  0.10839  0.128047  0  0.995687  0
H  H56  1  0.75782759  0.42966669  0.81546092  1  0.098754  0  0.103115  0.118781  0  1.021223  0
H  H57  1  0.57040334  0.24219713  0.68460764  1  0.076991  0  0.103101  0.118848  0  1.021242  0
H  H58  1  0.24214979  0.57028890  0.18449725  1  0.098266  0  0.103216  0.119029  0  1.020824  0
H  H59  1  0.42972433  0.75786648  0.31556198  1  0.098052  0  0.103376  0.119126  0  1.020851  0
H  H60  1  0.95753918  0.26065909  0.96981303  1  0.064337  0  0.103902  0.119314  0  1.000616  0
H  H61  1  0.73936973  0.04246729  0.53018583  1  0.064986  0  0.103825  0.119247  0  1.000375  0
H  H62  1  0.04246286  0.73935097  0.03017124  1  0.064451  0  0.103914  0.119259  0  1.000635  0
H  H63  1  0.26066398  0.95756676  0.46981992  1  0.065027  0  0.10391  0.119193  0  1.000716  0
H  H64  1  0.07301879  0.16454240  0.89382073  1  0.088251  0  0.11348  0.134663  0  1.012765  0
H  H65  1  0.83547333  0.92697155  0.60617546  1  0.086934  0  0.113447  0.13458  0  1.012765  0
H  H66  1  0.92697972  0.83545687  0.10616696  1  0.088217  0  0.113418  0.134532  0  1.012816  0
H  H67  1  0.16453308  0.07303797  0.39383314  1  0.08846  0  0.113385  0.134544  0  1.012937  0
H  H68  1  0.95836621  0.13067091  0.93967892  1  0.064971  0  0.110797  0.136933  0  0.971611  0
H  H69  1  0.86935335  0.04162649  0.56033402  1  0.064824  0  0.110809  0.136934  0  0.971569  0
H  H70  1  0.04164018  0.86932541  0.06032956  1  0.064979  0  0.110758  0.136858  0  0.971656  0
H  H71  1  0.13068555  0.95836622  0.43970327  1  0.065679  0  0.110807  0.136933  0  0.971678  0
C  C72  1  0.43132768  0.38526540  0.26014973  1  0.061756  0  0.001817  0.127495  0  4.141728  0
C  C73  1  0.61471802  0.56863623  0.23987690  1  0.062271  0  0.001986  0.127863  0  4.141419  0
C  C74  1  0.56864620  0.61474848  0.73985811  1  0.062439  0  0.001882  0.127664  0  4.141328  0
C  C75  1  0.38524180  0.43138735  0.76012723  1  0.061697  0  0.002046  0.127649  0  4.141239  0
C  C76  1  0.33642066  0.40792141  0.32581601  1  -0.035959  0  -0.064674  -0.126506  0  3.873036  0
C  C77  1  0.59204393  0.66354385  0.17420192  1  -0.036137  0  -0.064442  -0.126448  0  3.872541  0
C  C78  1  0.66355321  0.59208315  0.67419134  1  -0.036013  0  -0.064495  -0.126348  0  3.872646  0
C  C79  1  0.40791678  0.33648475  0.82580440  1  -0.035598  0  -0.064533  -0.126132  0  3.872756  0
C  C80  1  0.27605986  0.34189730  0.32995829  1  -0.012429  0  -0.018026  -0.042406  0  4.001105  0
C  C81  1  0.65805388  0.72392527  0.17003774  1  -0.012428  0  -0.018224  -0.04237  0  4.000587  0
C  C82  1  0.72392895  0.65809484  0.67003990  1  -0.012167  0  -0.018093  -0.042348  0  4.000886  0
C  C83  1  0.34192528  0.27608847  0.82996824  1  -0.012648  0  -0.01811  -0.042304  0  4.000846  0
C  C84  1  0.30887475  0.25411340  0.26843039  1  -0.040261  0  -0.079876  -0.112838  0  3.945143  0
C  C85  1  0.74585110  0.69112070  0.23154837  1  -0.04032  0  -0.079778  -0.112924  0  3.944786  0
C  C86  1  0.69111759  0.74588176  0.73156445  1  -0.04008  0  -0.079835  -0.112789  0  3.944986  0
C  C87  1  0.25413859  0.30887490  0.76845216  1  -0.040466  0  -0.079762  -0.112817  0  3.94451  0
C  C88  1  0.40310506  0.23130228  0.20292996  1  0.032987  0  -0.018308  -0.043601  0  4.000005  0
C  C89  1  0.76867932  0.59688645  0.29705585  1  0.033626  0  -0.01863  -0.044145  0  4.000306  0
C  C90  1  0.59688904  0.76870137  0.79706802  1  0.033162  0  -0.018345  -0.043903  0  4.000121  0
C  C91  1  0.23130335  0.40310624  0.70293602  1  0.03355  0  -0.018425  -0.043957  0  3.999865  0
C  C92  1  0.46438227  0.29622697  0.19903680  1  -0.056254  0  -0.067377  -0.124477  0  3.876679  0
C  C93  1  0.70376774  0.53559243  0.30097064  1  -0.056057  0  -0.067358  -0.124326  0  3.876759  0
C  C94  1  0.53560392  0.70378348  0.80096883  1  -0.056471  0  -0.067359  -0.124264  0  3.876999  0
C  C95  1  0.29620614  0.46440982  0.69902253  1  -0.056173  0  -0.067484  -0.124455  0  3.876907  0
C  C96  1  0.49306064  0.45172813  0.25396790  1  -0.008642  0  -0.032837  -0.084655  0  4.083427  0
C  C97  1  0.54825549  0.50690299  0.24607179  1  -0.280812  0  -0.032835  -0.084492  0  4.083557  0
C  C98  1  0.50690093  0.54828530  0.74603909  1  -0.007834  0  -0.03298  -0.084887  0  4.083885  0
C  C99  1  0.45170874  0.49312630  0.75393002  1  -0.281521  0  -0.03291  -0.084526  0  4.083909  0
C  C100  1  0.17516427  0.36712233  0.39984229  1  1.582216  0  0.226467  0.643728  0  4.161822  0
C  C101  1  0.63281036  0.82480901  0.10014219  1  1.580273  0  0.226429  0.643318  0  4.161936  0
C  C102  1  0.82482190  0.63286018  0.60014953  1  1.582281  0  0.22651  0.643846  0  4.161094  0
C  C103  1  0.36718638  0.17519340  0.89985634  1  1.580887  0  0.226376  0.643176  0  4.162055  0
C  C104  1  0.44136739  0.13586627  0.13758932  1  1.591107  0  0.229567  0.650946  0  4.157295  0
C  C105  1  0.86411988  0.55863772  0.36240092  1  1.590998  0  0.229442  0.650879  0  4.157337  0
C  C106  1  0.55863200  0.86414345  0.86240758  1  1.590777  0  0.229506  0.650961  0  4.15734  0
C  C107  1  0.13587070  0.44135049  0.63758719  1  1.590676  0  0.229596  0.651066  0  4.156776  0
C  C108  1  0.22583002  0.11925225  0.59105268  1  1.409778  0  0.179039  0.313083  0  4.126373  0
C  C109  1  0.88074838  0.77414964  0.90895861  1  1.411041  0  0.179259  0.313231  0  4.12605  0
C  C110  1  0.77417643  0.88076042  0.40892338  1  1.409241  0  0.178826  0.312651  0  4.12701  0
C  C111  1  0.11925712  0.22583931  0.09105819  1  1.4116  0  0.179192  0.313078  0  4.126641  0
C  C112  1  0.41825172  0.00165907  0.65064277  1  0.290973  0  -0.12828  -0.274731  0  3.910103  0
C  C113  1  0.99835292  0.58172017  0.84934872  1  0.291266  0  -0.128213  -0.274756  0  3.910263  0
C  C114  1  0.58176532  0.99836188  0.34931025  1  0.291362  0  -0.128229  -0.274997  0  3.910286  0
C  C115  1  0.00165349  0.41827383  0.15065243  1  0.291061  0  -0.128227  -0.274753  0  3.910352  0
C  C116  1  0.25719940  0.94866631  0.69728989  1  0.209163  0  -0.13035  -0.26981  0  3.850693  0
C  C117  1  0.05132309  0.74279857  0.80271945  1  0.209056  0  -0.130488  -0.269961  0  3.850125  0
C  C118  1  0.74283254  0.05133908  0.30268925  1  0.209942  0  -0.130237  -0.269538  0  3.850122  0
C  C119  1  0.94867100  0.25720971  0.19729798  1  0.209504  0  -0.130397  -0.269773  0  3.850934  0
C  C120  1  0.96259269  0.26211165  0.75027138  1  1.404206  0  0.184004  0.325846  0  4.089609  0
C  C121  1  0.73789518  0.03740762  0.74973836  1  1.403277  0  0.183952  0.325686  0  4.090012  0
C  C122  1  0.03740138  0.73786016  0.24971795  1  1.354101  0  0.184042  0.326038  0  4.089362  0
C  C123  1  0.26210770  0.96258957  0.25027312  1  1.402798  0  0.184013  0.325938  0  4.089781  0
C  C124  1  0.78393718  0.34203046  0.84971845  1  0.200207  0  -0.133236  -0.266677  0  3.860732  0
C  C125  1  0.65800249  0.21606872  0.65029170  1  0.224629  0  -0.133239  -0.266732  0  3.860716  0
C  C126  1  0.21605249  0.65794030  0.15027689  1  0.201137  0  -0.133352  -0.267064  0  3.860675  0
C  C127  1  0.34206107  0.78394509  0.34973988  1  0.197005  0  -0.133473  -0.267208  0  3.860989  0
C  C128  1  0.97883595  0.20229534  0.91372505  1  0.280509  0  -0.131293  -0.28305  0  3.893046  0
C  C129  1  0.79772888  0.02116057  0.58627820  1  0.281367  0  -0.131197  -0.28275  0  3.892503  0
C  C130  1  0.02116432  0.79770233  0.08626537  1  0.281887  0  -0.131192  -0.282728  0  3.892817  0
C  C131  1  0.20229511  0.97885003  0.41374235  1  0.280666  0  -0.131298  -0.282796  0  3.893035  0
N  N132  1  0.29786732  0.02531286  0.64226681  1  -1.227709  0  -0.278844  0.025212  0  3.714772  0
N  N133  1  0.97468912  0.70211000  0.85773891  1  -1.227463  0  -0.278751  0.025641  0  3.713858  0
N  N134  1  0.70214793  0.97470268  0.35770747  1  -1.227635  0  -0.278531  0.025861  0  3.714567  0
N  N135  1  0.02531199  0.29788490  0.14227295  1  -1.227986  0  -0.278755  0.025488  0  3.714732  0
N  N136  1  0.91095949  0.26932443  0.83498617  1  -1.20342  0  -0.273818  0.039544  0  3.700263  0
N  N137  1  0.73069658  0.08903833  0.66501934  1  -1.203108  0  -0.27383  0.03945  0  3.700439  0
N  N138  1  0.08903459  0.73065437  0.16500456  1  -1.205051  0  -0.273819  0.039573  0  3.700338  0
N  N139  1  0.26932214  0.91096698  0.33499878  1  -1.20465  0  -0.273796  0.039463  0  3.700278  0
N  N140  1  0.83293664  0.26790978  0.46211555  1  0.806062  0  0.079165  0.715673  0  4.445062  0
N  N141  1  0.73205445  0.16709974  0.03788616  1  0.805809  0  0.079097  0.715565  0  4.445503  0
N  N142  1  0.16704249  0.73207446  0.53787677  1  0.806555  0  0.078674  0.715145  0  4.445606  0
N  N143  1  0.26794840  0.83288966  0.96214252  1  0.805248  0  0.079233  0.71595  0  4.44527  0
O  O144  1  0.12429745  0.46763950  0.43291039  1  -1.21444  0  -0.410269  -0.707641  0  2.442413  0
O  O145  1  0.53229528  0.87565138  0.06708866  1  -1.214079  0  -0.410548  -0.70732  0  2.442113  0
O  O146  1  0.87568606  0.53233801  0.56708969  1  -1.214763  0  -0.410319  -0.70767  0  2.44191  0
O  O147  1  0.46770588  0.12436063  0.93290443  1  -1.213987  0  -0.410496  -0.707321  0  2.44191  0
O  O148  1  0.14466325  0.28732349  0.42383804  1  -1.178743  0  -0.383548  -0.645847  0  2.2602  0
O  O149  1  0.71259275  0.85532445  0.07613335  1  -1.177413  0  -0.383397  -0.645565  0  2.260775  0
O  O150  1  0.85532117  0.71265985  0.57614427  1  -1.17845  0  -0.383687  -0.645979  0  2.260233  0
O  O151  1  0.28741628  0.14466366  0.92386400  1  -1.177803  0  -0.383341  -0.645444  0  2.260682  0
O  O152  1  0.36470417  0.10645181  0.12072895  1  -1.201589  0  -0.39427  -0.681008  0  2.359611  0
O  O153  1  0.89350159  0.63533603  0.37925378  1  -1.201277  0  -0.394091  -0.680889  0  2.359393  0
O  O154  1  0.63530488  0.89354795  0.87926592  1  -1.201296  0  -0.394185  -0.68096  0  2.35951  0
O  O155  1  0.10648194  0.36465159  0.62074672  1  -1.201219  0  -0.394158  -0.680996  0  2.359137  0
O  O156  1  0.54742421  0.09137110  0.10529187  1  -1.195121  0  -0.393821  -0.671564  0  2.366855  0
O  O157  1  0.90861315  0.45258247  0.39470996  1  -1.195078  0  -0.393794  -0.671466  0  2.366974  0
O  O158  1  0.45258133  0.90863341  0.89470769  1  -1.195065  0  -0.393833  -0.671564  0  2.366911  0
O  O159  1  0.09138447  0.54740790  0.60527111  1  -1.19478  0  -0.393883  -0.671549  0  2.366588  0
O  O160  1  0.11920165  0.15004374  0.58397981  1  -1.178044  0  -0.356963  -0.547502  0  2.37406  0
O  O161  1  0.84996312  0.88077227  0.91604588  1  -1.178972  0  -0.357206  -0.547735  0  2.374177  0
O  O162  1  0.88080214  0.84996314  0.41601763  1  -1.1781  0  -0.356995  -0.547463  0  2.374107  0
O  O163  1  0.15004063  0.11922294  0.08397256  1  -1.179174  0  -0.357179  -0.547628  0  2.374278  0
O  O164  1  0.90790501  0.31490730  0.67944245  1  -1.178208  0  -0.372536  -0.559797  0  2.378167  0
O  O165  1  0.68511173  0.09210794  0.82056207  1  -1.178241  0  -0.372473  -0.559649  0  2.378493  0
O  O166  1  0.09208729  0.68505601  0.32054717  1  -1.177893  0  -0.372559  -0.559971  0  2.378255  0
O  O167  1  0.31490698  0.90789270  0.17945444  1  -1.178159  0  -0.372495  -0.559763  0  2.378543  0
O  O168  1  0.94600242  0.21256169  0.44971390  1  -0.568172  0  -0.248547  -0.53535  0  2.016772  0
O  O169  1  0.78741274  0.05402404  0.05028209  1  -0.567558  0  -0.248712  -0.535391  0  2.016591  0
O  O170  1  0.05397844  0.78741782  0.55030339  1  -0.56814  0  -0.2486  -0.535294  0  2.016481  0
O  O171  1  0.21259540  0.94596213  0.94972718  1  -0.567174  0  -0.248869  -0.535694  0  2.01634  0
O  O172  1  0.79121061  0.35261447  0.51620580  1  -0.575464  0  -0.236368  -0.517948  0  2.017765  0
O  O173  1  0.64734232  0.20882614  0.98381415  1  -0.575857  0  -0.236214  -0.51776  0  2.018307  0
O  O174  1  0.20878172  0.64737137  0.48378375  1  -0.576068  0  -0.236139  -0.517748  0  2.018063  0
O  O175  1  0.35266405  0.79116472  0.01621062  1  -0.576513  0  -0.236249  -0.517772  0  2.01824  0
O  O176  1  0.76911989  0.24083380  0.42400701  1  -0.474546  0  -0.156826  -0.393237  0  1.928803  0
O  O177  1  0.75912469  0.23091931  0.07599997  1  -0.474576  0  -0.156808  -0.393248  0  1.928849  0
O  O178  1  0.23085752  0.75916448  0.57597111  1  -0.474537  0  -0.156553  -0.392979  0  1.928955  0
O  O179  1  0.24086933  0.76906020  0.92405174  1  -0.473803  0  -0.156756  -0.393337  0  1.929028  0
