# generated using pymatgen
data_ZnH16C20(NO2)2
_symmetry_space_group_name_H-M   'P 1'
_cell_length_a   12.51021617
_cell_length_b   17.58460016
_cell_length_c   20.64497523
_cell_angle_alpha   90.00014803
_cell_angle_beta   96.19919643
_cell_angle_gamma   90.00020742
_symmetry_Int_Tables_number   1
_chemical_formula_structural   ZnH16C20(NO2)2
_chemical_formula_sum   'Zn8 H128 C160 N16 O32'
_cell_volume   4515.07197277
_cell_formula_units_Z   8
loop_
 _symmetry_equiv_pos_site_id
 _symmetry_equiv_pos_as_xyz
  1  'x, y, z'
loop_
 _atom_site_type_symbol
 _atom_site_label
 _atom_site_symmetry_multiplicity
 _atom_site_fract_x
 _atom_site_fract_y
 _atom_site_fract_z
 _atom_site_occupancy
 _atom_site_pbe_bader_charge
 _atom_site_pbe_bader_spin_density
 _atom_site_pbe_cm5_charge
 _atom_site_pbe_ddec_charge
 _atom_site_pbe_ddec_spin_density
 _atom_site_pbe_ddec_sum_bond_order
 _atom_site_pbe_magmom
Zn  Zn0  1  0.95363569  0.04046040  0.31727219  1  1.243748  0  0.697166  0.759773  0  2.363724  0
Zn  Zn1  1  0.54636803  0.54045910  0.18272996  1  1.243724  0  0.697188  0.75977  0  2.363706  0
Zn  Zn2  1  0.04637004  0.95954068  0.68273222  1  1.24366  0  0.6972  0.759817  0  2.363751  0
Zn  Zn3  1  0.45363207  0.45954426  0.81726973  1  1.243652  0  0.697154  0.759693  0  2.36374  0
Zn  Zn4  1  0.05933712  0.63838567  0.20209844  1  1.242279  0  0.69618  0.747308  0  2.391063  0
Zn  Zn5  1  0.44065928  0.13838517  0.29790123  1  1.242223  0  0.696247  0.74736  0  2.390939  0
Zn  Zn6  1  0.94065816  0.36161598  0.79790093  1  1.24237  0  0.69624  0.747384  0  2.390887  0
Zn  Zn7  1  0.55933520  0.86161307  0.70209809  1  1.242338  0  0.696183  0.747339  0  2.390979  0
H  H8  1  0.89564647  0.88172991  0.28602963  1  0.199331  0  0.11585  0.105297  0  1.048424  0
H  H9  1  0.60435594  0.38173113  0.21397028  1  0.199424  0  0.115865  0.105279  0  1.048478  0
H  H10  1  0.10435685  0.11827061  0.71397317  1  0.199372  0  0.115846  0.10529  0  1.048436  0
H  H11  1  0.39564175  0.61827621  0.78603118  1  0.199342  0  0.115847  0.105294  0  1.048326  0
H  H12  1  0.73392049  0.80003093  0.27892085  1  0.099177  0  0.104639  0.122989  0  1.037612  0
H  H13  1  0.76608226  0.30003259  0.22107745  1  0.09914  0  0.104642  0.123012  0  1.037619  0
H  H14  1  0.26608363  0.19996902  0.72107958  1  0.099152  0  0.104631  0.122995  0  1.037628  0
H  H15  1  0.23391221  0.69997190  0.77892526  1  0.099129  0  0.104635  0.12294  0  1.037677  0
H  H16  1  0.56257031  0.98953186  0.35391724  1  0.116173  0  0.107157  0.123167  0  1.039772  0
H  H17  1  0.93743751  0.48953488  0.14608762  1  0.116242  0  0.107099  0.12306  0  1.039769  0
H  H18  1  0.43743381  0.01046809  0.64608367  1  0.116135  0  0.107141  0.123108  0  1.039786  0
H  H19  1  0.06256259  0.51046450  0.85391449  1  0.116184  0  0.107101  0.123031  0  1.039852  0
H  H20  1  0.73037156  0.06373793  0.35770016  1  0.124614  0  0.117296  0.090019  0  1.022425  0
H  H21  1  0.76963711  0.56374106  0.14230721  1  0.124656  0  0.117322  0.090024  0  1.022313  0
H  H22  1  0.26963336  0.93626202  0.64230420  1  0.124658  0  0.117329  0.090046  0  1.022285  0
H  H23  1  0.23036460  0.43626002  0.85769258  1  0.124744  0  0.117324  0.090043  0  1.022315  0
H  H24  1  0.55320959  0.77999959  0.31281351  1  0.04234  0  0.095419  0.098269  0  0.981089  0
H  H25  1  0.94679386  0.28000218  0.18718431  1  0.042417  0  0.095421  0.098253  0  0.98115  0
H  H26  1  0.44679855  0.21999809  0.68718767  1  0.042426  0  0.095429  0.0983  0  0.981126  0
H  H27  1  0.05319900  0.71999720  0.81281587  1  0.04245  0  0.095451  0.098327  0  0.981124  0
H  H28  1  0.48209678  0.85417923  0.34828143  1  0.035827  0  0.097881  0.103084  0  0.993602  0
H  H29  1  0.01790403  0.35418004  0.15171754  1  0.035773  0  0.097881  0.103083  0  0.993639  0
H  H30  1  0.51790412  0.14582072  0.65171733  1  0.035514  0  0.097892  0.103111  0  0.993608  0
H  H31  1  0.98209044  0.64581877  0.84828323  1  0.036165  0  0.097913  0.103122  0  0.99359  0
H  H32  1  0.51761846  0.84517572  0.20334188  1  0.053036  0  0.09266  0.093792  0  0.997404  0
H  H33  1  0.98238052  0.34517703  0.29665676  1  0.053067  0  0.092667  0.093797  0  0.997387  0
H  H34  1  0.48238646  0.15481797  0.79665764  1  0.053148  0  0.092715  0.093832  0  0.997364  0
H  H35  1  0.01761636  0.65481950  0.70334466  1  0.053164  0  0.092696  0.093823  0  0.9974  0
H  H36  1  0.44002489  0.91479853  0.24002227  1  0.030329  0  0.094524  0.10064  0  1.001179  0
H  H37  1  0.05997545  0.41480035  0.25997584  1  0.03029  0  0.094487  0.100589  0  1.00118  0
H  H38  1  0.55997842  0.08519687  0.75997423  1  0.030424  0  0.094543  0.100666  0  1.001185  0
H  H39  1  0.94002143  0.58519619  0.74002460  1  0.030431  0  0.094536  0.10064  0  1.00117  0
H  H40  1  0.44765958  0.71132838  0.18613039  1  0.128938  0  0.104925  0.123238  0  1.043812  0
H  H41  1  0.05233803  0.21133034  0.31386709  1  0.128931  0  0.104949  0.123274  0  1.043803  0
H  H42  1  0.55234052  0.28866645  0.81386639  1  0.128973  0  0.104954  0.123238  0  1.043925  0
H  H43  1  0.94765966  0.78866506  0.68613098  1  0.128843  0  0.104957  0.123282  0  1.043861  0
H  H44  1  0.28622818  0.62976701  0.17509368  1  0.148689  0  0.11719  0.096362  0  1.03034  0
H  H45  1  0.21376897  0.12976715  0.32490601  1  0.148738  0  0.117177  0.096287  0  1.030281  0
H  H46  1  0.71376951  0.37023236  0.82490487  1  0.148734  0  0.117225  0.096405  0  1.03033  0
H  H47  1  0.78623113  0.87023109  0.67509270  1  0.148732  0  0.11718  0.096282  0  1.030349  0
H  H48  1  0.10640627  0.79175240  0.26312473  1  0.184876  0  0.117926  0.109112  0  1.042025  0
H  H49  1  0.39359259  0.29175103  0.23687640  1  0.184698  0  0.117908  0.109078  0  1.042059  0
H  H50  1  0.89359222  0.20824925  0.73687388  1  0.18458  0  0.117926  0.109133  0  1.042022  0
H  H51  1  0.60640751  0.70824892  0.76312667  1  0.184488  0  0.117918  0.109086  0  1.042039  0
H  H52  1  0.26255076  0.88063608  0.27804785  1  0.150545  0  0.10589  0.125862  0  1.050071  0
H  H53  1  0.23745101  0.38063483  0.22195124  1  0.150571  0  0.105878  0.125863  0  1.050062  0
H  H54  1  0.73745417  0.11936273  0.72194827  1  0.150471  0  0.105889  0.125872  0  1.05002  0
H  H55  1  0.76254748  0.61936284  0.77805221  1  0.150503  0  0.105889  0.125847  0  1.050042  0
H  H56  1  0.48579396  0.96691609  0.44823841  1  0.100163  0  0.100138  0.098069  0  1.037034  0
H  H57  1  0.01420909  0.46691887  0.05176193  1  0.100181  0  0.100126  0.098033  0  1.037043  0
H  H58  1  0.51420855  0.03307987  0.55176047  1  0.100186  0  0.100108  0.098015  0  1.036988  0
H  H59  1  0.98579101  0.53308164  0.94824017  1  0.100203  0  0.100135  0.098066  0  1.036928  0
H  H60  1  0.46039572  0.87987129  0.54050264  1  0.082591  0  0.098308  0.109404  0  1.022727  0
H  H61  1  0.03960755  0.37987309  0.95949824  1  0.082636  0  0.098293  0.109365  0  1.022825  0
H  H62  1  0.53961082  0.12012582  0.45949698  1  0.08283  0  0.098309  0.109402  0  1.022834  0
H  H63  1  0.96039174  0.62012685  0.04050333  1  0.082625  0  0.098289  0.109365  0  1.022833  0
H  H64  1  0.27973475  0.82543537  0.55027596  1  0.077022  0  0.091019  0.086593  0  1.071289  0
H  H65  1  0.22026742  0.32543761  0.94972473  1  0.077004  0  0.091022  0.086546  0  1.071303  0
H  H66  1  0.72027179  0.17455889  0.44972463  1  0.077017  0  0.09099  0.086534  0  1.071285  0
H  H67  1  0.77973268  0.67456347  0.05027447  1  0.076979  0  0.09101  0.08653  0  1.071358  0
H  H68  1  0.12453781  0.85973666  0.46972831  1  0.06283  0  0.102475  0.106905  0  0.992462  0
H  H69  1  0.37546625  0.35974143  0.03027040  1  0.062601  0  0.102479  0.10694  0  0.99239  0
H  H70  1  0.87546631  0.14025704  0.53027115  1  0.062566  0  0.102473  0.1069  0  0.992418  0
H  H71  1  0.62453626  0.64026192  0.96972847  1  0.062857  0  0.102488  0.10691  0  0.992414  0
H  H72  1  0.59694139  0.36263059  0.39210074  1  0.08772  0  0.097151  0.095069  0  1.018704  0
H  H73  1  0.90305769  0.86262998  0.10789503  1  0.087699  0  0.097128  0.09507  0  1.018678  0
H  H74  1  0.40305710  0.63737049  0.60789593  1  0.087731  0  0.097151  0.095079  0  1.018698  0
H  H75  1  0.09694241  0.13737509  0.89210514  1  0.087744  0  0.097152  0.095126  0  1.018673  0
H  H76  1  0.73343338  0.41041305  0.47942256  1  0.022228  0  0.088477  0.071569  0  1.057968  0
H  H77  1  0.76656034  0.91041182  0.02057636  1  0.022262  0  0.088431  0.071488  0  1.057988  0
H  H78  1  0.26656189  0.58958917  0.52057633  1  0.022305  0  0.08845  0.071511  0  1.05795  0
H  H79  1  0.23343816  0.08959267  0.97942370  1  0.022373  0  0.088419  0.071443  0  1.058071  0
H  H80  1  0.91595919  0.35172218  0.49469930  1  0.039274  0  0.095229  0.092211  0  1.030699  0
H  H81  1  0.58403259  0.85172328  0.00530373  1  0.03943  0  0.09526  0.092254  0  1.03062  0
H  H82  1  0.08403528  0.64827663  0.50530341  1  0.039444  0  0.095284  0.09228  0  1.030656  0
H  H83  1  0.41596510  0.14828122  0.99469628  1  0.039409  0  0.095246  0.092228  0  1.030733  0
H  H84  1  0.96241702  0.24913577  0.41908788  1  0.095259  0  0.107366  0.111493  0  0.999287  0
H  H85  1  0.53758545  0.74913926  0.08091658  1  0.095759  0  0.107405  0.111477  0  0.999338  0
H  H86  1  0.03758629  0.75085906  0.58091540  1  0.095351  0  0.107375  0.11143  0  0.99928  0
H  H87  1  0.46241706  0.25086524  0.91908472  1  0.095405  0  0.10739  0.111502  0  0.999275  0
H  H88  1  0.11200136  0.96493857  0.24115307  1  0.179848  0  0.124916  0.105556  0  1.03246  0
H  H89  1  0.38799765  0.46493953  0.25884458  1  0.179793  0  0.124906  0.105523  0  1.032415  0
H  H90  1  0.88799793  0.03506422  0.75884608  1  0.179876  0  0.124906  0.10557  0  1.03241  0
H  H91  1  0.61199923  0.53506554  0.74115247  1  0.179847  0  0.124893  0.105528  0  1.0325  0
H  H92  1  0.15145269  0.95471814  0.12545989  1  0.066616  0  0.108971  0.116418  0  0.990212  0
H  H93  1  0.34854386  0.45471764  0.37453806  1  0.066551  0  0.108982  0.116421  0  0.990195  0
H  H94  1  0.84854419  0.04528294  0.87454055  1  0.066597  0  0.109006  0.116502  0  0.990108  0
H  H95  1  0.65145222  0.54528515  0.62545846  1  0.066582  0  0.108991  0.116466  0  0.990151  0
H  H96  1  0.89067006  0.11235127  0.07433003  1  0.061363  0  0.109893  0.117798  0  0.98547  0
H  H97  1  0.60933165  0.61234802  0.42567021  1  0.061392  0  0.109892  0.117815  0  0.985501  0
H  H98  1  0.10933004  0.88764868  0.92567450  1  0.061288  0  0.109851  0.117744  0  0.985468  0
H  H99  1  0.39067166  0.38764908  0.57432920  1  0.061358  0  0.109902  0.117835  0  0.985447  0
H  H100  1  0.86154652  0.11554227  0.19330137  1  0.176755  0  0.116266  0.09541  0  1.046903  0
H  H101  1  0.63845360  0.61554272  0.30669926  1  0.176737  0  0.116287  0.09544  0  1.04685  0
H  H102  1  0.13845438  0.88445768  0.80670273  1  0.176579  0  0.116297  0.095395  0  1.046925  0
H  H103  1  0.36154811  0.38445666  0.69330102  1  0.176758  0  0.116281  0.095425  0  1.046865  0
H  H104  1  0.03681072  0.08316125  0.99640423  1  0.052729  0  0.103919  0.109804  0  0.970406  0
H  H105  1  0.46318527  0.58316105  0.50359261  1  0.052773  0  0.103902  0.109757  0  0.970419  0
H  H106  1  0.96318536  0.91683983  0.00359713  1  0.052736  0  0.103944  0.109843  0  0.970446  0
H  H107  1  0.53681241  0.41683833  0.49640449  1  0.052724  0  0.103947  0.109831  0  0.970451  0
H  H108  1  0.12270533  0.00427437  0.01484833  1  0.015078  0  0.094255  0.089301  0  0.997523  0
H  H109  1  0.37729273  0.50427484  0.48515018  1  0.015056  0  0.094242  0.089255  0  0.997548  0
H  H110  1  0.87729236  0.99572387  0.98515459  1  0.015028  0  0.094229  0.089284  0  0.997506  0
H  H111  1  0.62270656  0.49572738  0.51484800  1  0.015047  0  0.094233  0.089322  0  0.99752  0
H  H112  1  0.86730861  0.63152058  0.27443680  1  0.183213  0  0.121851  0.10568  0  1.045153  0
H  H113  1  0.63268677  0.13152135  0.22556210  1  0.183233  0  0.121849  0.105607  0  1.045162  0
H  H114  1  0.13268506  0.36847709  0.72556246  1  0.183185  0  0.121885  0.105623  0  1.04516  0
H  H115  1  0.36730770  0.86847917  0.77443577  1  0.183196  0  0.121877  0.105688  0  1.045119  0
H  H116  1  0.82283877  0.58801842  0.38291594  1  0.070956  0  0.109366  0.116769  0  0.995641  0
H  H117  1  0.67715958  0.08802125  0.11708354  1  0.070971  0  0.109356  0.116723  0  0.995584  0
H  H118  1  0.17715650  0.41197868  0.61708537  1  0.070849  0  0.109339  0.116646  0  0.995619  0
H  H119  1  0.32283810  0.91198154  0.88291453  1  0.070956  0  0.109338  0.116727  0  0.995614  0
H  H120  1  0.14943305  0.50623867  0.42152904  1  0.062868  0  0.102939  0.105076  0  1.023646  0
H  H121  1  0.35056341  0.00624069  0.07846840  1  0.062868  0  0.10297  0.105123  0  1.023625  0
H  H122  1  0.85056303  0.49375786  0.57846747  1  0.062858  0  0.102973  0.105097  0  1.023601  0
H  H123  1  0.64943508  0.99375926  0.92153167  1  0.062865  0  0.102946  0.105085  0  1.023731  0
H  H124  1  0.17957332  0.55004278  0.30970400  1  0.137851  0  0.118016  0.090762  0  1.020393  0
H  H125  1  0.32042259  0.05004221  0.19029447  1  0.13781  0  0.118004  0.090766  0  1.020389  0
H  H126  1  0.82042116  0.44995717  0.69029289  1  0.137804  0  0.117999  0.090767  0  1.020389  0
H  H127  1  0.67957429  0.94995603  0.80970549  1  0.137849  0  0.117992  0.090735  0  1.020433  0
H  H128  1  0.93238264  0.57227485  0.50466205  1  0.049228  0  0.102597  0.10499  0  0.971561  0
H  H129  1  0.56761714  0.07227570  0.99533675  1  0.049209  0  0.102603  0.105001  0  0.971514  0
H  H130  1  0.06761665  0.42772395  0.49533758  1  0.04922  0  0.102602  0.105007  0  0.971525  0
H  H131  1  0.43237974  0.92772368  0.00466079  1  0.049212  0  0.102595  0.104987  0  0.97151  0
H  H132  1  0.88289622  0.48548573  0.47177407  1  0.058103  0  0.096983  0.094738  0  1.027282  0
H  H133  1  0.61710113  0.98548415  0.02822622  1  0.058108  0  0.096985  0.094747  0  1.027282  0
H  H134  1  0.11710227  0.51451421  0.52822600  1  0.058134  0  0.096971  0.094729  0  1.027352  0
H  H135  1  0.38289656  0.01451409  0.97177476  1  0.058081  0  0.096987  0.094743  0  1.027282  0
C  C136  1  0.82014498  0.90382359  0.30007818  1  0.405137  0  0.044823  0.098177  0  3.919159  0
C  C137  1  0.67986157  0.40382327  0.19992253  1  0.404919  0  0.044763  0.098191  0  3.919286  0
C  C138  1  0.17985834  0.09617806  0.69992268  1  0.405073  0  0.044831  0.098244  0  3.91923  0
C  C139  1  0.32013853  0.59618009  0.80007958  1  0.404658  0  0.044731  0.098116  0  3.919143  0
C  C140  1  0.72890769  0.85833537  0.29659859  1  -0.0153  0  -0.087535  -0.185437  0  3.91953  0
C  C141  1  0.77109619  0.35833529  0.20340087  1  -0.015131  0  -0.087464  -0.185413  0  3.919633  0
C  C142  1  0.27109483  0.14166571  0.70340173  1  -0.015276  0  -0.087486  -0.185472  0  3.919602  0
C  C143  1  0.22890149  0.64166693  0.79660204  1  -0.014726  0  -0.087453  -0.185323  0  3.919585  0
C  C144  1  0.63300061  0.88765241  0.31558552  1  0.019242  0  0.013822  0.170055  0  3.943327  0
C  C145  1  0.86700584  0.38765593  0.18441515  1  0.019493  0  0.013832  0.17006  0  3.943421  0
C  C146  1  0.36700351  0.11234640  0.68441491  1  0.019704  0  0.013773  0.170026  0  3.943438  0
C  C147  1  0.13299184  0.61234686  0.81558776  1  0.018823  0  0.013902  0.170158  0  3.943331  0
C  C148  1  0.63411277  0.96293479  0.33809389  1  -0.056072  0  -0.087365  -0.188284  0  3.918918  0
C  C149  1  0.86589330  0.46293710  0.16191031  1  -0.056216  0  -0.087227  -0.188035  0  3.918989  0
C  C150  1  0.36588974  0.03706515  0.66190741  1  -0.056053  0  -0.087251  -0.188029  0  3.918985  0
C  C151  1  0.13410519  0.53706284  0.83809169  1  -0.056184  0  -0.08722  -0.187986  0  3.918906  0
C  C152  1  0.72816556  0.00522705  0.34035780  1  0.452364  0  0.047796  0.104596  0  3.935837  0
C  C153  1  0.77184198  0.50522910  0.15964646  1  0.4523  0  0.047604  0.104339  0  3.935723  0
C  C154  1  0.27183856  0.99477290  0.65964409  1  0.452339  0  0.047674  0.104387  0  3.935686  0
C  C155  1  0.22815812  0.49477255  0.84035467  1  0.452268  0  0.047581  0.104245  0  3.935664  0
C  C156  1  0.53204577  0.84069414  0.30907211  1  -0.007646  0  -0.150697  -0.186327  0  3.910079  0
C  C157  1  0.96795641  0.34069566  0.19092672  1  -0.00798  0  -0.150692  -0.186314  0  3.910193  0
C  C158  1  0.46795755  0.15930297  0.69092778  1  -0.00785  0  -0.150706  -0.186405  0  3.9102  0
C  C159  1  0.03203887  0.65930258  0.80907410  1  -0.007759  0  -0.150761  -0.186484  0  3.9102  0
C  C160  1  0.46574538  0.85498600  0.24234774  1  0.000428  0  -0.15579  -0.192345  0  3.917827  0
C  C161  1  0.03425544  0.35498604  0.25765124  1  0.000445  0  -0.155766  -0.192268  0  3.917748  0
C  C162  1  0.53425874  0.14500996  0.75765124  1  0.000176  0  -0.15586  -0.192383  0  3.917827  0
C  C163  1  0.96574225  0.64500992  0.74234974  1  0.000237  0  -0.155855  -0.19236  0  3.9178  0
C  C164  1  0.36899271  0.80394689  0.23307381  1  -0.095428  0  0.011583  0.166955  0  3.952552  0
C  C165  1  0.13100863  0.30394891  0.26692655  1  -0.09546  0  0.011551  0.166855  0  3.952727  0
C  C166  1  0.63100900  0.19604908  0.76692647  1  -0.0959  0  0.011562  0.166953  0  3.952562  0
C  C167  1  0.86899227  0.69604876  0.73307174  1  -0.095587  0  0.0116  0.166936  0  3.952636  0
C  C168  1  0.37415586  0.73210558  0.20413874  1  -0.017833  0  -0.093131  -0.196755  0  3.937943  0
C  C169  1  0.12584266  0.23210540  0.29585933  1  -0.017433  0  -0.093117  -0.19681  0  3.937964  0
C  C170  1  0.62584424  0.26789152  0.79586046  1  -0.017731  0  -0.093131  -0.19679  0  3.938003  0
C  C171  1  0.87415502  0.76789113  0.70413826  1  -0.017632  0  -0.093162  -0.196868  0  3.938045  0
C  C172  1  0.28367141  0.68586442  0.19736089  1  0.416172  0  0.041933  0.094782  0  3.937265  0
C  C173  1  0.21632767  0.18586564  0.30263712  1  0.415788  0  0.04197  0.094937  0  3.937142  0
C  C174  1  0.71633030  0.31413495  0.80263939  1  0.416176  0  0.041926  0.094757  0  3.937301  0
C  C175  1  0.78367002  0.81413431  0.69735950  1  0.416178  0  0.041997  0.094985  0  3.937071  0
C  C176  1  0.18372348  0.77631966  0.24700565  1  0.405644  0  0.043184  0.091228  0  3.918395  0
C  C177  1  0.31627931  0.27631927  0.25299571  1  0.405901  0  0.04323  0.091208  0  3.918415  0
C  C178  1  0.81627582  0.22368086  0.75299447  1  0.406018  0  0.043205  0.091133  0  3.918399  0
C  C179  1  0.68372400  0.72368125  0.74700370  1  0.406118  0  0.043194  0.091205  0  3.918385  0
C  C180  1  0.27123446  0.82539795  0.25503230  1  0.005371  0  -0.087986  -0.1843  0  3.914682  0
C  C181  1  0.22876619  0.32539788  0.24496757  1  0.00528  0  -0.087978  -0.184246  0  3.914868  0
C  C182  1  0.72876564  0.17460086  0.74496351  1  0.005743  0  -0.087987  -0.184251  0  3.914662  0
C  C183  1  0.77123471  0.67460206  0.75503556  1  0.005332  0  -0.087977  -0.184233  0  3.914573  0
C  C184  1  0.21773585  0.93247989  0.41355370  1  -0.020039  0  -0.007386  -0.024919  0  3.939498  0
C  C185  1  0.28226700  0.43248289  0.08644558  1  -0.020043  0  -0.007426  -0.024883  0  3.939486  0
C  C186  1  0.78226827  0.06751779  0.58644576  1  -0.020096  0  -0.007408  -0.024917  0  3.939618  0
C  C187  1  0.71773390  0.56752047  0.91355270  1  -0.020129  0  -0.007259  -0.024809  0  3.939397  0
C  C188  1  0.32035759  0.96251367  0.40732659  1  3e-05  0  -0.02103  -0.067871  0  3.964388  0
C  C189  1  0.17964463  0.46251586  0.09267320  1  2.6e-05  0  -0.021066  -0.067987  0  3.964531  0
C  C190  1  0.67964814  0.03748343  0.59267394  1  6.2e-05  0  -0.02112  -0.068065  0  3.964456  0
C  C191  1  0.82035547  0.53748579  0.90732649  1  1.5e-05  0  -0.021131  -0.068144  0  3.964578  0
C  C192  1  0.40697792  0.94264078  0.45308518  1  -0.121205  0  -0.091975  -0.104435  0  4.001088  0
C  C193  1  0.09302660  0.44264318  0.04691472  1  -0.121176  0  -0.091862  -0.104312  0  4.00093  0
C  C194  1  0.59302781  0.05735575  0.54691584  1  -0.121162  0  -0.09185  -0.104303  0  4.000734  0
C  C195  1  0.90697189  0.55735847  0.95308486  1  -0.121242  0  -0.091856  -0.104283  0  4.000875  0
C  C196  1  0.39302367  0.89343643  0.50435867  1  -0.096659  0  -0.097943  -0.092594  0  4.011538  0
C  C197  1  0.10697806  0.39343965  0.99563875  1  -0.096237  0  -0.097949  -0.092474  0  4.011282  0
C  C198  1  0.60698286  0.10656011  0.49563949  1  -0.096669  0  -0.097964  -0.092562  0  4.011479  0
C  C199  1  0.89302204  0.60656200  0.00436094  1  -0.09656  0  -0.09795  -0.092516  0  4.011411  0
C  C200  1  0.29115377  0.86335430  0.51000773  1  0.018725  0  -0.095684  -0.076701  0  4.0219  0
C  C201  1  0.20885182  0.36336061  0.98999230  1  0.018879  0  -0.095771  -0.076796  0  4.022085  0
C  C202  1  0.70885196  0.13663996  0.48999329  1  0.019245  0  -0.095667  -0.076643  0  4.021909  0
C  C203  1  0.79114988  0.63664332  0.01000652  1  0.018792  0  -0.09573  -0.076747  0  4.022013  0
C  C204  1  0.20434284  0.88254762  0.46486345  1  -0.034013  0  -0.090081  -0.110617  0  3.979289  0
C  C205  1  0.29565894  0.38255050  0.03513565  1  -0.03433  0  -0.090016  -0.110627  0  3.979419  0
C  C206  1  0.79566289  0.11744778  0.53513805  1  -0.034397  0  -0.090063  -0.110619  0  3.979311  0
C  C207  1  0.70434116  0.61745399  0.96486113  1  -0.03409  0  -0.090127  -0.110611  0  3.979206  0
C  C208  1  0.11988043  0.95448588  0.36888914  1  1.577451  0  0.201333  0.571413  0  4.238335  0
C  C209  1  0.38012094  0.45448984  0.13111009  1  1.577505  0  0.201268  0.57142  0  4.238251  0
C  C210  1  0.88012208  0.04551009  0.63111070  1  1.578338  0  0.201318  0.571381  0  4.238279  0
C  C211  1  0.61988077  0.54551238  0.86889115  1  1.577461  0  0.20126  0.571433  0  4.238333  0
C  C212  1  0.33964264  0.01405304  0.35203865  1  1.559408  0  0.202394  0.567257  0  4.223213  0
C  C213  1  0.16035709  0.51405591  0.14796096  1  1.559209  0  0.202427  0.567222  0  4.223341  0
C  C214  1  0.66035988  0.98594293  0.64796168  1  1.55918  0  0.20249  0.567445  0  4.223195  0
C  C215  1  0.83964140  0.48594575  0.85203910  1  1.559287  0  0.202479  0.56742  0  4.223091  0
C  C216  1  0.80655392  0.24784913  0.36442784  1  -0.019657  0  -0.013803  -0.063602  0  3.951057  0
C  C217  1  0.69344934  0.74785091  0.13557231  1  -0.019679  0  -0.013836  -0.063738  0  3.9511  0
C  C218  1  0.19344859  0.75214797  0.63557103  1  -0.0197  0  -0.013828  -0.063667  0  3.951146  0
C  C219  1  0.30654995  0.25215131  0.86442877  1  -0.019609  0  -0.013873  -0.063734  0  3.951144  0
C  C220  1  0.70201644  0.27836205  0.35790620  1  -0.035783  0  0.001726  -0.014521  0  3.919058  0
C  C221  1  0.79798780  0.77836298  0.14209215  1  -0.036801  0  0.001735  -0.014558  0  3.91901  0
C  C222  1  0.29798688  0.72163789  0.64209273  1  -0.036015  0  0.001686  -0.014605  0  3.919109  0
C  C223  1  0.20201390  0.22164151  0.85790909  1  -0.036895  0  0.001728  -0.014496  0  3.918947  0
C  C224  1  0.67790814  0.33869840  0.39815907  1  -0.058102  0  -0.091819  -0.11535  0  3.987619  0
C  C225  1  0.82209162  0.83869984  0.10183572  1  -0.057316  0  -0.091814  -0.11533  0  3.987598  0
C  C226  1  0.32208955  0.66130041  0.60183852  1  -0.05813  0  -0.091878  -0.115384  0  3.987622  0
C  C227  1  0.17791009  0.16130352  0.89816406  1  -0.057318  0  -0.091821  -0.115437  0  3.987477  0
C  C228  1  0.75463934  0.36548678  0.44676029  1  -0.117493  0  -0.099104  -0.087109  0  4.056717  0
C  C229  1  0.74535734  0.86548731  0.05323921  1  -0.117491  0  -0.098988  -0.08694  0  4.056813  0
C  C230  1  0.24535513  0.63451260  0.55324048  1  -0.117565  0  -0.098963  -0.0869  0  4.056772  0
C  C231  1  0.25464678  0.13451662  0.94675977  1  -0.117461  0  -0.099031  -0.086925  0  4.056983  0
C  C232  1  0.85723893  0.33323257  0.45499911  1  0.02948  0  -0.099609  -0.09455  0  4.03606  0
C  C233  1  0.64275516  0.83323394  0.04500160  1  0.029658  0  -0.099677  -0.094619  0  4.036002  0
C  C234  1  0.14275876  0.66676510  0.54499994  1  0.029506  0  -0.099743  -0.094733  0  4.036012  0
C  C235  1  0.35724252  0.16677055  0.95499986  1  0.029334  0  -0.099625  -0.094553  0  4.03612  0
C  C236  1  0.88323848  0.27560712  0.41329000  1  -0.049467  0  -0.084049  -0.092896  0  3.986368  0
C  C237  1  0.61676736  0.77560628  0.08670942  1  -0.050338  0  -0.084084  -0.092856  0  3.986559  0
C  C238  1  0.11676806  0.72439283  0.58671253  1  -0.049751  0  -0.084026  -0.092757  0  3.986413  0
C  C239  1  0.38323757  0.22439879  0.91328767  1  -0.049718  0  -0.084087  -0.092917  0  3.986416  0
C  C240  1  0.83655289  0.18388462  0.32159182  1  1.574269  0  0.204917  0.558238  0  4.248413  0
C  C241  1  0.66344761  0.68388645  0.17841043  1  1.57411  0  0.204912  0.558227  0  4.248255  0
C  C242  1  0.16344399  0.81611249  0.67840911  1  1.574272  0  0.204973  0.558305  0  4.248447  0
C  C243  1  0.33655491  0.31611691  0.82159086  1  1.57406  0  0.204859  0.558246  0  4.248308  0
C  C244  1  0.60925354  0.24294110  0.31570331  1  1.612339  0  0.202642  0.562225  0  4.261591  0
C  C245  1  0.89074809  0.74294126  0.18429334  1  1.612479  0  0.202501  0.562074  0  4.261908  0
C  C246  1  0.39074495  0.75706169  0.68429482  1  1.612477  0  0.20257  0.562029  0  4.26179  0
C  C247  1  0.10925201  0.25706267  0.81570586  1  1.612237  0  0.202625  0.562123  0  4.261833  0
C  C248  1  0.06464966  0.99603043  0.20243837  1  0.455656  0  0.061848  0.120606  0  3.893654  0
C  C249  1  0.43534873  0.49603049  0.29756125  1  0.455666  0  0.061935  0.120692  0  3.893575  0
C  C250  1  0.93535285  0.00397464  0.79756341  1  0.4557  0  0.06189  0.120609  0  3.893666  0
C  C251  1  0.56464735  0.50397230  0.70243721  1  0.455798  0  0.061851  0.120641  0  3.89363  0
C  C252  1  0.08583478  0.99109991  0.13775440  1  -0.009543  0  -0.08359  -0.188339  0  3.937928  0
C  C253  1  0.41416518  0.49109783  0.36224434  1  -0.009529  0  -0.083686  -0.188444  0  3.937951  0
C  C254  1  0.91416532  0.00890231  0.86224577  1  -0.009636  0  -0.083702  -0.188581  0  3.938103  0
C  C255  1  0.58583250  0.50890325  0.63775228  1  -0.009548  0  -0.083643  -0.188435  0  3.937946  0
C  C256  1  0.02335680  0.03233471  0.08961875  1  -0.027978  0  0.011482  0.163684  0  3.96641  0
C  C257  1  0.47664142  0.53233293  0.41038080  1  -0.02775  0  0.011455  0.16364  0  3.966498  0
C  C258  1  0.97663928  0.96766808  0.91038212  1  -0.027855  0  0.011489  0.163747  0  3.966335  0
C  C259  1  0.52335627  0.46766759  0.58961630  1  -0.027976  0  0.011542  0.163663  0  3.966518  0
C  C260  1  0.94096163  0.07793036  0.10956509  1  -0.054142  0  -0.088232  -0.194195  0  3.958197  0
C  C261  1  0.55903909  0.57792801  0.39043500  1  -0.054157  0  -0.088258  -0.194243  0  3.95807  0
C  C262  1  0.05903767  0.92206959  0.89043841  1  -0.054028  0  -0.088228  -0.194161  0  3.958022  0
C  C263  1  0.44096101  0.42207137  0.60956420  1  -0.054123  0  -0.088274  -0.194267  0  3.958161  0
C  C264  1  0.92380153  0.08024723  0.17492185  1  0.447653  0  0.047188  0.088723  0  3.944274  0
C  C265  1  0.57619919  0.58024815  0.32507728  1  0.447653  0  0.047221  0.088702  0  3.943986  0
C  C266  1  0.07619776  0.91975214  0.82508117  1  0.447905  0  0.047219  0.088776  0  3.944069  0
C  C267  1  0.42380010  0.41975294  0.67492089  1  0.447657  0  0.047175  0.088741  0  3.944123  0
C  C268  1  0.04154565  0.02644424  0.01904379  1  0.028615  0  -0.149929  -0.193727  0  3.937745  0
C  C269  1  0.45845334  0.52644320  0.48095435  1  0.028412  0  -0.149881  -0.193545  0  3.937656  0
C  C270  1  0.95845284  0.97355627  0.98095821  1  0.009721  0  -0.149932  -0.193805  0  3.937704  0
C  C271  1  0.54154515  0.47355675  0.51904184  1  0.009916  0  -0.149937  -0.193823  0  3.937806  0
C  C272  1  0.92754159  0.60329260  0.30842826  1  0.451734  0  0.058403  0.109929  0  3.899707  0
C  C273  1  0.57245444  0.10329197  0.19157159  1  0.451525  0  0.058289  0.109821  0  3.899671  0
C  C274  1  0.07245288  0.39670621  0.69157348  1  0.451581  0  0.058207  0.109672  0  3.899736  0
C  C275  1  0.42754325  0.89670854  0.80842697  1  0.451526  0  0.058267  0.10975  0  3.899629  0
C  C276  1  0.90372501  0.57914369  0.36919859  1  0.012007  0  -0.080983  -0.174201  0  3.918399  0
C  C277  1  0.59627330  0.07914521  0.13080087  1  0.012215  0  -0.080961  -0.174109  0  3.918122  0
C  C278  1  0.09626946  0.42085114  0.63080170  1  0.012342  0  -0.080904  -0.173871  0  3.918086  0
C  C279  1  0.40372439  0.92085701  0.86919769  1  0.012241  0  -0.080956  -0.174113  0  3.918167  0
C  C280  1  0.98290397  0.54430599  0.41250732  1  -0.051562  0  0.015916  0.169576  0  3.939719  0
C  C281  1  0.51709414  0.04430718  0.08749254  1  -0.051809  0  0.015891  0.169579  0  3.939644  0
C  C282  1  0.01709371  0.45568941  0.58749269  1  -0.051989  0  0.015893  0.169537  0  3.939661  0
C  C283  1  0.48290596  0.95569277  0.91250666  1  -0.051707  0  0.015931  0.169577  0  3.939661  0
C  C284  1  0.08420826  0.53373874  0.39093762  1  0.035083  0  -0.088999  -0.190705  0  3.952444  0
C  C285  1  0.41578916  0.03374102  0.10905994  1  0.035254  0  -0.089075  -0.190859  0  3.952556  0
C  C286  1  0.91578782  0.46625723  0.60905986  1  0.035534  0  -0.089082  -0.190809  0  3.95253  0
C  C287  1  0.58421335  0.96625950  0.89093942  1  0.035226  0  -0.089094  -0.190877  0  3.952661  0
C  C288  1  0.10269485  0.55852570  0.32912863  1  0.41  0  0.052439  0.100108  0  3.948823  0
C  C289  1  0.39730030  0.05852584  0.17086885  1  0.409935  0  0.052519  0.100136  0  3.948859  0
C  C290  1  0.89729962  0.44147368  0.67086827  1  0.409825  0  0.052545  0.100145  0  3.948891  0
C  C291  1  0.60269739  0.94147411  0.82913068  1  0.409906  0  0.052486  0.100213  0  3.948838  0
C  C292  1  0.95577589  0.52088215  0.47896012  1  -0.058567  0  -0.157141  -0.209795  0  3.986777  0
C  C293  1  0.54422451  0.02088321  0.02103983  1  -0.033316  0  -0.157132  -0.209811  0  3.98665  0
C  C294  1  0.04422340  0.47911609  0.52104048  1  -0.033293  0  -0.157104  -0.209852  0  3.986796  0
C  C295  1  0.45577720  0.97911788  0.97895996  1  -0.058463  0  -0.157129  -0.20982  0  3.986696  0
N  N296  1  0.81988309  0.97647754  0.32134281  1  -1.273353  0  -0.336225  -0.247143  0  3.599041  0
N  N297  1  0.68012225  0.47647885  0.17866089  1  -1.273204  0  -0.336205  -0.247115  0  3.598734  0
N  N298  1  0.18012023  0.02352184  0.67866193  1  -1.273344  0  -0.33627  -0.247191  0  3.598889  0
N  N299  1  0.31987865  0.52352451  0.82133933  1  -1.273222  0  -0.336207  -0.24704  0  3.598703  0
N  N300  1  0.18935139  0.70760267  0.21802351  1  -1.272789  0  -0.337578  -0.248648  0  3.598785  0
N  N301  1  0.31064700  0.20760236  0.28197693  1  -1.27278  0  -0.337634  -0.24862  0  3.598743  0
N  N302  1  0.81064791  0.29239670  0.78197516  1  -1.272821  0  -0.337624  -0.248603  0  3.598814  0
N  N303  1  0.68934988  0.79239702  0.71802303  1  -1.272927  0  -0.337659  -0.248725  0  3.598764  0
N  N304  1  0.98452891  0.03964197  0.22061484  1  -1.258681  0  -0.320905  -0.226834  0  3.546017  0
N  N305  1  0.51547079  0.53964145  0.27938511  1  -1.258474  0  -0.320904  -0.226752  0  3.545987  0
N  N306  1  0.01547280  0.96036026  0.77938737  1  -1.258413  0  -0.320907  -0.226779  0  3.545927  0
N  N307  1  0.48452690  0.46036134  0.72061345  1  -1.258533  0  -0.32089  -0.226786  0  3.546036  0
N  N308  1  0.02612240  0.59325308  0.28889438  1  -1.248831  0  -0.327789  -0.230024  0  3.580378  0
N  N309  1  0.47387294  0.09325298  0.21110463  1  -1.248724  0  -0.32768  -0.229802  0  3.580373  0
N  N310  1  0.97387126  0.40674516  0.71110488  1  -1.248778  0  -0.327739  -0.229848  0  3.580433  0
N  N311  1  0.52612475  0.90674697  0.78889441  1  -1.248798  0  -0.327661  -0.229848  0  3.580307  0
O  O312  1  0.09064149  0.02524265  0.37179654  1  -1.150591  0  -0.341192  -0.54544  0  2.264756  0
O  O313  1  0.40936393  0.52524496  0.12820250  1  -1.150878  0  -0.341177  -0.545477  0  2.264809  0
O  O314  1  0.90936504  0.97475445  0.62820502  1  -1.150872  0  -0.341226  -0.545494  0  2.264822  0
O  O315  1  0.59064019  0.47475612  0.87179696  1  -1.150759  0  -0.341196  -0.545481  0  2.264773  0
O  O316  1  0.06960709  0.90522391  0.33404607  1  -1.176321  0  -0.316177  -0.549027  0  2.140472  0
O  O317  1  0.43039481  0.40522469  0.16595357  1  -1.176316  0  -0.316137  -0.549018  0  2.140299  0
O  O318  1  0.93039542  0.09477263  0.66595474  1  -1.177144  0  -0.316159  -0.548989  0  2.140386  0
O  O319  1  0.56960690  0.59477639  0.83404573  1  -1.176318  0  -0.316178  -0.549066  0  2.140344  0
O  O320  1  0.28868428  0.00582012  0.29662811  1  -1.192762  0  -0.32219  -0.57176  0  2.177057  0
O  O321  1  0.21131380  0.50581873  0.20337186  1  -1.192662  0  -0.322257  -0.571801  0  2.17702  0
O  O322  1  0.71131422  0.99417983  0.70337292  1  -1.192688  0  -0.322214  -0.571795  0  2.176956  0
O  O323  1  0.78868872  0.49418235  0.79662750  1  -1.192655  0  -0.322242  -0.571761  0  2.176891  0
O  O324  1  0.41324870  0.06540206  0.36615433  1  -1.181484  0  -0.332922  -0.548583  0  2.342533  0
O  O325  1  0.08675131  0.56540470  0.13384638  1  -1.181428  0  -0.332872  -0.548454  0  2.342594  0
O  O326  1  0.58674899  0.93459789  0.63384519  1  -1.181381  0  -0.332921  -0.548605  0  2.342516  0
O  O327  1  0.91325040  0.43459980  0.86615486  1  -1.181467  0  -0.33293  -0.548634  0  2.342494  0
O  O328  1  0.91599366  0.14278004  0.34715840  1  -1.180291  0  -0.331109  -0.547145  0  2.354705  0
O  O329  1  0.58400500  0.64278330  0.15284558  1  -1.180175  0  -0.331072  -0.547046  0  2.354582  0
O  O330  1  0.08400242  0.85721820  0.65284538  1  -1.180256  0  -0.33106  -0.547094  0  2.354656  0
O  O331  1  0.41599751  0.35722177  0.84715378  1  -1.180309  0  -0.331038  -0.547026  0  2.354796  0
O  O332  1  0.78684323  0.17483052  0.26603634  1  -1.185513  0  -0.313749  -0.549295  0  2.189336  0
O  O333  1  0.71316284  0.67483151  0.23396675  1  -1.185451  0  -0.313761  -0.549318  0  2.189336  0
O  O334  1  0.21315767  0.82516658  0.73396340  1  -1.1855  0  -0.313813  -0.549356  0  2.189561  0
O  O335  1  0.28684047  0.32517014  0.76603654  1  -1.185311  0  -0.313704  -0.549317  0  2.189334  0
O  O336  1  0.57907638  0.17854612  0.33875031  1  -1.165492  0  -0.330722  -0.540985  0  2.308177  0
O  O337  1  0.92092811  0.67854856  0.16124299  1  -1.16552  0  -0.330635  -0.540866  0  2.308235  0
O  O338  1  0.42092212  0.82145553  0.66124539  1  -1.165559  0  -0.330617  -0.540835  0  2.308373  0
O  O339  1  0.07907440  0.32145821  0.83875540  1  -1.165476  0  -0.330647  -0.540898  0  2.308171  0
O  O340  1  0.56360713  0.27674214  0.26754053  1  -1.169027  0  -0.303895  -0.525634  0  2.167066  0
O  O341  1  0.93638986  0.77674142  0.23245830  1  -1.168933  0  -0.30381  -0.525531  0  2.167161  0
O  O342  1  0.43639136  0.72325838  0.73245953  1  -1.168912  0  -0.303872  -0.52554  0  2.166935  0
O  O343  1  0.06361104  0.22326194  0.76754192  1  -1.168826  0  -0.30389  -0.525563  0  2.167249  0
