# generated using pymatgen
data_Zn4H11C24S4N4ClO13
_symmetry_space_group_name_H-M   'P 1'
_cell_length_a   19.67256653
_cell_length_b   19.66644638
_cell_length_c   33.37933166
_cell_angle_alpha   79.22657791
_cell_angle_beta   79.19848662
_cell_angle_gamma   63.93502821
_symmetry_Int_Tables_number   1
_chemical_formula_structural   Zn4H11C24S4N4ClO13
_chemical_formula_sum   'Zn16 H44 C96 S16 N16 Cl4 O52'
_cell_volume   11314.84382421
_cell_formula_units_Z   4
loop_
 _symmetry_equiv_pos_site_id
 _symmetry_equiv_pos_as_xyz
  1  'x, y, z'
loop_
 _atom_site_type_symbol
 _atom_site_label
 _atom_site_symmetry_multiplicity
 _atom_site_fract_x
 _atom_site_fract_y
 _atom_site_fract_z
 _atom_site_occupancy
 _atom_site_pbe_bader_charge
 _atom_site_pbe_bader_spin_density
 _atom_site_pbe_cm5_charge
 _atom_site_pbe_ddec_charge
 _atom_site_pbe_ddec_spin_density
 _atom_site_pbe_ddec_sum_bond_order
 _atom_site_pbe_magmom
Zn  Zn0  1  0.05489048  0.40021807  0.47806362  1  1.323076  0  0.672927  0.975973  0  2.353603  0
Zn  Zn1  1  0.98434701  0.48332548  0.56062474  1  1.295498  0  0.662527  0.950141  0  2.372704  0
Zn  Zn2  1  0.05931577  0.55957572  0.48202174  1  1.319596  0  0.668736  0.959712  0  2.401546  0
Zn  Zn3  1  0.90150390  0.55652702  0.47975461  1  1.31775  0  0.668688  0.958834  0  2.402691  0
Zn  Zn4  1  0.69337123  0.34909265  0.27177996  1  1.321327  0  0.67277  0.971301  0  2.376112  0
Zn  Zn5  1  0.68957122  0.18917538  0.26651232  1  1.310321  0  0.66754  0.962397  0  2.364385  0
Zn  Zn6  1  0.76839356  0.26757005  0.19077233  1  1.310848  0  0.668462  0.958899  0  2.399653  0
Zn  Zn7  1  0.84825874  0.19448939  0.27192604  1  1.315123  0  0.662333  0.945501  0  2.391468  0
Zn  Zn8  1  0.26702795  0.76672780  0.69046461  1  1.307246  0  0.662391  0.945628  0  2.395768  0
Zn  Zn9  1  0.34886480  0.69554781  0.77217873  1  1.317499  0  0.66786  0.962381  0  2.363645  0
Zn  Zn10  1  0.19215433  0.84886867  0.77100851  1  1.323439  0  0.67419  0.973393  0  2.390003  0
Zn  Zn11  1  0.19014765  0.68910242  0.76746454  1  1.312757  0  0.666504  0.957245  0  2.384923  0
Zn  Zn12  1  0.55972234  0.05986767  0.98313123  1  1.319006  0  0.667606  0.957981  0  2.385418  0
Zn  Zn13  1  0.40195439  0.05498469  0.97872268  1  1.304208  0  0.66267  0.945448  0  2.394992  0
Zn  Zn14  1  0.55622387  0.90016645  0.97865772  1  1.322556  0  0.672549  0.970281  0  2.373614  0
Zn  Zn15  1  0.48276209  0.98273907  0.06039967  1  1.307443  0  0.666961  0.957207  0  2.385838  0
H  H16  1  0.95545044  0.24920847  0.35184194  1  0.105909  0  0.107961  0.113693  0  0.994694  0
H  H17  1  0.74692453  0.45302956  0.34961067  1  0.124073  0  0.111788  0.131254  0  0.994555  0
H  H18  1  0.99855976  0.30169882  0.40014472  1  0.140805  0  0.111916  0.120077  0  0.991694  0
H  H19  1  0.09649308  0.59644736  0.69992679  1  0.074996  0  0.109047  0.115515  0  0.994378  0
H  H20  1  0.20236805  0.70073190  0.59893211  1  0.087258  0  0.108497  0.126523  0  1.000454  0
H  H21  1  0.05052183  0.55065469  0.64965283  1  0.08998  0  0.108618  0.115223  0  0.997536  0
H  H22  1  0.55013068  0.05018976  0.15385538  1  0.066927  0  0.108733  0.114581  0  0.994811  0
H  H23  1  0.64999749  0.15207242  0.04864008  1  0.148757  0  0.110259  0.128977  0  0.99643  0
H  H24  1  0.60098369  0.10000891  0.19963846  1  0.073355  0  0.109643  0.11639  0  0.995031  0
H  H25  1  0.50138412  0.79482674  0.89802888  1  0.091775  0  0.11177  0.118876  0  0.988292  0
H  H26  1  0.29751413  0.00337273  0.89993218  1  0.129465  0  0.107244  0.12492  0  1.002754  0
H  H27  1  0.44892121  0.75133215  0.84991127  1  0.13082  0  0.110576  0.117708  0  0.993282  0
H  H28  1  0.31516739  0.55466816  0.39552502  1  0.451065  0  0.31544  0.311305  0  0.932258  0
H  H29  1  0.23361780  0.55209256  0.42612929  1  0.504864  0  0.30743  0.320375  0  0.95799  0
H  H30  1  0.42535919  0.20276601  0.34488688  1  0.446286  0  0.314588  0.3103  0  0.934324  0
H  H31  1  0.51396231  0.19942327  0.32171531  1  0.491739  0  0.307161  0.320509  0  0.957517  0
H  H32  1  0.76520752  0.52327363  0.68560387  1  0.453961  0  0.313402  0.308537  0  0.935339  0
H  H33  1  0.83485499  0.51692778  0.64375138  1  0.493772  0  0.304747  0.316361  0  0.962342  0
H  H34  1  0.48438908  0.70333835  0.56460780  1  0.456828  0  0.314247  0.310019  0  0.933229  0
H  H35  1  0.41518475  0.72732495  0.60696997  1  0.492565  0  0.304837  0.316608  0  0.961774  0
H  H36  1  0.04682499  0.26574670  0.68568790  1  0.44674  0  0.312396  0.307778  0  0.935683  0
H  H37  1  0.02273461  0.33473484  0.64331356  1  0.495743  0  0.303086  0.314651  0  0.965467  0
H  H38  1  0.22561023  0.98481008  0.56457326  1  0.458299  0  0.315003  0.310411  0  0.933998  0
H  H39  1  0.23304344  0.91489736  0.60648511  1  0.493789  0  0.3056  0.317204  0  0.961571  0
H  H40  1  0.74373627  0.80379053  0.38480633  1  0.46017  0  0.314629  0.309995  0  0.933146  0
H  H41  1  0.79572167  0.72528452  0.41790080  1  0.502719  0  0.307238  0.320312  0  0.958446  0
H  H42  1  0.01513643  0.93471807  0.35498511  1  0.447114  0  0.313937  0.308963  0  0.934876  0
H  H43  1  0.95592395  0.02178834  0.33022748  1  0.488908  0  0.305364  0.316568  0  0.963576  0
H  H44  1  0.72386321  0.48453433  0.06481306  1  0.460322  0  0.315804  0.312022  0  0.931881  0
H  H45  1  0.73300544  0.41448891  0.10695928  1  0.521049  0  0.307757  0.320904  0  0.95839  0
H  H46  1  0.54404402  0.76608986  0.18596934  1  0.461033  0  0.315015  0.310818  0  0.934043  0
H  H47  1  0.52107087  0.83530190  0.14337763  1  0.495174  0  0.307475  0.320288  0  0.957872  0
H  H48  1  0.14566541  0.08645672  0.22610287  1  0.44035  0  0.313063  0.308439  0  0.933983  0
H  H49  1  0.04754483  0.11791135  0.23927485  1  0.493994  0  0.303866  0.314632  0  0.965024  0
H  H50  1  0.10426444  0.18463489  0.02501254  1  0.44695  0  0.315071  0.310826  0  0.932914  0
H  H51  1  0.20233873  0.13678193  0.01102629  1  0.49536  0  0.306357  0.318018  0  0.961341  0
H  H52  1  0.51588506  0.43503503  0.85526335  1  0.447754  0  0.315134  0.310605  0  0.933587  0
H  H53  1  0.45692857  0.52162540  0.82989588  1  0.493053  0  0.308264  0.321093  0  0.956548  0
H  H54  1  0.24520403  0.30334185  0.88401249  1  0.456331  0  0.313086  0.308998  0  0.934199  0
H  H55  1  0.29670762  0.22527296  0.91729732  1  0.490356  0  0.304445  0.315815  0  0.963076  0
H  H56  1  0.92442030  0.70289535  0.84505763  1  0.447828  0  0.314712  0.310014  0  0.935693  0
H  H57  1  0.01321457  0.69909705  0.82202369  1  0.501054  0  0.306783  0.319387  0  0.959496  0
H  H58  1  0.81568970  0.05508519  0.89523694  1  0.454118  0  0.315911  0.312126  0  0.931647  0
H  H59  1  0.73394832  0.05287832  0.92576489  1  0.510073  0  0.308507  0.32144  0  0.955777  0
C  C60  1  0.06020598  0.31561516  0.56245462  1  1.500588  0  0.204736  0.614973  0  4.222492  0
C  C61  1  0.06907067  0.56965619  0.56910316  1  1.575398  0  0.227344  0.618331  0  4.157058  0
C  C62  1  0.18488253  0.43843248  0.43856319  1  1.497909  0  0.204172  0.613941  0  4.220949  0
C  C63  1  0.93723919  0.68507232  0.43831706  1  1.527243  0  0.203792  0.611269  0  4.228079  0
C  C64  1  0.92978312  0.43231773  0.43080293  1  1.576747  0  0.226724  0.615595  0  4.161802  0
C  C65  1  0.81604279  0.56234509  0.56306736  1  1.488771  0  0.204097  0.612577  0  4.223182  0
C  C66  1  0.56502098  0.31031356  0.31198065  1  1.505324  0  0.204814  0.615175  0  4.222112  0
C  C67  1  0.68217480  0.18010634  0.18072534  1  1.575819  0  0.226934  0.616395  0  4.158158  0
C  C68  1  0.68838229  0.43450000  0.18807223  1  1.510698  0  0.203682  0.611432  0  4.224441  0
C  C69  1  0.93618670  0.18786597  0.18937189  1  1.494885  0  0.204405  0.613256  0  4.223596  0
C  C70  1  0.82070970  0.31868737  0.31890229  1  1.58049  0  0.229451  0.606  0  4.159424  0
C  C71  1  0.81238500  0.06495302  0.31189460  1  1.486764  0  0.204291  0.614028  0  4.219723  0
C  C72  1  0.43429444  0.68946844  0.68797221  1  1.49735  0  0.204162  0.614324  0  4.220634  0
C  C73  1  0.31846860  0.82007323  0.81900991  1  1.5827  0  0.22855  0.619013  0  4.155756  0
C  C74  1  0.18715978  0.93406160  0.68739258  1  1.490559  0  0.204081  0.612749  0  4.223733  0
C  C75  1  0.06439476  0.80992196  0.81179342  1  1.516129  0  0.203805  0.610516  0  4.228548  0
C  C76  1  0.18102526  0.67956997  0.68136778  1  1.553944  0  0.230026  0.608621  0  4.159029  0
C  C77  1  0.31309270  0.56495396  0.81191237  1  1.528272  0  0.204327  0.612312  0  4.224139  0
C  C78  1  0.43710907  0.18502961  0.93865026  1  1.523288  0  0.203667  0.612268  0  4.224097  0
C  C79  1  0.43176763  0.93041751  0.93046168  1  1.570418  0  0.231211  0.609428  0  4.15762  0
C  C80  1  0.68513477  0.93932024  0.93885553  1  1.490906  0  0.203805  0.611338  0  4.228172  0
C  C81  1  0.56061693  0.81521542  0.06241776  1  1.491144  0  0.204954  0.61419  0  4.222397  0
C  C82  1  0.56798823  0.06906810  0.07001839  1  1.561674  0  0.230614  0.606533  0  4.159593  0
C  C83  1  0.31424646  0.06151856  0.06107842  1  1.46802  0  0.204219  0.613239  0  4.222674  0
C  C84  1  0.89816914  0.40643510  0.40202811  1  -0.005774  0  -0.013973  -0.090574  0  3.904463  0
C  C85  1  0.84854613  0.34833085  0.34762589  1  -0.055949  0  -0.009534  -0.00773  0  3.967655  0
C  C86  1  0.82634389  0.44910897  0.38744938  1  0.064765  0  0.026262  0.147477  0  3.989532  0
C  C87  1  0.91980110  0.30514264  0.36186989  1  0.002037  0  -0.083816  -0.101467  0  3.982336  0
C  C88  1  0.80236408  0.41985221  0.36056158  1  0.02347  0  -0.084801  -0.16105  0  3.945341  0
C  C89  1  0.94351212  0.33430217  0.38859807  1  -0.037113  0  -0.077366  -0.077249  0  3.972825  0
C  C90  1  0.09976827  0.59956871  0.59630184  1  -0.027623  0  -0.013786  -0.090321  0  3.904655  0
C  C91  1  0.15232544  0.65145256  0.65232761  1  -0.03261  0  -0.009973  -0.007576  0  3.969472  0
C  C92  1  0.14322904  0.64248118  0.58210553  1  0.072446  0  0.027251  0.149095  0  3.98873  0
C  C93  1  0.10928087  0.60905053  0.66694346  1  0.014206  0  -0.083124  -0.10196  0  3.982118  0
C  C94  1  0.16893890  0.66780066  0.61010497  1  0.109194  0  -0.087034  -0.163627  0  3.949484  0
C  C95  1  0.08392473  0.58382554  0.63907675  1  -0.035258  0  -0.079045  -0.077468  0  3.976588  0
C  C96  1  0.30412332  0.45403398  0.40171209  1  0.524131  0  0.107025  0.285301  0  4.119188  0
C  C97  1  0.44652931  0.29410523  0.34959399  1  0.521445  0  0.105722  0.28425  0  4.121998  0
C  C98  1  0.25878391  0.41317074  0.41446631  1  -0.120011  0  -0.050805  -0.2635  0  3.952578  0
C  C99  1  0.49188635  0.33487390  0.33689093  1  -0.105384  0  -0.049915  -0.263139  0  3.954628  0
C  C100  1  0.37766358  0.33858819  0.37309178  1  -0.107342  0  -0.030619  -0.110438  0  4.085737  0
C  C101  1  0.37249476  0.40994737  0.37771147  1  -0.129813  0  -0.030687  -0.109236  0  4.083463  0
C  C102  1  0.72655086  0.57677217  0.63021639  1  0.510205  0  0.104673  0.282445  0  4.11747  0
C  C103  1  0.52365116  0.67521596  0.62079977  1  0.507277  0  0.105136  0.282896  0  4.116184  0
C  C104  1  0.74210593  0.58733681  0.58722424  1  -0.081925  0  -0.049326  -0.261746  0  3.952074  0
C  C105  1  0.50818196  0.66507868  0.66382839  1  -0.098159  0  -0.049829  -0.26163  0  3.95588  0
C  C106  1  0.60387232  0.64197918  0.60884042  1  -0.142726  0  -0.029982  -0.109101  0  4.081454  0
C  C107  1  0.64630508  0.60858580  0.64210666  1  -0.127709  0  -0.030418  -0.108235  0  4.083625  0
C  C108  1  0.07445480  0.22624903  0.62961098  1  0.478186  0  0.102975  0.280556  0  4.117158  0
C  C109  1  0.17314273  0.02331101  0.62021816  1  0.483847  0  0.10514  0.283989  0  4.119005  0
C  C110  1  0.08454817  0.24165943  0.58659402  1  -0.091217  0  -0.048389  -0.260795  0  3.955751  0
C  C111  1  0.16233570  0.00787872  0.66322817  1  -0.082603  0  -0.049515  -0.262631  0  3.954508  0
C  C112  1  0.14122691  0.10357079  0.60831195  1  -0.127438  0  -0.030171  -0.110294  0  4.084297  0
C  C113  1  0.10767985  0.14605933  0.64157818  1  -0.137621  0  -0.030609  -0.109409  0  4.08601  0
C  C114  1  0.84295104  0.80060837  0.39794953  1  0.545006  0  0.106243  0.283977  0  4.120237  0
C  C115  1  0.90566431  0.94997219  0.35314648  1  0.554448  0  0.105405  0.283916  0  4.121105  0
C  C116  1  0.91279760  0.75886814  0.41421650  1  -0.116367  0  -0.050166  -0.261231  0  3.955698  0
C  C117  1  0.83591274  0.99187851  0.33680754  1  -0.11248  0  -0.049864  -0.262583  0  3.955595  0
C  C118  1  0.90790729  0.87960445  0.37502025  1  -0.159286  0  -0.030826  -0.110449  0  4.089725  0
C  C119  1  0.84145083  0.87016668  0.37519427  1  -0.153768  0  -0.029638  -0.107268  0  4.081358  0
C  C120  1  0.65418797  0.15350136  0.15048819  1  -0.020239  0  -0.014079  -0.092135  0  3.903697  0
C  C121  1  0.59728415  0.09803775  0.09835665  1  -0.057762  0  -0.00979  -0.007936  0  3.967451  0
C  C122  1  0.66775900  0.16812414  0.10728921  1  0.062717  0  0.026483  0.147124  0  3.991592  0
C  C123  1  0.58312628  0.08315708  0.14109939  1  0.010196  0  -0.083235  -0.101056  0  3.979627  0
C  C124  1  0.63931744  0.14044932  0.08182103  1  0.021719  0  -0.085534  -0.161016  0  3.946413  0
C  C125  1  0.61131970  0.11078432  0.16635152  1  0.046731  0  -0.077602  -0.075484  0  3.971743  0
C  C126  1  0.67344437  0.52324335  0.12072376  1  0.554054  0  0.106416  0.285812  0  4.120997  0
C  C127  1  0.57443009  0.72641811  0.12968652  1  0.48642  0  0.106398  0.2847  0  4.120207  0
C  C128  1  0.66296688  0.50816178  0.16379409  1  -0.100918  0  -0.049927  -0.262854  0  3.9541  0
C  C129  1  0.58475389  0.74148833  0.08662537  1  -0.078361  0  -0.049877  -0.26381  0  3.957464  0
C  C130  1  0.60769762  0.64623766  0.14180900  1  -0.143734  0  -0.030773  -0.109516  0  4.085611  0
C  C131  1  0.64124421  0.60348482  0.10865708  1  -0.16211  0  -0.03011  -0.109781  0  4.084845  0
C  C132  1  0.08148733  0.12252150  0.17824256  1  0.492588  0  0.104372  0.280994  0  4.116835  0
C  C133  1  0.16880735  0.12457535  0.07211508  1  0.558174  0  0.106361  0.285072  0  4.119417  0
C  C134  1  0.00928000  0.16227868  0.16446989  1  -0.084212  0  -0.049153  -0.259935  0  3.955733  0
C  C135  1  0.24110541  0.08494834  0.08589081  1  -0.106911  0  -0.049996  -0.262278  0  3.954391  0
C  C136  1  0.11082283  0.13869024  0.10629173  1  -0.170819  0  -0.03047  -0.110345  0  4.082997  0
C  C137  1  0.13952233  0.10972582  0.14413833  1  -0.16132  0  -0.030358  -0.107787  0  4.083746  0
C  C138  1  0.34433738  0.85180480  0.84773099  1  -0.031972  0  -0.013872  -0.092761  0  3.904834  0
C  C139  1  0.40244142  0.90212921  0.90180289  1  -0.021922  0  -0.010021  -0.00978  0  3.969961  0
C  C140  1  0.30149867  0.92374282  0.86222916  1  0.056512  0  0.02584  0.147314  0  3.993437  0
C  C141  1  0.44561014  0.83057454  0.88784021  1  0.010017  0  -0.081576  -0.099105  0  3.973167  0
C  C142  1  0.33086193  0.94798453  0.88892978  1  0.041491  0  -0.087226  -0.163439  0  3.95444  0
C  C143  1  0.41640963  0.80661077  0.86124143  1  -0.042024  0  -0.077474  -0.075354  0  3.9688  0
C  C144  1  0.40659413  0.44979168  0.85305297  1  0.523347  0  0.105872  0.283833  0  4.123026  0
C  C145  1  0.34328034  0.30091435  0.89808745  1  0.518968  0  0.104819  0.281814  0  4.118191  0
C  C146  1  0.33687164  0.49170559  0.83670047  1  -0.140277  0  -0.049452  -0.261025  0  3.95326  0
C  C147  1  0.41291322  0.25894638  0.91451811  1  -0.111392  0  -0.049937  -0.260486  0  3.953168  0
C  C148  1  0.34196027  0.37034976  0.87533615  1  -0.158858  0  -0.030803  -0.108077  0  4.083948  0
C  C149  1  0.40852415  0.37961330  0.87516575  1  -0.124504  0  -0.030042  -0.109163  0  4.080504  0
C  C150  1  0.94593337  0.79405557  0.84967595  1  0.526816  0  0.105214  0.282471  0  4.124119  0
C  C151  1  0.80425661  0.95459901  0.90157704  1  0.501197  0  0.106606  0.285021  0  4.122094  0
C  C152  1  0.99141311  0.83464129  0.83676248  1  -0.125116  0  -0.049726  -0.261917  0  3.959253  0
C  C153  1  0.75877146  0.91400015  0.91455693  1  -0.106054  0  -0.050614  -0.263388  0  3.956351  0
C  C154  1  0.87240409  0.91022602  0.87754086  1  -0.102778  0  -0.030489  -0.11035  0  4.085199  0
C  C155  1  0.87722518  0.83887166  0.87314793  1  -0.141625  0  -0.0304  -0.109066  0  4.086334  0
S  S156  1  0.29990964  0.32273933  0.39777315  1  0.215735  0  0.040806  0.090372  0  2.779806  0
S  S157  1  0.45108209  0.42504931  0.35385737  1  0.22786  0  0.043774  0.093947  0  2.778618  0
S  S158  1  0.66009528  0.63588676  0.56222473  1  0.230556  0  0.046108  0.097377  0  2.777532  0
S  S159  1  0.59020877  0.61671350  0.68880528  1  0.224508  0  0.039603  0.088186  0  2.782676  0
S  S160  1  0.13303010  0.15961398  0.56162337  1  0.231347  0  0.045575  0.096703  0  2.78017  0
S  S161  1  0.11351266  0.08997046  0.68820828  1  0.228342  0  0.044674  0.09591  0  2.778975  0
S  S162  1  0.97425659  0.80444649  0.40229370  1  0.221602  0  0.041085  0.090177  0  2.784611  0
S  S163  1  0.77444586  0.94627294  0.34872843  1  0.207029  0  0.04137  0.090741  0  2.778652  0
S  S164  1  0.61396725  0.59050448  0.18856007  1  0.215929  0  0.042736  0.092525  0  2.778537  0
S  S165  1  0.63329077  0.65915854  0.06185357  1  0.229527  0  0.043169  0.093616  0  2.778977  0
S  S166  1  0.01275777  0.18229746  0.11099242  1  0.270096  0  0.0442  0.094246  0  2.781032  0
S  S167  1  0.23754463  0.06461910  0.13938896  1  0.220898  0  0.041303  0.090656  0  2.780476  0
S  S168  1  0.27512101  0.44641382  0.84875897  1  0.224536  0  0.040434  0.089213  0  2.78146  0
S  S169  1  0.47450937  0.30439872  0.90266389  1  0.219649  0  0.042049  0.091055  0  2.778241  0
S  S170  1  0.95105139  0.92496224  0.85347893  1  0.233255  0  0.045087  0.095777  0  2.781752  0
S  S171  1  0.79940018  0.82342964  0.89807403  1  0.219349  0  0.042324  0.092307  0  2.780642  0
N  N172  1  0.28676805  0.52423948  0.41167684  1  -1.280881  0  -0.580299  -0.591581  0  3.337841  0
N  N173  1  0.46630506  0.22189664  0.34175995  1  -1.255321  0  -0.581592  -0.593473  0  3.334599  0
N  N174  1  0.78021214  0.54344699  0.65680466  1  -1.283078  0  -0.583846  -0.59386  0  3.329341  0
N  N175  1  0.47014570  0.71345288  0.59433651  1  -1.272106  0  -0.583139  -0.594144  0  3.32732  0
N  N176  1  0.03603021  0.27990280  0.65607494  1  -1.259874  0  -0.585156  -0.59624  0  3.32719  0
N  N177  1  0.20676184  0.96968953  0.59364833  1  -1.272665  0  -0.581707  -0.591822  0  3.33414  0
N  N178  1  0.78452382  0.77907580  0.40395498  1  -1.280267  0  -0.578893  -0.589716  0  3.334156  0
N  N179  1  0.96208489  0.97375692  0.34981950  1  -1.251571  0  -0.58211  -0.591224  0  3.335663  0
N  N180  1  0.70719988  0.46948539  0.09432868  1  -1.297026  0  -0.579725  -0.591814  0  3.338595  0
N  N181  1  0.53625903  0.78016067  0.15593818  1  -1.271465  0  -0.581883  -0.593238  0  3.334841  0
N  N182  1  0.09421609  0.09762955  0.21826808  1  -1.247674  0  -0.58451  -0.594193  0  3.32561  0
N  N183  1  0.15575778  0.14454470  0.03207226  1  -1.267651  0  -0.580873  -0.591054  0  3.335678  0
N  N184  1  0.46302181  0.47355237  0.84944801  1  -1.254478  0  -0.580314  -0.591421  0  3.335996  0
N  N185  1  0.28446081  0.27968959  0.90408472  1  -1.264291  0  -0.583328  -0.594007  0  3.32787  0
N  N186  1  0.96554732  0.72175825  0.84203499  1  -1.270805  0  -0.581256  -0.591941  0  3.337194  0
N  N187  1  0.78715426  0.02482328  0.91143519  1  -1.285045  0  -0.580281  -0.592083  0  3.334958  0
Cl  Cl188  1  0.76227976  0.53809378  0.40094848  1  -0.183629  0  -0.021961  -0.086066  0  1.478785  0
Cl  Cl189  1  0.16895433  0.66693600  0.53087000  1  -0.19007  0  -0.019284  -0.082535  0  1.479538  0
Cl  Cl190  1  0.71829733  0.22001158  0.08211256  1  -0.188303  0  -0.018838  -0.081734  0  1.480391  0
Cl  Cl191  1  0.21210639  0.98710098  0.84922344  1  -0.186617  0  -0.017993  -0.080858  0  1.481517  0
O  O192  1  0.00040667  0.49861702  0.50070192  1  -1.219526  0  -0.571919  -1.021266  0  2.536449  0
O  O193  1  0.07604786  0.31715091  0.52335097  1  -1.162099  0  -0.32721  -0.554868  0  2.341306  0
O  O194  1  0.03524559  0.52749024  0.58703787  1  -1.167877  0  -0.318762  -0.552242  0  2.323002  0
O  O195  1  0.15758953  0.50548830  0.45043899  1  -1.173901  0  -0.322632  -0.55709  0  2.329288  0
O  O196  1  0.02428504  0.37454830  0.58239208  1  -1.174604  0  -0.324587  -0.561855  0  2.325138  0
O  O197  1  0.15181930  0.39303951  0.44631162  1  -1.185478  0  -0.329595  -0.559943  0  2.336443  0
O  O198  1  0.07849354  0.58849651  0.53069737  1  -1.169202  0  -0.313461  -0.544928  0  2.427919  0
O  O199  1  0.00503526  0.65503101  0.44859361  1  -1.183934  0  -0.331049  -0.557661  0  2.348093  0
O  O200  1  0.89010988  0.49847604  0.44171042  1  -1.174745  0  -0.315221  -0.547951  0  2.435247  0
O  O201  1  0.88891573  0.65479786  0.44765879  1  -1.172457  0  -0.320654  -0.553673  0  2.328969  0
O  O202  1  0.99467910  0.38546239  0.44198252  1  -1.173595  0  -0.312513  -0.544052  0  2.322165  0
O  O203  1  0.87531188  0.52729233  0.58271949  1  -1.183377  0  -0.323006  -0.560391  0  2.319527  0
O  O204  1  0.81710267  0.57687230  0.52390978  1  -1.146778  0  -0.327883  -0.552599  0  2.348473  0
O  O205  1  0.74979239  0.24946109  0.25074076  1  -1.217063  0  -0.571617  -1.020323  0  2.535698  0
O  O206  1  0.59666840  0.35696321  0.30341231  1  -1.178091  0  -0.328516  -0.555903  0  2.343019  0
O  O207  1  0.66089419  0.16570925  0.21874971  1  -1.168139  0  -0.316313  -0.548342  0  2.321534  0
O  O208  1  0.72410314  0.37529391  0.16833483  1  -1.169831  0  -0.32259  -0.556672  0  2.325574  0
O  O209  1  0.59284095  0.24321935  0.30014363  1  -1.178367  0  -0.323123  -0.56106  0  2.322423  0
O  O210  1  0.67386578  0.43310183  0.22727726  1  -1.181014  0  -0.328915  -0.557258  0  2.342615  0
O  O211  1  0.72478845  0.21439659  0.16647255  1  -1.167887  0  -0.313434  -0.545252  0  2.43111  0
O  O212  1  0.87699819  0.22642157  0.17058045  1  -1.179937  0  -0.329233  -0.554374  0  2.347144  0
O  O213  1  0.86577656  0.25352544  0.30747660  1  -1.176671  0  -0.316731  -0.548936  0  2.33272  0
O  O214  1  0.93608209  0.17010065  0.22872517  1  -1.172263  0  -0.323494  -0.560308  0  2.325544  0
O  O215  1  0.75449033  0.36099464  0.30839031  1  -1.179065  0  -0.309615  -0.537839  0  2.336036  0
O  O216  1  0.74678205  0.09287433  0.29903995  1  -1.17873  0  -0.33075  -0.559706  0  2.338849  0
O  O217  1  0.85970894  0.09654829  0.30436047  1  -1.165577  0  -0.324524  -0.559434  0  2.325779  0
O  O218  1  0.25032082  0.74905377  0.75025256  1  -1.229018  0  -0.571323  -1.020856  0  2.536383  0
O  O219  1  0.37535934  0.72609956  0.66813276  1  -1.175546  0  -0.32465  -0.559908  0  2.325405  0
O  O220  1  0.36499953  0.75453076  0.80833985  1  -1.168012  0  -0.316735  -0.549229  0  2.322121  0
O  O221  1  0.17203787  0.93269386  0.72653823  1  -1.154683  0  -0.326987  -0.552916  0  2.346124  0
O  O222  1  0.43264933  0.67297837  0.72709227  1  -1.183974  0  -0.330575  -0.56008  0  2.341844  0
O  O223  1  0.22292118  0.87477070  0.66767105  1  -1.175833  0  -0.324566  -0.561506  0  2.324296  0
O  O224  1  0.25291737  0.86013164  0.80753896  1  -1.17519  0  -0.312272  -0.544086  0  2.429153  0
O  O225  1  0.09562237  0.85688339  0.80266251  1  -1.172202  0  -0.327103  -0.551978  0  2.347479  0
O  O226  1  0.16230452  0.66512497  0.71959713  1  -1.163649  0  -0.312547  -0.543836  0  2.330536  0
O  O227  1  0.09262781  0.74238940  0.80044499  1  -1.166192  0  -0.322808  -0.55843  0  2.325162  0
O  O228  1  0.22175345  0.71558382  0.66524866  1  -1.168114  0  -0.316153  -0.54659  0  2.340782  0
O  O229  1  0.36012315  0.59680348  0.80408624  1  -1.175776  0  -0.322273  -0.557659  0  2.319841  0
O  O230  1  0.24707191  0.59267361  0.79952381  1  -1.179035  0  -0.331021  -0.558289  0  2.344454  0
O  O231  1  0.50003158  0.99940252  0.00029788  1  -1.230162  0  -0.571586  -1.019877  0  2.53695  0
O  O232  1  0.50422544  0.15548915  0.94974523  1  -1.180765  0  -0.330246  -0.557928  0  2.344851  0
O  O233  1  0.38908827  0.99700161  0.94073815  1  -1.181293  0  -0.317672  -0.548821  0  2.341119  0
O  O234  1  0.65256191  0.89350138  0.94687313  1  -1.182404  0  -0.32872  -0.555999  0  2.347508  0
O  O235  1  0.38913537  0.15421370  0.94715164  1  -1.175277  0  -0.323597  -0.559338  0  2.326218  0
O  O236  1  0.65756960  0.00648071  0.95064234  1  -1.172863  0  -0.323334  -0.558393  0  2.323902  0
O  O237  1  0.49662350  0.88580719  0.94208747  1  -1.170847  0  -0.30929  -0.539142  0  2.327602  0
O  O238  1  0.57670705  0.81654934  0.02328179  1  -1.16547  0  -0.3296  -0.55658  0  2.343746  0
O  O239  1  0.53127995  0.02926146  0.08669741  1  -1.168716  0  -0.313169  -0.543605  0  2.330722  0
O  O240  1  0.52464685  0.87436888  0.08216506  1  -1.174437  0  -0.323088  -0.559097  0  2.325361  0
O  O241  1  0.58236361  0.08669982  0.03162649  1  -1.165441  0  -0.313605  -0.542768  0  2.33766  0
O  O242  1  0.31412019  0.07709316  0.02161757  1  -1.148208  0  -0.324387  -0.559466  0  2.322474  0
O  O243  1  0.37374718  0.02726012  0.07997878  1  -1.180836  0  -0.33011  -0.557885  0  2.345876  0
