# generated using pymatgen
data_SmH8C12N2O7
_symmetry_space_group_name_H-M   'P 1'
_cell_length_a   8.99625842
_cell_length_b   11.90226738
_cell_length_c   13.54699685
_cell_angle_alpha   89.99661001
_cell_angle_beta   90.00185262
_cell_angle_gamma   89.08604133
_symmetry_Int_Tables_number   1
_chemical_formula_structural   SmH8C12N2O7
_chemical_formula_sum   'Sm4 H32 C48 N8 O28'
_cell_volume   1450.37196703
_cell_formula_units_Z   4
loop_
 _symmetry_equiv_pos_site_id
 _symmetry_equiv_pos_as_xyz
  1  'x, y, z'
loop_
 _atom_site_type_symbol
 _atom_site_label
 _atom_site_symmetry_multiplicity
 _atom_site_fract_x
 _atom_site_fract_y
 _atom_site_fract_z
 _atom_site_occupancy
 _atom_site_hle17_bader_spin_density
 _atom_site_hle17_ddec_charge
 _atom_site_hle17_ddec_spin_density
 _atom_site_hle17_ddec_sum_bond_order
 _atom_site_hle17_magmom
 _atom_site_hse06_10hf_bader_spin_density
 _atom_site_hse06_10hf_ddec_charge
 _atom_site_hse06_10hf_ddec_spin_density
 _atom_site_hse06_10hf_ddec_sum_bond_order
 _atom_site_hse06_10hf_magmom
 _atom_site_hse06_bader_spin_density
 _atom_site_hse06_ddec_charge
 _atom_site_hse06_ddec_spin_density
 _atom_site_hse06_ddec_sum_bond_order
 _atom_site_hse06_magmom
 _atom_site_pbe_bader_spin_density
 _atom_site_pbe_cm5_charge
 _atom_site_pbe_ddec_charge
 _atom_site_pbe_ddec_spin_density
 _atom_site_pbe_ddec_sum_bond_order
 _atom_site_pbe_magmom
Sm  Sm0  1  0.76369778  0.56758244  0.13690213  1  0  2.263415  0  1.704066  0  0  2.107422  0  2.185718  0  0  2.213636  0  2.022493  0  0  1.516604  2.075013  0  2.217915  0
Sm  Sm1  1  0.23631511  0.93241695  0.63690432  1  0  2.263512  0  1.703804  0  0  2.107577  0  2.185345  0  0  2.213736  0  2.022205  0  0  1.516613  2.075172  0  2.21754  0
Sm  Sm2  1  0.23630277  0.43241877  0.86309244  1  0  2.263335  0  1.704216  0  0  2.107342  0  2.185851  0  0  2.213536  0  2.022646  0  0  1.516549  2.07487  0  2.218147  0
Sm  Sm3  1  0.76368321  0.06758260  0.36308952  1  0  2.263505  0  1.70389  0  0  2.107665  0  2.18527  0  0  2.213726  0  2.022299  0  0  1.516641  2.075223  0  2.217528  0
H  H4  1  0.12791723  0.16470369  0.02694114  1  0  0.330786  0  0.833671  0  0  0.318512  0  0.881936  0  0  0.326756  0  0.875117  0  0  0.346765  0.312667  0  0.886769  0
H  H5  1  0.87209026  0.33529180  0.52695898  1  0  0.330723  0  0.833988  0  0  0.318546  0  0.882097  0  0  0.326768  0  0.875314  0  0  0.346769  0.312698  0  0.886934  0
H  H6  1  0.87209664  0.83529062  0.97305196  1  0  0.330753  0  0.833966  0  0  0.318533  0  0.882115  0  0  0.326785  0  0.875295  0  0  0.346743  0.312691  0  0.886957  0
H  H7  1  0.12788915  0.66470465  0.47305627  1  0  0.330657  0  0.834092  0  0  0.318491  0  0.882183  0  0  0.326705  0  0.875419  0  0  0.346746  0.312644  0  0.887019  0
H  H8  1  0.14798625  0.96371903  0.01650627  1  0  0.085958  0  0.961248  0  0  0.096495  0  1.024426  0  0  0.099513  0  1.022888  0  0  0.097161  0.094342  0  1.025535  0
H  H9  1  0.85201204  0.53628952  0.51652062  1  0  0.085898  0  0.96135  0  0  0.096369  0  1.024639  0  0  0.099386  0  1.0231  0  0  0.097116  0.094219  0  1.025738  0
H  H10  1  0.85204657  0.03629604  0.98347501  1  0  0.085956  0  0.961439  0  0  0.096486  0  1.024636  0  0  0.099499  0  1.023107  0  0  0.09721  0.094368  0  1.025704  0
H  H11  1  0.14796180  0.46370112  0.48349389  1  0  0.085868  0  0.961343  0  0  0.096427  0  1.024514  0  0  0.099437  0  1.022987  0  0  0.097166  0.09429  0  1.025592  0
H  H12  1  0.29981856  0.78885093  0.03480770  1  0  0.091477  0  0.947164  0  0  0.103665  0  1.002843  0  0  0.106551  0  1.001668  0  0  0.101656  0.101593  0  1.003661  0
H  H13  1  0.70020518  0.71116678  0.53482287  1  0  0.091437  0  0.947284  0  0  0.103566  0  1.003012  0  0  0.106451  0  1.00184  0  0  0.101596  0.101492  0  1.003829  0
H  H14  1  0.70022537  0.21116062  0.96517506  1  0  0.091451  0  0.947303  0  0  0.103568  0  1.00306  0  0  0.106452  0  1.001889  0  0  0.101624  0.101526  0  1.003837  0
H  H15  1  0.29979982  0.28883436  0.46518868  1  0  0.091563  0  0.947102  0  0  0.103656  0  1.002866  0  0  0.106542  0  1.001693  0  0  0.101624  0.101603  0  1.003658  0
H  H16  1  0.37193883  0.72070612  0.20131600  1  0  0.09625  0  0.959085  0  0  0.107601  0  1.018896  0  0  0.110644  0  1.017198  0  0  0.10437  0.105417  0  1.020173  0
H  H17  1  0.62810467  0.77928576  0.70133673  1  0  0.096387  0  0.958823  0  0  0.107671  0  1.018703  0  0  0.110749  0  1.016976  0  0  0.104376  0.105488  0  1.019983  0
H  H18  1  0.62806840  0.27930172  0.79867193  1  0  0.09617  0  0.959109  0  0  0.107504  0  1.018955  0  0  0.110561  0  1.017259  0  0  0.104343  0.105322  0  1.020224  0
H  H19  1  0.37190924  0.22072535  0.29867556  1  0  0.096395  0  0.958799  0  0  0.107703  0  1.018656  0  0  0.11077  0  1.016939  0  0  0.104367  0.105518  0  1.019936  0
H  H20  1  0.29628918  0.83053605  0.35083025  1  0  0.100522  0  0.965836  0  0  0.109343  0  1.027884  0  0  0.113076  0  1.025215  0  0  0.101992  0.106699  0  1.029775  0
H  H21  1  0.70374863  0.66942151  0.85084595  1  0  0.10061  0  0.965705  0  0  0.109434  0  1.027747  0  0  0.113165  0  1.025079  0  0  0.102009  0.106775  0  1.029653  0
H  H22  1  0.70370134  0.16945521  0.64915326  1  0  0.100554  0  0.965793  0  0  0.109366  0  1.027846  0  0  0.1131  0  1.025179  0  0  0.101981  0.106708  0  1.029747  0
H  H23  1  0.29624526  0.33058399  0.14916413  1  0  0.100516  0  0.965848  0  0  0.109403  0  1.027834  0  0  0.113135  0  1.025169  0  0  0.101984  0.106762  0  1.029718  0
H  H24  1  0.14415348  0.00475708  0.33353564  1  0  0.104435  0  0.949989  0  0  0.111402  0  1.017202  0  0  0.114764  0  1.015698  0  0  0.114193  0.108558  0  1.019352  0
H  H25  1  0.85587822  0.49520112  0.83355130  1  0  0.104327  0  0.949893  0  0  0.111354  0  1.01706  0  0  0.114723  0  1.01554  0  0  0.114121  0.108504  0  1.019214  0
H  H26  1  0.85583593  0.99523335  0.66645303  1  0  0.104322  0  0.949847  0  0  0.111362  0  1.017009  0  0  0.114717  0  1.015502  0  0  0.114141  0.108509  0  1.019163  0
H  H27  1  0.14409898  0.50479956  0.16646911  1  0  0.104328  0  0.949829  0  0  0.11133  0  1.017018  0  0  0.114692  0  1.015514  0  0  0.11419  0.108485  0  1.019165  0
H  H28  1  0.55217743  0.51635215  0.30475962  1  0  0.454712  0  0.793309  0  0  0.434158  0  0.848171  0  0  0.443009  0  0.835518  0  0  0.338748  0.427958  0  0.85719  0
H  H29  1  0.44779406  0.98361617  0.80480465  1  0  0.454709  0  0.793445  0  0  0.434158  0  0.848207  0  0  0.443014  0  0.835544  0  0  0.338789  0.427958  0  0.857227  0
H  H30  1  0.44784314  0.48364879  0.69523717  1  0  0.454727  0  0.79324  0  0  0.434152  0  0.848175  0  0  0.443006  0  0.835516  0  0  0.338717  0.427951  0  0.857198  0
H  H31  1  0.55217754  0.01636862  0.19523348  1  0  0.454769  0  0.793333  0  0  0.434195  0  0.848159  0  0  0.443049  0  0.8355  0  0  0.338818  0.427995  0  0.857181  0
H  H32  1  0.56619265  0.64709895  0.31906882  1  0  0.449134  0  0.796474  0  0  0.432544  0  0.846508  0  0  0.440682  0  0.834825  0  0  0.341333  0.426946  0  0.854704  0
H  H33  1  0.43380870  0.85285209  0.81903904  1  0  0.449207  0  0.796616  0  0  0.43264  0  0.846444  0  0  0.440774  0  0.834763  0  0  0.341363  0.427044  0  0.85464  0
H  H34  1  0.43381901  0.35289875  0.68094790  1  0  0.449147  0  0.796516  0  0  0.432617  0  0.846417  0  0  0.440748  0  0.834742  0  0  0.341357  0.427022  0  0.854608  0
H  H35  1  0.56617178  0.14712334  0.18095258  1  0  0.449098  0  0.796625  0  0  0.432489  0  0.846611  0  0  0.440619  0  0.834936  0  0  0.341352  0.426899  0  0.854799  0
C  C36  1  0.80196349  0.31480303  0.25644947  1  0  0.714923  0  3.89211  0  0  0.668214  0  4.187824  0  0  0.70469  0  4.17677  0  0  0.232133  0.643589  0  4.197194  0
C  C37  1  0.19807889  0.18518806  0.75646529  1  0  0.714774  0  3.891781  0  0  0.668237  0  4.187173  0  0  0.704789  0  4.175982  0  0  0.232058  0.643558  0  4.196628  0
C  C38  1  0.19804817  0.68519131  0.74353994  1  0  0.715177  0  3.891914  0  0  0.668432  0  4.187692  0  0  0.704941  0  4.176567  0  0  0.232243  0.643797  0  4.197078  0
C  C39  1  0.80192832  0.81480970  0.24353076  1  0  0.715073  0  3.891557  0  0  0.668441  0  4.187074  0  0  0.705011  0  4.175844  0  0  0.232211  0.643777  0  4.196506  0
C  C40  1  0.90172576  0.24450854  0.19283806  1  0  0.006124  0  3.750052  0  0  0.00025  0  4.008994  0  0  -0.001484  0  4.031469  0  0  0.091954  0.001053  0  3.996232  0
C  C41  1  0.09830488  0.25547627  0.69285367  1  0  0.006145  0  3.750006  0  0  0.000236  0  4.008756  0  0  -0.001539  0  4.031214  0  0  0.091978  0.001081  0  3.996004  0
C  C42  1  0.09828477  0.75548078  0.80714987  1  0  0.006225  0  3.750192  0  0  0.000261  0  4.009185  0  0  -0.001483  0  4.03165  0  0  0.092007  0.001093  0  3.996411  0
C  C43  1  0.90169343  0.74451824  0.30714828  1  0  0.00596  0  3.750119  0  0  0.000146  0  4.00889  0  0  -0.001616  0  4.031351  0  0  0.091882  0.00098  0  3.996132  0
C  C44  1  0.96956524  0.26363514  0.10209033  1  0  0.011882  0  3.678782  0  0  -0.001068  0  3.938247  0  0  -0.003017  0  3.956125  0  0  0.096606  0.000416  0  3.925355  0
C  C45  1  0.03044057  0.23636287  0.60210804  1  0  0.011949  0  3.678448  0  0  -0.000861  0  3.937717  0  0  -0.002756  0  3.955536  0  0  0.096707  0.000576  0  3.924877  0
C  C46  1  0.03045197  0.73635913  0.89789834  1  0  0.01174  0  3.678602  0  0  -0.00108  0  3.937895  0  0  -0.003009  0  3.955767  0  0  0.096543  0.000371  0  3.925036  0
C  C47  1  0.96954108  0.76363523  0.39789760  1  0  0.011967  0  3.678559  0  0  -0.001022  0  3.937971  0  0  -0.002957  0  3.955848  0  0  0.096598  0.000435  0  3.925106  0
C  C48  1  0.96424986  0.35143516  0.02481069  1  0  0.707737  0  3.929124  0  0  0.659833  0  4.227986  0  0  0.695714  0  4.218883  0  0  0.237435  0.635632  0  4.236122  0
C  C49  1  0.03573543  0.14856677  0.52482058  1  0  0.707574  0  3.929063  0  0  0.65957  0  4.228056  0  0  0.695437  0  4.218951  0  0  0.237383  0.635381  0  4.236194  0
C  C50  1  0.03574957  0.64856186  0.97518610  1  0  0.707936  0  3.929077  0  0  0.659996  0  4.227927  0  0  0.695878  0  4.21882  0  0  0.23754  0.635808  0  4.236061  0
C  C51  1  0.96425511  0.85143373  0.47518433  1  0  0.707701  0  3.929274  0  0  0.659823  0  4.228119  0  0  0.695706  0  4.219009  0  0  0.237436  0.635629  0  4.236256  0
C  C52  1  0.04712541  0.09886960  0.16433379  1  0  0.375698  0  3.72684  0  0  0.341303  0  3.998795  0  0  0.357436  0  4.012269  0  0  0.237045  0.330809  0  3.990333  0
C  C53  1  0.95290099  0.40110869  0.66434531  1  0  0.375783  0  3.727085  0  0  0.341258  0  3.999205  0  0  0.357391  0  4.012683  0  0  0.237018  0.330768  0  3.990732  0
C  C54  1  0.95288069  0.90112817  0.83565267  1  0  0.375826  0  3.726836  0  0  0.341439  0  3.998738  0  0  0.357573  0  4.012232  0  0  0.237026  0.330923  0  3.990313  0
C  C55  1  0.04709064  0.59888003  0.33566772  1  0  0.375787  0  3.72689  0  0  0.341471  0  3.998693  0  0  0.357612  0  4.012168  0  0  0.237099  0.330979  0  3.990231  0
C  C56  1  0.13437834  0.99514653  0.17412672  1  0  -0.020725  0  3.822651  0  0  2e-05  0  4.058058  0  0  -0.003386  0  4.081161  0  0  -0.010305  0.002179  0  4.042097  0
C  C57  1  0.86565091  0.50484301  0.67413978  1  0  -0.020793  0  3.822449  0  0  -1e-05  0  4.057838  0  0  -0.003416  0  4.080947  0  0  -0.010177  0.002146  0  4.04187  0
C  C58  1  0.86563890  0.00486118  0.82585899  1  0  -0.020829  0  3.822425  0  0  -8.5e-05  0  4.057797  0  0  -0.003489  0  4.08089  0  0  -0.010179  0.002076  0  4.041849  0
C  C59  1  0.13433406  0.49515084  0.32587473  1  0  -0.020673  0  3.822492  0  0  2.7e-05  0  4.057869  0  0  -0.003381  0  4.08098  0  0  -0.010163  0.002184  0  4.041906  0
C  C60  1  0.18096443  0.93491327  0.08993601  1  0  -0.11682  0  3.763753  0  0  -0.141958  0  4.015154  0  0  -0.143344  0  4.035937  0  0  -0.099837  -0.140723  0  4.000746  0
C  C61  1  0.81905773  0.56509011  0.58995074  1  0  -0.116686  0  3.763865  0  0  -0.141796  0  4.015218  0  0  -0.143191  0  4.036022  0  0  -0.099851  -0.14056  0  4.000791  0
C  C62  1  0.81907060  0.06509840  0.91005414  1  0  -0.116849  0  3.763968  0  0  -0.142014  0  4.015355  0  0  -0.143403  0  4.036142  0  0  -0.09999  -0.140808  0  4.000954  0
C  C63  1  0.18092946  0.43490287  0.41006377  1  0  -0.116704  0  3.763972  0  0  -0.141861  0  4.015359  0  0  -0.143252  0  4.036158  0  0  -0.099971  -0.140632  0  4.000941  0
C  C64  1  0.26573903  0.83650460  0.09998054  1  0  -0.065025  0  3.779014  0  0  -0.076222  0  4.028211  0  0  -0.078525  0  4.049204  0  0  -0.092287  -0.07458  0  4.013613  0
C  C65  1  0.73429196  0.66350246  0.59999849  1  0  -0.065014  0  3.779457  0  0  -0.076116  0  4.028531  0  0  -0.078422  0  4.049533  0  0  -0.09225  -0.074473  0  4.013926  0
C  C66  1  0.73430156  0.16350279  0.90000961  1  0  -0.065003  0  3.779129  0  0  -0.076115  0  4.028296  0  0  -0.078415  0  4.049287  0  0  -0.09226  -0.074489  0  4.013687  0
C  C67  1  0.26570304  0.33650302  0.40001454  1  0  -0.06519  0  3.779514  0  0  -0.076286  0  4.028645  0  0  -0.07859  0  4.049644  0  0  -0.092214  -0.07466  0  4.014041  0
C  C68  1  0.30579736  0.79775572  0.19384601  1  0  -0.04912  0  3.717174  0  0  -0.066441  0  3.965863  0  0  -0.06661  0  3.985206  0  0  -0.084058  -0.066003  0  3.952224  0
C  C69  1  0.69424398  0.70223459  0.69386097  1  0  -0.049344  0  3.717396  0  0  -0.066613  0  3.966047  0  0  -0.066817  0  3.985368  0  0  -0.084145  -0.066184  0  3.952412  0
C  C70  1  0.69422321  0.20224606  0.80613971  1  0  -0.048963  0  3.717096  0  0  -0.066294  0  3.96578  0  0  -0.066485  0  3.98511  0  0  -0.08401  -0.065866  0  3.952153  0
C  C71  1  0.30575881  0.29777163  0.30614763  1  0  -0.049338  0  3.717308  0  0  -0.066604  0  3.965948  0  0  -0.066799  0  3.985279  0  0  -0.084117  -0.066176  0  3.952321  0
C  C72  1  0.26175121  0.85831735  0.27757395  1  0  -0.059814  0  3.742723  0  0  -0.073016  0  3.996012  0  0  -0.075359  0  4.016935  0  0  -0.088387  -0.071291  0  3.981226  0
C  C73  1  0.73829276  0.64165252  0.77758933  1  0  -0.059846  0  3.743027  0  0  -0.073083  0  3.99631  0  0  -0.075426  0  4.017241  0  0  -0.08826  -0.071341  0  3.981526  0
C  C74  1  0.73826156  0.14167781  0.72241472  1  0  -0.060066  0  3.742649  0  0  -0.07326  0  3.99597  0  0  -0.075609  0  4.016899  0  0  -0.088391  -0.071522  0  3.981178  0
C  C75  1  0.26170112  0.35834710  0.22242222  1  0  -0.059676  0  3.743061  0  0  -0.072974  0  3.996349  0  0  -0.075318  0  4.017279  0  0  -0.088238  -0.071242  0  3.981553  0
C  C76  1  0.17619099  0.95638859  0.26822033  1  0  -0.082653  0  3.703465  0  0  -0.107698  0  3.955351  0  0  -0.109425  0  3.976647  0  0  -0.076221  -0.106499  0  3.941341  0
C  C77  1  0.82384417  0.54358675  0.76823474  1  0  -0.082448  0  3.703648  0  0  -0.107511  0  3.955477  0  0  -0.109234  0  3.976765  0  0  -0.076174  -0.106314  0  3.94147  0
C  C78  1  0.82382067  0.04360743  0.73176908  1  0  -0.082202  0  3.702828  0  0  -0.107273  0  3.954613  0  0  -0.108996  0  3.975933  0  0  -0.076107  -0.106067  0  3.940596  0
C  C79  1  0.17613747  0.45641303  0.23178124  1  0  -0.082477  0  3.703622  0  0  -0.107536  0  3.955564  0  0  -0.109248  0  3.976835  0  0  -0.076248  -0.10635  0  3.941566  0
C  C80  1  0.50864293  0.55658914  0.97159919  1  0  0.556623  0  3.945521  0  0  0.517776  0  4.238245  0  0  0.546557  0  4.236791  0  0  0.213939  0.497854  0  4.243432  0
C  C81  1  0.49134514  0.94342391  0.47160139  1  0  0.556335  0  3.946105  0  0  0.517423  0  4.238935  0  0  0.546201  0  4.237484  0  0  0.213889  0.497502  0  4.244115  0
C  C82  1  0.49132653  0.44343012  0.02841015  1  0  0.556375  0  3.945606  0  0  0.517468  0  4.238438  0  0  0.546247  0  4.236989  0  0  0.213927  0.497543  0  4.243628  0
C  C83  1  0.50864764  0.05658328  0.52839245  1  0  0.556394  0  3.946212  0  0  0.517526  0  4.238983  0  0  0.546308  0  4.237524  0  0  0.213913  0.497607  0  4.244162  0
N  N84  1  0.94815928  0.14139817  0.22892363  1  0  -0.523319  0  3.14368  0  0  -0.482269  0  3.420965  0  0  -0.505004  0  3.437006  0  0  -0.38893  -0.471921  0  3.411309  0
N  N85  1  0.05187440  0.35858047  0.72893022  1  0  -0.523246  0  3.144344  0  0  -0.482193  0  3.421696  0  0  -0.504943  0  3.437753  0  0  -0.389048  -0.471847  0  3.412028  0
N  N86  1  0.05184459  0.85859376  0.77106135  1  0  -0.523343  0  3.143715  0  0  -0.482303  0  3.421041  0  0  -0.505047  0  3.437089  0  0  -0.388954  -0.47195  0  3.411375  0
N  N87  1  0.94813058  0.64141060  0.27107321  1  0  -0.523248  0  3.144007  0  0  -0.482253  0  3.421246  0  0  -0.505006  0  3.437299  0  0  -0.389018  -0.471913  0  3.411582  0
N  N88  1  0.05972923  0.17085280  0.08681032  1  0  -0.333997  0  3.410425  0  0  -0.280076  0  3.644597  0  0  -0.295146  0  3.656205  0  0  -0.3628  -0.269703  0  3.635892  0
N  N89  1  0.94027334  0.32914042  0.58682777  1  0  -0.334148  0  3.410987  0  0  -0.280275  0  3.645036  0  0  -0.295345  0  3.656658  0  0  -0.362941  -0.269886  0  3.63634  0
N  N90  1  0.94028132  0.82914996  0.91317983  1  0  -0.334251  0  3.410674  0  0  -0.280337  0  3.644663  0  0  -0.295442  0  3.656301  0  0  -0.362894  -0.269954  0  3.635991  0
N  N91  1  0.05970495  0.67085100  0.41318526  1  0  -0.334177  0  3.41111  0  0  -0.280321  0  3.645128  0  0  -0.295389  0  3.656791  0  0  -0.362937  -0.269939  0  3.636433  0
O  O92  1  0.72582315  0.26313749  0.32047388  1  0  -0.696476  0  1.958584  0  0  -0.652714  0  2.202582  0  0  -0.68199  0  2.184465  0  0  -0.390509  -0.637314  0  2.212547  0
O  O93  1  0.27418203  0.23684872  0.82051355  1  0  -0.696289  0  1.958226  0  0  -0.652591  0  2.202151  0  0  -0.681905  0  2.183988  0  0  -0.390246  -0.637167  0  2.212137  0
O  O94  1  0.27418517  0.73685857  0.67951774  1  0  -0.696474  0  1.958474  0  0  -0.652678  0  2.202484  0  0  -0.681976  0  2.184342  0  0  -0.390422  -0.637278  0  2.21245  0
O  O95  1  0.72583074  0.76314477  0.17948250  1  0  -0.696383  0  1.958156  0  0  -0.652635  0  2.202122  0  0  -0.681964  0  2.18395  0  0  -0.390356  -0.637222  0  2.212101  0
O  O96  1  0.80277320  0.42085593  0.24762788  1  0  -0.748076  0  2.085302  0  0  -0.700104  0  2.347859  0  0  -0.733644  0  2.331114  0  0  -0.420073  -0.682449  0  2.356399  0
O  O97  1  0.19732038  0.07912884  0.74763722  1  0  -0.748174  0  2.085083  0  0  -0.700269  0  2.347509  0  0  -0.733827  0  2.330721  0  0  -0.42019  -0.682606  0  2.356091  0
O  O98  1  0.19723735  0.57914010  0.75236374  1  0  -0.748265  0  2.085253  0  0  -0.700273  0  2.347813  0  0  -0.73382  0  2.331047  0  0  -0.420194  -0.682618  0  2.356379  0
O  O99  1  0.80269350  0.92086379  0.25236991  1  0  -0.748252  0  2.085199  0  0  -0.70033  0  2.347676  0  0  -0.733873  0  2.330871  0  0  -0.420187  -0.682669  0  2.356257  0
O  O100  1  0.87176120  0.43212188  0.03109587  1  0  -0.728161  0  2.071054  0  0  -0.677663  0  2.328024  0  0  -0.71123  0  2.314392  0  0  -0.398542  -0.660451  0  2.335033  0
O  O101  1  0.12821403  0.06787605  0.53110792  1  0  -0.7282  0  2.071164  0  0  -0.677662  0  2.328134  0  0  -0.71122  0  2.314509  0  0  -0.398594  -0.660449  0  2.335138  0
O  O102  1  0.12823043  0.56786768  0.96889796  1  0  -0.728311  0  2.071094  0  0  -0.677793  0  2.328023  0  0  -0.711355  0  2.314392  0  0  -0.39868  -0.660567  0  2.335022  0
O  O103  1  0.87178877  0.93213689  0.46889477  1  0  -0.728211  0  2.071115  0  0  -0.677743  0  2.328073  0  0  -0.711285  0  2.31444  0  0  -0.398575  -0.660528  0  2.335079  0
O  O104  1  0.05573140  0.33561962  0.95427778  1  0  -0.73357  0  2.041886  0  0  -0.687915  0  2.30375  0  0  -0.720656  0  2.288732  0  0  -0.407721  -0.671051  0  2.311519  0
O  O105  1  0.94424057  0.16440178  0.45428999  1  0  -0.73326  0  2.041623  0  0  -0.687705  0  2.303678  0  0  -0.72042  0  2.288661  0  0  -0.407582  -0.670841  0  2.311438  0
O  O106  1  0.94426137  0.66438589  0.04571311  1  0  -0.733453  0  2.04178  0  0  -0.687907  0  2.303853  0  0  -0.720652  0  2.288835  0  0  -0.407669  -0.671056  0  2.311622  0
O  O107  1  0.05574552  0.83559542  0.54571197  1  0  -0.733398  0  2.041858  0  0  -0.68784  0  2.303821  0  0  -0.720567  0  2.288787  0  0  -0.407631  -0.670985  0  2.311582  0
O  O108  1  0.60204946  0.62541520  0.00623217  1  0  -0.676917  0  2.008163  0  0  -0.632456  0  2.250456  0  0  -0.662146  0  2.235367  0  0  -0.393968  -0.617342  0  2.258595  0
O  O109  1  0.39795779  0.87458694  0.50624257  1  0  -0.676837  0  2.008198  0  0  -0.63237  0  2.250514  0  0  -0.66205  0  2.235429  0  0  -0.394014  -0.617255  0  2.25865  0
O  O110  1  0.39793001  0.37460561  0.99377865  1  0  -0.676806  0  2.008182  0  0  -0.632348  0  2.250521  0  0  -0.662032  0  2.235439  0  0  -0.39396  -0.617223  0  2.258663  0
O  O111  1  0.60204054  0.12541430  0.49374832  1  0  -0.676825  0  2.008251  0  0  -0.632376  0  2.250533  0  0  -0.66204  0  2.235447  0  0  -0.393914  -0.617251  0  2.258665  0
O  O112  1  0.42946343  0.57134412  0.89581955  1  0  -0.64908  0  2.046702  0  0  -0.604065  0  2.285845  0  0  -0.633444  0  2.276331  0  0  -0.368736  -0.58808  0  2.29061  0
O  O113  1  0.57051077  0.92866419  0.39582123  1  0  -0.648969  0  2.046908  0  0  -0.603936  0  2.286051  0  0  -0.633305  0  2.27656  0  0  -0.368683  -0.587951  0  2.290806  0
O  O114  1  0.57051380  0.42867336  0.10419052  1  0  -0.64904  0  2.046745  0  0  -0.604004  0  2.285924  0  0  -0.633382  0  2.2764  0  0  -0.368736  -0.588024  0  2.290689  0
O  O115  1  0.42947645  0.07133804  0.60416818  1  0  -0.649003  0  2.04704  0  0  -0.603987  0  2.286197  0  0  -0.633363  0  2.276684  0  0  -0.368776  -0.588012  0  2.290961  0
O  O116  1  0.56214460  0.58757465  0.26989720  1  0  -0.865927  0  1.833182  0  0  -0.824857  0  2.010296  0  0  -0.848568  0  1.977302  0  0  -0.58953  -0.813272  0  2.029463  0
O  O117  1  0.43790504  0.91241878  0.76989662  1  0  -0.866036  0  1.833384  0  0  -0.825017  0  2.010138  0  0  -0.848712  0  1.977154  0  0  -0.589642  -0.81344  0  2.029305  0
O  O118  1  0.43787042  0.41243393  0.73011066  1  0  -0.865954  0  1.833168  0  0  -0.824933  0  2.010164  0  0  -0.848634  0  1.977175  0  0  -0.589521  -0.81335  0  2.029333  0
O  O119  1  0.56207104  0.08758023  0.23011345  1  0  -0.865985  0  1.833274  0  0  -0.824903  0  2.010233  0  0  -0.848584  0  1.977265  0  0  -0.589683  -0.81333  0  2.029394  0
