# generated using pymatgen
data_LaH6C5O9
_symmetry_space_group_name_H-M   'P 1'
_cell_length_a   6.18912634
_cell_length_b   7.39369893
_cell_length_c   22.96678577
_cell_angle_alpha   90.00000405
_cell_angle_beta   88.89037001
_cell_angle_gamma   89.99966838
_symmetry_Int_Tables_number   1
_chemical_formula_structural   LaH6C5O9
_chemical_formula_sum   'La4 H24 C20 O36'
_cell_volume   1050.77535704
_cell_formula_units_Z   4
loop_
 _symmetry_equiv_pos_site_id
 _symmetry_equiv_pos_as_xyz
  1  'x, y, z'
loop_
 _atom_site_type_symbol
 _atom_site_label
 _atom_site_symmetry_multiplicity
 _atom_site_fract_x
 _atom_site_fract_y
 _atom_site_fract_z
 _atom_site_occupancy
 _atom_site_pbe_bader_charge
 _atom_site_pbe_bader_spin_density
 _atom_site_pbe_cm5_charge
 _atom_site_pbe_ddec_charge
 _atom_site_pbe_ddec_spin_density
 _atom_site_pbe_ddec_sum_bond_order
 _atom_site_pbe_magmom
La  La0  1  0.43668762  0.51320408  0.85999845  1  2.26482  0  1.385288  1.881304  0  2.35854  0
La  La1  1  0.56330728  0.01319981  0.64000387  1  2.264876  0  1.385295  1.881217  0  2.358647  0
La  La2  1  0.56332091  0.48679132  0.14000040  1  2.26481  0  1.385359  1.881299  0  2.358453  0
La  La3  1  0.43668175  0.98680506  0.35999627  1  2.264808  0  1.385306  1.881395  0  2.358561  0
H  H4  1  0.31222826  0.75498333  0.75492782  1  0.634651  0  0.302003  0.333153  0  1.022041  0
H  H5  1  0.48211477  0.57239239  0.62579917  1  0.644463  0  0.34444  0.386444  0  0.87425  0
H  H6  1  0.99025871  0.64127928  0.86608964  1  0.648214  0  0.302909  0.387409  0  0.955219  0
H  H7  1  0.03739736  0.70650072  0.92823865  1  0.629093  0  0.329094  0.416654  0  0.868837  0
H  H8  1  0.04278609  0.46022090  0.71950445  1  0.133211  0  0.131761  0.112245  0  0.945306  0
H  H9  1  0.11166090  0.54247057  0.62412548  1  0.116224  0  0.125948  0.097316  0  0.959513  0
H  H10  1  0.68777137  0.25499042  0.74507631  1  0.634634  0  0.301991  0.333168  0  1.022049  0
H  H11  1  0.51789258  0.07238661  0.87420405  1  0.644457  0  0.344434  0.386507  0  0.874089  0
H  H12  1  0.00972849  0.14128056  0.63391706  1  0.64823  0  0.302965  0.38757  0  0.954982  0
H  H13  1  0.96261385  0.20649451  0.57176592  1  0.628659  0  0.329095  0.416816  0  0.868729  0
H  H14  1  0.95722379  0.96023075  0.78049670  1  0.133393  0  0.131754  0.112218  0  0.945242  0
H  H15  1  0.88834192  0.04246965  0.87587642  1  0.116167  0  0.125937  0.097311  0  0.959492  0
H  H16  1  0.68776554  0.24501883  0.24507319  1  0.63465  0  0.302006  0.333164  0  1.022037  0
H  H17  1  0.51786633  0.42761382  0.37419921  1  0.644331  0  0.344471  0.386696  0  0.873895  0
H  H18  1  0.00974801  0.35871477  0.13391139  1  0.648204  0  0.302896  0.387396  0  0.955235  0
H  H19  1  0.96262382  0.29347844  0.07176326  1  0.629083  0  0.329077  0.416648  0  0.868861  0
H  H20  1  0.95721425  0.53977855  0.28049570  1  0.133235  0  0.131769  0.112277  0  0.945251  0
H  H21  1  0.88832001  0.45753970  0.37587508  1  0.116236  0  0.125932  0.097327  0  0.95957  0
H  H22  1  0.31222424  0.74500633  0.25492252  1  0.634888  0  0.301994  0.333222  0  1.02197  0
H  H23  1  0.48212222  0.92759932  0.12579698  1  0.644516  0  0.344444  0.386633  0  0.873997  0
H  H24  1  0.99025167  0.85872430  0.36609177  1  0.648169  0  0.302871  0.387359  0  0.955286  0
H  H25  1  0.03740698  0.79349954  0.42823992  1  0.629084  0  0.329063  0.41663  0  0.86888  0
H  H26  1  0.04278510  0.03977141  0.21949823  1  0.133251  0  0.131754  0.112307  0  0.945194  0
H  H27  1  0.11167323  0.95752305  0.12412070  1  0.116125  0  0.125959  0.097342  0  0.959495  0
C  C28  1  0.38183161  0.40586835  0.71344247  1  1.612619  0  0.240069  0.603244  0  4.132502  0
C  C29  1  0.19288106  0.53950831  0.71493985  1  0.445985  0  0.00507  0.029984  0  3.874035  0
C  C30  1  0.18868109  0.63538325  0.65484307  1  0.405347  0  0.007728  0.033014  0  3.85001  0
C  C31  1  0.05752320  0.80961031  0.65831438  1  1.595213  0  0.236612  0.617947  0  4.136925  0
C  C32  1  0.59805935  0.56651922  0.99732540  1  1.584072  0  0.211877  0.485312  0  4.256688  0
C  C33  1  0.61817878  0.90586640  0.78655692  1  1.612548  0  0.240273  0.603243  0  4.13261  0
C  C34  1  0.80712012  0.03951065  0.78506248  1  0.445685  0  0.00505  0.030121  0  3.873799  0
C  C35  1  0.81131944  0.13538412  0.84515972  1  0.405474  0  0.007692  0.032929  0  3.849776  0
C  C36  1  0.94247619  0.30961322  0.84168846  1  1.595328  0  0.236578  0.617861  0  4.136995  0
C  C37  1  0.40193981  0.06652818  0.50267956  1  1.608396  0  0.21187  0.485329  0  4.256974  0
C  C38  1  0.61816762  0.59413516  0.28655201  1  1.612619  0  0.240185  0.603213  0  4.132677  0
C  C39  1  0.80711119  0.46049521  0.28506028  1  0.445952  0  0.005048  0.029975  0  3.874058  0
C  C40  1  0.81130798  0.36462432  0.34515663  1  0.40538  0  0.007706  0.032906  0  3.85  0
C  C41  1  0.94246567  0.19039726  0.34168750  1  1.595339  0  0.23664  0.6181  0  4.136596  0
C  C42  1  0.40194217  0.43347482  0.00267954  1  1.608048  0  0.21185  0.485262  0  4.257169  0
C  C43  1  0.38183022  0.09413576  0.21343671  1  1.612479  0  0.240259  0.603284  0  4.132559  0
C  C44  1  0.19288699  0.96048745  0.21493419  1  0.445977  0  0.005136  0.030035  0  3.874007  0
C  C45  1  0.18869075  0.86460857  0.15483869  1  0.405505  0  0.00767  0.032954  0  3.850023  0
C  C46  1  0.05752750  0.69038217  0.15831038  1  1.595013  0  0.236595  0.617776  0  4.137019  0
C  C47  1  0.59805836  0.93348210  0.49732669  1  1.583703  0  0.211919  0.485308  0  4.25681  0
O  O48  1  0.50478292  0.40105715  0.75715113  1  -1.20318  0  -0.349161  -0.580302  0  2.356038  0
O  O49  1  0.40972336  0.31162050  0.66787400  1  -1.216639  0  -0.37448  -0.602712  0  2.255607  0
O  O50  1  0.20339787  0.65608318  0.76401052  1  -1.163607  0  -0.403038  -0.523145  0  2.345524  0
O  O51  1  0.40104337  0.68375634  0.63334191  1  -1.155333  0  -0.416377  -0.532087  0  2.360603  0
O  O52  1  0.16172848  0.95839214  0.65711805  1  -1.179799  0  -0.350395  -0.592728  0  2.293566  0
O  O53  1  0.85495558  0.79398144  0.66239490  1  -1.165763  0  -0.37428  -0.594547  0  2.240916  0
O  O54  1  0.64357362  0.62627949  0.94686445  1  -1.188994  0  -0.365199  -0.574187  0  2.251418  0
O  O55  1  0.69614106  0.60369330  0.04368266  1  -1.188454  0  -0.378202  -0.581993  0  2.254261  0
O  O56  1  0.10008964  0.70929487  0.88890461  1  -1.264261  0  -0.611618  -0.802179  0  1.98673  0
O  O57  1  0.49524173  0.90103426  0.74285176  1  -1.203006  0  -0.34915  -0.580139  0  2.356385  0
O  O58  1  0.59028527  0.81162132  0.83213364  1  -1.216694  0  -0.374716  -0.602957  0  2.255445  0
O  O59  1  0.79658967  0.15607890  0.73599139  1  -1.163543  0  -0.403015  -0.523213  0  2.345634  0
O  O60  1  0.59895676  0.18375421  0.86666177  1  -1.155354  0  -0.416358  -0.532137  0  2.360314  0
O  O61  1  0.83827125  0.45839558  0.84288832  1  -1.179902  0  -0.350427  -0.592654  0  2.293567  0
O  O62  1  0.14504272  0.29398170  0.83760314  1  -1.165757  0  -0.374267  -0.594571  0  2.240966  0
O  O63  1  0.35641766  0.12626966  0.55313398  1  -1.189145  0  -0.36517  -0.574114  0  2.252208  0
O  O64  1  0.30385274  0.10370607  0.45631433  1  -1.188225  0  -0.378222  -0.582147  0  2.253829  0
O  O65  1  0.89990717  0.20929026  0.61109820  1  -1.263809  0  -0.611678  -0.802527  0  1.986495  0
O  O66  1  0.49522384  0.59894907  0.24284946  1  -1.203295  0  -0.349057  -0.580081  0  2.35647  0
O  O67  1  0.59027520  0.68839789  0.33212789  1  -1.216565  0  -0.374759  -0.602982  0  2.255368  0
O  O68  1  0.79659273  0.34392034  0.23599005  1  -1.163655  0  -0.403049  -0.523185  0  2.345596  0
O  O69  1  0.59894093  0.31625258  0.36665692  1  -1.155305  0  -0.416388  -0.532351  0  2.360241  0
O  O70  1  0.83826177  0.04161137  0.34288644  1  -1.179829  0  -0.350434  -0.59268  0  2.293369  0
O  O71  1  0.14503021  0.20602478  0.33760523  1  -1.165688  0  -0.37427  -0.594669  0  2.240899  0
O  O72  1  0.35642053  0.37372537  0.05313265  1  -1.189043  0  -0.365155  -0.574055  0  2.252305  0
O  O73  1  0.30385147  0.39630345  0.95631443  1  -1.188209  0  -0.378196  -0.582108  0  2.253848  0
O  O74  1  0.89992196  0.29069918  0.11109599  1  -1.264269  0  -0.611592  -0.802179  0  1.986772  0
O  O75  1  0.50476030  0.09896655  0.25714752  1  -1.202926  0  -0.349149  -0.580159  0  2.356101  0
O  O76  1  0.40973141  0.18836866  0.16786435  1  -1.216883  0  -0.374719  -0.602944  0  2.255659  0
O  O77  1  0.20340759  0.84392191  0.26400701  1  -1.163695  0  -0.403021  -0.523311  0  2.345677  0
O  O78  1  0.40105654  0.81623577  0.13333796  1  -1.155514  0  -0.416416  -0.532359  0  2.360311  0
O  O79  1  0.16173878  0.54159440  0.15711184  1  -1.179512  0  -0.350382  -0.59262  0  2.293497  0
O  O80  1  0.85497235  0.70601370  0.16239484  1  -1.165748  0  -0.374301  -0.594476  0  2.241054  0
O  O81  1  0.64357152  0.87372709  0.44686441  1  -1.188967  0  -0.365264  -0.574256  0  2.251499  0
O  O82  1  0.69613171  0.89630691  0.54368275  1  -1.18843  0  -0.378163  -0.581927  0  2.254302  0
O  O83  1  0.10008966  0.79070920  0.38890499  1  -1.264169  0  -0.611569  -0.802147  0  1.986784  0
