# generated using pymatgen
data_Zr6H35C64O36F5
_symmetry_space_group_name_H-M   'P 1'
_cell_length_a   14.84928796
_cell_length_b   14.86335678
_cell_length_c   14.83365057
_cell_angle_alpha   59.93744806
_cell_angle_beta   59.85511526
_cell_angle_gamma   59.83325625
_symmetry_Int_Tables_number   1
_chemical_formula_structural   Zr6H35C64O36F5
_chemical_formula_sum   'Zr6 H35 C64 O36 F5'
_cell_volume   2308.46846201
_cell_formula_units_Z   1
loop_
 _symmetry_equiv_pos_site_id
 _symmetry_equiv_pos_as_xyz
  1  'x, y, z'
loop_
 _atom_site_type_symbol
 _atom_site_label
 _atom_site_symmetry_multiplicity
 _atom_site_fract_x
 _atom_site_fract_y
 _atom_site_fract_z
 _atom_site_occupancy
 _atom_site_pbe_bader_charge
 _atom_site_pbe_bader_spin_density
 _atom_site_pbe_cm5_charge
 _atom_site_pbe_ddec_charge
 _atom_site_pbe_ddec_spin_density
 _atom_site_pbe_ddec_sum_bond_order
 _atom_site_pbe_magmom
Zr  Zr0  1  0.88303282  0.38052811  0.61733087  1  2.633812  0  1.623476  2.373628  0  2.761097  0
Zr  Zr1  1  0.12227057  0.61785100  0.37845263  1  2.638067  0  1.628166  2.374504  0  2.735743  0
Zr  Zr2  1  0.12136723  0.38087763  0.61969938  1  2.637806  0  1.630667  2.377934  0  2.7413  0
Zr  Zr3  1  0.88410868  0.61709262  0.37971362  1  2.636535  0  1.624308  2.370464  0  2.760677  0
Zr  Zr4  1  0.88323026  0.61788871  0.61871920  1  2.636204  0  1.6284  2.370483  0  2.752936  0
Zr  Zr5  1  0.12344281  0.37720286  0.38217337  1  2.63569  0  1.629704  2.372396  0  2.757241  0
H  H6  1  0.90800847  0.40864620  0.78135288  1  0.603657  0  0.326744  0.415738  0  0.870878  0
H  H7  1  0.90983021  0.77977039  0.40513740  1  0.61495  0  0.327253  0.415292  0  0.873199  0
H  H8  1  0.28423631  0.40504193  0.40711535  1  0.604737  0  0.332224  0.423533  0  0.857923  0
H  H9  1  0.91007295  0.40432059  0.40484116  1  0.613998  0  0.332234  0.424294  0  0.856354  0
H  H10  1  0.55217284  0.39627772  0.87604209  1  0.104273  0  0.112086  0.137263  0  1.004719  0
H  H11  1  0.57717328  0.71977903  0.91926518  1  0.091544  0  0.105417  0.12162  0  0.967058  0
H  H12  1  0.66222337  0.60227271  0.99685640  1  0.046758  0  0.092669  0.097485  0  1.0062  0
H  H13  1  0.49356702  0.59465700  0.16916286  1  0.040962  0  0.092594  0.103679  0  0.99214  0
H  H14  1  0.40935933  0.71159425  0.09048586  1  0.102754  0  0.10622  0.132619  0  0.982458  0
H  H15  1  0.87892147  0.06737626  0.65761748  1  0.10881  0  0.112872  0.141214  0  0.993096  0
H  H16  1  0.24518960  0.05946595  0.29386010  1  0.054196  0  0.097305  0.104863  0  1.016261  0
H  H17  1  0.13828125  0.13912832  0.23454274  1  0.072328  0  0.099428  0.111053  0  0.980567  0
H  H18  1  0.14013294  0.96504574  0.24165040  1  0.079102  0  0.10286  0.118507  0  0.970578  0
H  H19  1  0.24251354  0.88464147  0.30688726  1  0.081118  0  0.101707  0.120329  0  0.986113  0
H  H20  1  0.61036843  0.93022898  0.62265687  1  0.115308  0  0.118125  0.147598  0  0.981458  0
H  H21  1  0.50960878  0.84786843  0.37719400  1  0.045708  0  0.096132  0.108263  0  0.992674  0
H  H22  1  0.58825322  0.93546749  0.26877212  1  0.048419  0  0.096089  0.105513  0  0.989805  0
H  H23  1  0.41310520  0.10153478  0.28104289  1  0.080146  0  0.100398  0.112956  0  0.980402  0
H  H24  1  0.33685237  0.01349446  0.39362677  1  0.071259  0  0.101686  0.117241  0  0.987641  0
H  H25  1  0.15752393  0.36002409  0.07655043  1  0.150889  0  0.116961  0.146745  0  0.99118  0
H  H26  1  0.85941262  0.76957232  0.02154044  1  0.033697  0  0.094344  0.10268  0  0.985769  0
H  H27  1  0.76934232  0.69041355  0.10473015  1  0.0594  0  0.099433  0.111794  0  0.977564  0
H  H28  1  0.77189610  0.69216732  0.93243772  1  0.068734  0  0.09801  0.108059  0  1.012114  0
H  H29  1  0.86497289  0.76759463  0.84932741  1  0.094157  0  0.094275  0.113985  0  1.015626  0
H  H30  1  0.80857345  0.26541115  0.93293449  1  0.072326  0  0.101576  0.10661  0  1.03459  0
H  H31  1  0.65028078  0.26820683  0.10522911  1  0.069141  0  0.102408  0.101128  0  1.004863  0
H  H32  1  0.81090766  0.92723535  0.26576810  1  0.083897  0  0.101313  0.104793  0  1.045655  0
H  H33  1  0.65215732  0.09798866  0.27311708  1  0.077007  0  0.102868  0.099768  0  1.011138  0
H  H34  1  0.57501732  0.65878112  0.36656522  1  0.145753  0  0.112353  0.137099  0  1.004623  0
H  H35  1  0.53652911  0.33270469  0.75939416  1  0.067542  0  0.097494  0.107102  0  0.992882  0
H  H36  1  0.61892724  0.25383332  0.66839254  1  0.063068  0  0.098466  0.108836  0  0.981837  0
H  H37  1  0.44540956  0.26160123  0.66753372  1  0.099442  0  0.099533  0.120095  0  0.996181  0
H  H38  1  0.36346112  0.34221696  0.75646467  1  0.084265  0  0.099165  0.119173  0  0.992806  0
H  H39  1  0.10673383  0.72804597  0.99885879  1  0.599913  0  0.334405  0.367606  0  0.879492  0
H  H40  1  0.06298233  0.05773262  0.72111923  1  0.616286  0  0.327744  0.365213  0  0.901766  0
C  C41  1  0.69522594  0.50352715  0.79716178  1  1.515445  0  0.237955  0.645533  0  4.103617  0
C  C42  1  0.00355573  0.79843206  0.50230927  1  1.589209  0  0.236773  0.662842  0  4.108185  0
C  C43  1  0.30102351  0.49770526  0.19377061  1  1.567479  0  0.239133  0.669686  0  4.094559  0
C  C44  1  0.00951983  0.19172157  0.50004332  1  1.572572  0  0.234124  0.638872  0  4.114564  0
C  C45  1  0.00048384  0.19352186  0.80078192  1  1.557903  0  0.227945  0.616524  0  4.1748  0
C  C46  1  0.69502306  0.50418776  0.50355562  1  1.557609  0  0.238511  0.648178  0  4.09873  0
C  C47  1  0.00530352  0.79864719  0.19059539  1  1.575823  0  0.230879  0.628686  0  4.147443  0
C  C48  1  0.29736340  0.51051321  0.50216573  1  1.564284  0  0.236382  0.662491  0  4.107986  0
C  C49  1  0.00954008  0.50421157  0.79647430  1  1.569949  0  0.236404  0.66153  0  4.113064  0
C  C50  1  0.30178712  0.19335430  0.50954879  1  1.542774  0  0.238382  0.667917  0  4.103259  0
C  C51  1  0.01141021  0.50377081  0.19095446  1  1.556806  0  0.234695  0.640528  0  4.113064  0
C  C52  1  0.69808080  0.79886662  0.50083264  1  1.539001  0  0.237793  0.643359  0  4.105226  0
C  C53  1  0.59367106  0.50440584  0.89597517  1  0.024615  0  -0.009839  -0.052092  0  3.984561  0
C  C54  1  0.39901565  0.49924806  0.09175449  1  0.032248  0  -0.016961  -0.191419  0  3.95585  0
C  C55  1  0.55848073  0.56255857  0.96429792  1  -0.017886  0  -0.00589  0.048808  0  3.885111  0
C  C56  1  0.43518349  0.44207267  0.02036785  1  0.461096  0  0.106596  0.27849  0  4.028768  0
C  C57  1  0.46500498  0.55892075  0.05900339  1  -0.010647  0  0.005037  0.09494  0  3.895746  0
C  C58  1  0.52905442  0.44303274  0.92657168  1  0.041518  0  -0.096649  -0.238618  0  3.98482  0
C  C59  1  0.58326074  0.63792561  0.98297382  1  -0.050231  0  -0.148826  -0.193971  0  3.872414  0
C  C60  1  0.47769478  0.63310377  0.09081443  1  -0.011375  0  -0.151242  -0.205384  0  3.853073  0
C  C61  1  0.01006754  0.09164183  0.49944294  1  -0.011215  0  -0.010284  -0.050167  0  3.985453  0
C  C62  1  0.00469295  0.89702569  0.50392086  1  -0.020286  0  -0.019799  -0.194913  0  3.953544  0
C  C63  1  0.07942133  0.04820623  0.41329885  1  0.004731  0  -0.007658  0.044463  0  3.882166  0
C  C64  1  0.93409747  0.94378614  0.58936791  1  0.432273  0  0.106564  0.277825  0  4.038002  0
C  C65  1  0.07668218  0.95390897  0.41676305  1  0.030674  0  0.003066  0.089887  0  3.888549  0
C  C66  1  0.93632974  0.03645101  0.58861885  1  0.012082  0  -0.100856  -0.245629  0  4.003254  0
C  C67  1  0.16675297  0.06387407  0.29924120  1  -0.034255  0  -0.149147  -0.19415  0  3.871382  0
C  C68  1  0.16565846  0.95542395  0.30469284  1  -0.036313  0  -0.147165  -0.198827  0  3.85311  0
C  C69  1  0.59910361  0.90023300  0.50059872  1  -0.035491  0  -0.008108  -0.050311  0  3.981597  0
C  C70  1  0.40396076  0.09551901  0.50750291  1  0.054303  0  -0.016907  -0.193537  0  3.952771  0
C  C71  1  0.53625299  0.94230516  0.43442421  1  0.015653  0  -0.009058  0.040378  0  3.895181  0
C  C72  1  0.47061013  0.05295588  0.57172374  1  0.441399  0  0.114456  0.292416  0  4.024864  0
C  C73  1  0.44200663  0.03597989  0.43918194  1  -0.003169  0  0.001458  0.088247  0  3.896545  0
C  C74  1  0.56411913  0.95889914  0.56960493  1  0.075641  0  -0.089879  -0.226228  0  3.957984  0
C  C75  1  0.52259400  0.92540996  0.34981976  1  -0.018843  0  -0.150425  -0.194071  0  3.873672  0
C  C76  1  0.41429825  0.03018932  0.35740100  1  -0.055374  0  -0.149978  -0.204273  0  3.869806  0
C  C77  1  0.01656905  0.50986323  0.08541819  1  -0.013275  0  -0.011713  -0.053473  0  3.996683  0
C  C78  1  0.01701612  0.50819039  0.89061561  1  0.021142  0  -0.019327  -0.194556  0  3.946023  0
C  C79  1  0.94212638  0.59366938  0.03043109  1  -0.016948  0  -0.013516  0.033642  0  3.910331  0
C  C80  1  0.09493055  0.42652965  0.94526574  1  0.470483  0  0.10886  0.279011  0  4.026169  0
C  C81  1  0.94298552  0.59243705  0.93648838  1  -0.064608  0  -0.001006  0.084993  0  3.890524  0
C  C82  1  0.09560120  0.42639222  0.03869649  1  0.03268  0  -0.094444  -0.234652  0  3.983724  0
C  C83  1  0.84377954  0.69937846  0.03218384  1  -0.000131  0  -0.152009  -0.193249  0  3.884265  0
C  C84  1  0.84578473  0.69899920  0.92482262  1  -0.042067  0  -0.151472  -0.199308  0  3.856877  0
C  C85  1  0.99884988  0.09059841  0.90078298  1  0.029241  0  -0.002361  -0.085399  0  3.918001  0
C  C86  1  0.90604607  0.09516090  0.99994166  1  -0.031683  0  0.000991  0.065182  0  3.95133  0
C  C87  1  0.08867309  0.99393010  0.89499708  1  -0.030397  0  -0.007537  -0.090151  0  3.967711  0
C  C88  1  0.81184133  0.19227294  0.00638224  1  -0.024976  0  -0.088972  -0.124833  0  3.955799  0
C  C89  1  0.72243719  0.19334042  0.10270393  1  -0.029433  0  -0.086725  -0.072919  0  4.011014  0
C  C90  1  0.00247822  0.90059293  0.08954165  1  -0.017637  0  -0.00521  -0.094696  0  3.916208  0
C  C91  1  0.09232044  0.89894900  0.99218859  1  0.004628  0  -0.005071  -0.090638  0  3.96995  0
C  C92  1  0.90679396  0.99746478  0.09574169  1  0.024667  0  0.002797  0.068974  0  3.950231  0
C  C93  1  0.81313932  0.00160681  0.19365708  1  -0.060875  0  -0.090895  -0.131441  0  3.961361  0
C  C94  1  0.72331621  0.09730654  0.19715795  1  -0.018579  0  -0.084783  -0.06736  0  4.006049  0
C  C95  1  0.59036277  0.50916047  0.50803949  1  -0.06038  0  -0.00948  -0.050895  0  3.982332  0
C  C96  1  0.39298030  0.51571280  0.50561558  1  0.00214  0  -0.020094  -0.195774  0  3.949852  0
C  C97  1  0.53893769  0.43057864  0.58636435  1  0.070953  0  -0.006436  0.047215  0  3.885222  0
C  C98  1  0.44452328  0.59679504  0.42929052  1  0.490025  0  0.105961  0.274273  0  4.038746  0
C  C99  1  0.44383537  0.43448967  0.58461860  1  -0.054894  0  0.00281  0.090906  0  3.88376  0
C  C100  1  0.53931985  0.59433845  0.42930455  1  -0.009377  0  -0.099316  -0.242681  0  3.997987  0
C  C101  1  0.54541865  0.32524952  0.68507814  1  -0.045917  0  -0.149269  -0.191656  0  3.876525  0
C  C102  1  0.43721293  0.33023191  0.68370411  1  -0.043677  0  -0.148738  -0.201482  0  3.845392  0
C  C103  1  0.19339458  0.79598494  0.99215986  1  1.534731  0  0.236936  0.580216  0  4.10716  0
C  C104  1  0.17921115  0.98822153  0.78569619  1  1.532882  0  0.231867  0.572295  0  4.099642  0
O  O105  1  0.73535730  0.42680350  0.75747233  1  -1.181138  0  -0.359026  -0.623195  0  2.28749  0
O  O106  1  0.07890928  0.76257957  0.42271312  1  -1.173579  0  -0.345585  -0.603303  0  2.255371  0
O  O107  1  0.26293029  0.57459759  0.23239140  1  -1.173709  0  -0.346758  -0.603689  0  2.261027  0
O  O108  1  0.93326477  0.23012385  0.57782178  1  -1.196494  0  -0.356005  -0.625497  0  2.278587  0
O  O109  1  0.07516495  0.23206508  0.76697989  1  -1.154323  0  -0.326445  -0.573807  0  2.247952  0
O  O110  1  0.73665254  0.57863000  0.42516449  1  -1.184206  0  -0.356431  -0.618721  0  2.276434  0
O  O111  1  0.92929558  0.75903504  0.22965319  1  -1.179944  0  -0.349139  -0.617387  0  2.302787  0
O  O112  1  0.26132370  0.43176904  0.57831387  1  -1.162583  0  -0.34182  -0.598275  0  2.2544  0
O  O113  1  0.92947907  0.57916916  0.76141480  1  -1.174924  0  -0.344397  -0.604558  0  2.241293  0
O  O114  1  0.26290901  0.22982215  0.43324101  1  -1.166263  0  -0.348028  -0.611015  0  2.26719  0
O  O115  1  0.08417483  0.42393312  0.23361650  1  -1.175107  0  -0.348176  -0.603456  0  2.285413  0
O  O116  1  0.73795652  0.75869282  0.57717900  1  -1.173101  0  -0.354651  -0.611357  0  2.285684  0
O  O117  1  0.26059930  0.23498900  0.58490704  1  -1.16381  0  -0.3608  -0.621766  0  2.305485  0
O  O118  1  0.93159940  0.57877904  0.23170633  1  -1.179827  0  -0.357445  -0.617127  0  2.278804  0
O  O119  1  0.73684939  0.76056091  0.42328198  1  -1.173153  0  -0.351138  -0.612702  0  2.263335  0
O  O120  1  0.08178014  0.42523652  0.75882970  1  -1.171407  0  -0.362531  -0.621793  0  2.327096  0
O  O121  1  0.92533135  0.23207672  0.75964164  1  -1.175948  0  -0.357168  -0.627238  0  2.307547  0
O  O122  1  0.26029351  0.58226287  0.42264271  1  -1.174102  0  -0.36299  -0.624552  0  2.31023  0
O  O123  1  0.08191293  0.76152834  0.22848511  1  -1.168303  0  -0.336162  -0.594919  0  2.261383  0
O  O124  1  0.73646004  0.42421533  0.57767692  1  -1.175955  0  -0.350808  -0.610288  0  2.26113  0
O  O125  1  0.08490864  0.23203597  0.42201830  1  -1.1792  0  -0.348097  -0.602219  0  2.2648  0
O  O126  1  0.73634006  0.57773573  0.76108421  1  -1.164324  0  -0.348543  -0.606041  0  2.258482  0
O  O127  1  0.92736713  0.75829848  0.57811159  1  -1.168953  0  -0.360884  -0.622427  0  2.31299  0
O  O128  1  0.26408908  0.41854880  0.23762597  1  -1.175955  0  -0.363007  -0.625545  0  2.308548  0
O  O129  1  0.93634467  0.43064298  0.43213495  1  -1.240316  0  -0.695649  -1.074006  0  2.366744  0
O  O130  1  0.20409623  0.43124105  0.43384305  1  -1.231613  0  -0.69409  -1.071067  0  2.371162  0
O  O131  1  0.93608692  0.69983813  0.42996252  1  -1.246794  0  -0.695158  -1.071022  0  2.376381  0
O  O132  1  0.93455642  0.43211967  0.70131853  1  -1.237277  0  -0.69378  -1.070738  0  2.367374  0
O  O133  1  0.05170397  0.54909176  0.54806143  1  -1.201041  0  -0.790391  -1.150914  0  2.132547  0
O  O134  1  0.85395145  0.54841438  0.54844475  1  -1.20202  0  -0.791514  -1.148918  0  2.12903  0
O  O135  1  0.05278708  0.54683071  0.35103129  1  -1.202591  0  -0.790121  -1.148846  0  2.124599  0
O  O136  1  0.05160544  0.35027706  0.55063237  1  -1.200361  0  -0.791498  -1.151541  0  2.126949  0
O  O137  1  0.18115180  0.70788679  0.99701465  1  -1.086806  0  -0.330657  -0.467586  0  2.193666  0
O  O138  1  0.27916496  0.78794832  0.99063802  1  -1.080954  0  -0.239116  -0.399561  0  2.123783  0
O  O139  1  0.14379594  0.03015535  0.69844224  1  -1.10778  0  -0.335037  -0.470949  0  2.212524  0
O  O140  1  0.27732077  0.94763011  0.77162231  1  -1.09502  0  -0.25573  -0.41438  0  2.096483  0
F  F141  1  0.37600247  0.38338565  0.04130436  1  -0.631976  0  -0.104471  -0.141954  0  1.341447  0
F  F142  1  0.85821344  0.89821714  0.67879283  1  -0.636313  0  -0.092493  -0.136359  0  1.386029  0
F  F143  1  0.44531705  0.10525762  0.63885186  1  -0.631988  0  -0.092938  -0.136058  0  1.366304  0
F  F144  1  0.17384069  0.34102559  0.90818273  1  -0.626335  0  -0.092852  -0.133006  0  1.368686  0
F  F145  1  0.40205625  0.68282057  0.34947696  1  -0.636888  0  -0.096917  -0.140926  0  1.367664  0
