# generated using pymatgen
data_MnPH12C7NO5
_symmetry_space_group_name_H-M   'P 1'
_cell_length_a   9.02421594
_cell_length_b   10.23940223
_cell_length_c   11.10671598
_cell_angle_alpha   107.44107939
_cell_angle_beta   89.99997754
_cell_angle_gamma   90.00015160
_symmetry_Int_Tables_number   1
_chemical_formula_structural   MnPH12C7NO5
_chemical_formula_sum   'Mn4 P4 H48 C28 N4 O20'
_cell_volume   979.10622924
_cell_formula_units_Z   4
loop_
 _symmetry_equiv_pos_site_id
 _symmetry_equiv_pos_as_xyz
  1  'x, y, z'
loop_
 _atom_site_type_symbol
 _atom_site_label
 _atom_site_symmetry_multiplicity
 _atom_site_fract_x
 _atom_site_fract_y
 _atom_site_fract_z
 _atom_site_occupancy
 _atom_site_hle17_ddec_charge
 _atom_site_hle17_ddec_spin_density
 _atom_site_hle17_ddec_sum_bond_order
 _atom_site_hle17_magmom
 _atom_site_hse06_10hf_ddec_charge
 _atom_site_hse06_10hf_ddec_spin_density
 _atom_site_hse06_10hf_ddec_sum_bond_order
 _atom_site_hse06_10hf_magmom
 _atom_site_hse06_ddec_charge
 _atom_site_hse06_ddec_spin_density
 _atom_site_hse06_ddec_sum_bond_order
 _atom_site_hse06_magmom
 _atom_site_pbe_cm5_charge
 _atom_site_pbe_ddec_charge
 _atom_site_pbe_ddec_spin_density
 _atom_site_pbe_ddec_sum_bond_order
 _atom_site_pbe_magmom
Mn  Mn0  1  0.89932449  0.64204822  0.15579729  1  1.270645  4.783418  1.737721  4.648  1.107986  4.719816  2.262319  4.507  1.17454  4.760914  2.179309  4.571  0.615993  1.053119  4.680606  2.325652  4.447
Mn  Mn1  1  0.60067508  0.14204742  0.15579756  1  1.270681  4.783411  1.737727  4.648  1.107968  4.719815  2.262375  4.507  1.174533  4.760915  2.179348  4.571  0.615997  1.053102  4.680608  2.325707  4.447
Mn  Mn2  1  0.10067501  0.35795201  0.84420122  1  1.270696  4.78341  1.73769  4.648  1.108031  4.719811  2.262284  4.507  1.174573  4.760917  2.179291  4.571  0.615995  1.053161  4.680605  2.325615  4.447
Mn  Mn3  1  0.39932331  0.85795281  0.84420185  1  1.270648  4.783406  1.73769  4.648  1.107993  4.719807  2.262303  4.507  1.174527  4.760906  2.179328  4.571  0.615989  1.053123  4.680596  2.325636  4.447
P  P4  1  0.68885331  0.81598974  0.00418958  1  1.49856  0.018929  4.910866  0.014  1.345274  0.029541  5.406326  0.019  1.398079  0.023168  5.369151  0.016  0.354554  1.306617  0.035677  5.431928  0.022
P  P5  1  0.81114574  0.31598946  0.00418904  1  1.498647  0.018928  4.91084  0.014  1.345345  0.029538  5.406301  0.019  1.398147  0.02316  5.369128  0.016  0.354582  1.306692  0.035675  5.431905  0.022
P  P6  1  0.31114618  0.18401048  0.99581073  1  1.498706  0.018936  4.910742  0.014  1.345398  0.029539  5.406199  0.019  1.398199  0.023157  5.369025  0.016  0.354605  1.306741  0.035674  5.431805  0.022
P  P7  1  0.18885265  0.68401076  0.99581127  1  1.498651  0.018931  4.910901  0.014  1.345341  0.029543  5.406378  0.019  1.398143  0.023168  5.3692  0.016  0.354598  1.306683  0.035677  5.431983  0.022
H  H8  1  0.74303740  0.85651060  0.75955285  1  0.281261  -0.000436  0.881955  0.0  0.268127  -0.000418  0.937178  0.0  0.274935  -0.000459  0.932807  0.0  0.320896  0.263074  -0.000387  0.940542  0.0
H  H9  1  0.75696141  0.35651121  0.75955256  1  0.281235  -0.000437  0.882009  0.0  0.268099  -0.000418  0.937235  0.0  0.274907  -0.000458  0.932865  0.0  0.320889  0.263046  -0.000387  0.940599  0.0
H  H10  1  0.25696209  0.14348962  0.24044746  1  0.281224  -0.000438  0.882017  0.0  0.26809  -0.000418  0.93724  0.0  0.274897  -0.000458  0.932871  0.0  0.320885  0.263037  -0.000387  0.940605  0.0
H  H11  1  0.24303698  0.64348901  0.24044775  1  0.281239  -0.000438  0.881975  0.0  0.268111  -0.000418  0.937197  0.0  0.274918  -0.000458  0.932828  0.0  0.320885  0.263057  -0.000387  0.940561  0.0
H  H12  1  0.95199178  0.84855690  0.96491275  1  0.138608  -0.000711  0.962146  0.0  0.148248  -0.000596  1.026235  0.0  0.150991  -0.000698  1.025496  0.0  0.122595  0.145395  -0.000534  1.028223  0.0
H  H13  1  0.54800801  0.34855700  0.96491329  1  0.138607  -0.000728  0.962152  0.0  0.148243  -0.000596  1.02625  0.0  0.150985  -0.0007  1.025512  0.0  0.122594  0.14539  -0.000534  1.028239  0.0
H  H14  1  0.04800771  0.15144434  0.03508694  1  0.138597  -0.000703  0.962166  0.0  0.14821  -0.000596  1.026286  0.0  0.150951  -0.000698  1.025546  0.0  0.122586  0.145358  -0.000534  1.028273  0.0
H  H15  1  0.45199148  0.65144322  0.03508702  1  0.138604  -0.000712  0.962164  0.0  0.148222  -0.000596  1.026279  0.0  0.150963  -0.000699  1.025536  0.0  0.122596  0.145369  -0.000534  1.028264  0.0
H  H16  1  0.83985705  0.99290662  0.96548440  1  0.140407  -0.000556  0.977377  0.0  0.149913  -0.000346  1.039864  0.0  0.152682  -0.000473  1.039343  0.0  0.122234  0.147822  -0.000167  1.040329  0.0
H  H17  1  0.66014318  0.49290596  0.96548470  1  0.140417  -0.000576  0.977375  0.0  0.149919  -0.000345  1.039875  0.0  0.152688  -0.000473  1.039353  0.0  0.12224  0.147827  -0.000166  1.040338  0.0
H  H18  1  0.16014245  0.00709463  0.03451619  1  0.140404  -0.000551  0.977357  0.0  0.149902  -0.000345  1.039857  0.0  0.152671  -0.000472  1.039335  0.0  0.122234  0.14781  -0.000166  1.04032  0.0
H  H19  1  0.33985632  0.50709323  0.03451442  1  0.140387  -0.000561  0.977385  0.0  0.149926  -0.000345  1.039837  0.0  0.152696  -0.000473  1.039315  0.0  0.122229  0.147833  -0.000167  1.040304  0.0
H  H20  1  0.98559115  0.66573892  0.76872956  1  0.100594  -0.000661  0.929671  0.0  0.11476  -0.000723  0.988807  0.0  0.116203  -0.00076  0.988639  0.0  0.118589  0.113659  -0.000688  0.988973  0.0
H  H21  1  0.51440708  0.16573893  0.76873009  1  0.100556  -0.000646  0.929691  0.0  0.114726  -0.000724  0.98883  0.0  0.116168  -0.00076  0.988662  0.0  0.118573  0.113625  -0.000688  0.988995  0.0
H  H22  1  0.01440835  0.33426130  0.23126985  1  0.100563  -0.000651  0.929678  0.0  0.114742  -0.000724  0.988813  0.0  0.116183  -0.00076  0.988646  0.0  0.118585  0.113642  -0.000688  0.988979  0.0
H  H23  1  0.48559574  0.83425720  0.23126909  1  0.100545  -0.000654  0.929649  0.0  0.11473  -0.000724  0.988788  0.0  0.116174  -0.00076  0.988619  0.0  0.118563  0.113621  -0.000688  0.988964  0.0
H  H24  1  0.79225907  0.63337945  0.76955679  1  0.089039  -0.000353  0.925983  0.0  0.10452  -0.000318  0.984555  0.0  0.105775  -0.000384  0.984166  0.0  0.117154  0.103413  -0.000237  0.985157  0.0
H  H25  1  0.70773906  0.13337994  0.76955739  1  0.08904  -0.000341  0.926003  0.0  0.104517  -0.000318  0.984581  0.0  0.105772  -0.000384  0.984192  0.0  0.117163  0.103411  -0.000237  0.985183  0.0
H  H26  1  0.20774043  0.36662077  0.23044262  1  0.089012  -0.000338  0.925999  0.0  0.1045  -0.000318  0.984579  0.0  0.105755  -0.000383  0.984191  0.0  0.117149  0.103393  -0.000237  0.985182  0.0
H  H27  1  0.29226597  0.86661926  0.23044083  1  0.089066  -0.000341  0.925987  0.0  0.104553  -0.000318  0.984575  0.0  0.105808  -0.000383  0.984185  0.0  0.117186  0.103448  -0.000237  0.985169  0.0
H  H28  1  0.89233970  0.54125078  0.55280936  1  0.092886  -0.00017  0.952309  0.0  0.108909  -0.000155  1.013687  0.0  0.109971  -0.000167  1.013962  0.0  0.100496  0.108109  -0.000134  1.01337  0.0
H  H29  1  0.60765937  0.04125102  0.55280992  1  0.092903  -0.000179  0.952297  0.0  0.108915  -0.000155  1.01367  0.0  0.109977  -0.000167  1.013948  0.0  0.100504  0.108128  -0.000134  1.013337  0.0
H  H30  1  0.10766090  0.45874944  0.44719005  1  0.09288  -0.000162  0.952317  0.0  0.108909  -0.000155  1.013681  0.0  0.10997  -0.000167  1.013958  0.0  0.100492  0.108109  -0.000134  1.013364  0.0
H  H31  1  0.39234123  0.95874818  0.44718830  1  0.092901  -0.000164  0.952301  0.0  0.10892  -0.000155  1.013681  0.0  0.109982  -0.000167  1.013955  0.0  0.100498  0.108119  -0.000134  1.013366  0.0
H  H32  1  0.76189643  0.67243643  0.55983293  1  0.082481  -0.000194  0.947392  0.0  0.097835  -0.000179  1.0119  0.0  0.098677  -0.000203  1.012642  0.0  0.09742  0.097025  -0.00015  1.011609  0.0
H  H33  1  0.73810192  0.17243699  0.55983355  1  0.082498  -0.000199  0.947402  0.0  0.097848  -0.000179  1.011902  0.0  0.09869  -0.000203  1.012643  0.0  0.097429  0.097037  -0.00015  1.011612  0.0
H  H34  1  0.23810196  0.32756379  0.44016647  1  0.082495  -0.000183  0.947393  0.0  0.097849  -0.00018  1.011894  0.0  0.098691  -0.000203  1.012636  0.0  0.097428  0.097039  -0.00015  1.011601  0.0
H  H35  1  0.26189868  0.82756221  0.44016468  1  0.082521  -0.000185  0.947385  0.0  0.097881  -0.000179  1.011879  0.0  0.098722  -0.000202  1.01262  0.0  0.09744  0.09707  -0.00015  1.011587  0.0
H  H36  1  0.09972593  0.70827431  0.56562297  1  0.084684  -7.2e-05  0.930516  0.0  0.09398  -2.2e-05  0.993274  0.0  0.09656  -0.000127  0.991674  0.0  0.102076  0.092643  8.8e-05  0.993629  0.001
H  H37  1  0.40027207  0.20827425  0.56562336  1  0.084683  -7e-05  0.930504  0.0  0.093997  -2.2e-05  0.993259  0.0  0.096577  -0.000128  0.99166  0.0  0.102077  0.09266  8.8e-05  0.993617  0.001
H  H38  1  0.90027245  0.29172693  0.43437582  1  0.084687  -7.3e-05  0.930487  0.0  0.093999  -2.2e-05  0.99325  0.0  0.096581  -0.000128  0.99165  0.0  0.102091  0.092663  8.8e-05  0.993609  0.001
H  H39  1  0.59972742  0.79172495  0.43437667  1  0.084663  -6.5e-05  0.930534  0.0  0.093988  -2.2e-05  0.993282  0.0  0.096569  -0.000127  0.991683  0.0  0.102065  0.09265  8.8e-05  0.993639  0.001
H  H40  1  0.85273571  0.91549849  0.57158042  1  0.086838  -0.000131  0.939786  0.0  0.098911  -6.2e-05  1.010622  0.0  0.100831  -0.000112  1.009535  0.0  0.097851  0.097744  1e-06  1.010765  0.0
H  H41  1  0.64726337  0.41549985  0.57158128  1  0.086781  -0.000137  0.939841  0.0  0.098871  -6.2e-05  1.010657  0.0  0.100788  -0.000113  1.009574  0.0  0.097837  0.097704  1e-06  1.010799  0.0
H  H42  1  0.14726268  0.08450173  0.42841899  1  0.086807  -0.000116  0.939812  0.0  0.098903  -6.2e-05  1.010621  0.0  0.100822  -0.000112  1.009535  0.0  0.097845  0.097736  1e-06  1.010762  0.0
H  H43  1  0.35273613  0.58450140  0.42842021  1  0.086767  -0.00013  0.939829  0.0  0.098875  -6.2e-05  1.010626  0.0  0.100794  -0.000112  1.009539  0.0  0.097828  0.097708  1e-06  1.010767  0.0
H  H44  1  0.04586898  0.94979696  0.57802686  1  0.087916  -0.000156  0.928529  0.0  0.107151  -0.000168  0.986042  0.0  0.107606  -0.000174  0.987081  0.0  0.10283  0.106636  -0.000125  0.985714  0.0
H  H45  1  0.45412974  0.44979702  0.57802727  1  0.087887  -0.000156  0.928557  0.0  0.107145  -0.000168  0.986044  0.0  0.107609  -0.000174  0.987071  0.0  0.102824  0.10663  -0.000125  0.985716  0.0
H  H46  1  0.95412940  0.05020429  0.42197283  1  0.0879  -0.000126  0.928591  0.0  0.107169  -0.000168  0.986063  0.0  0.107623  -0.000173  0.987105  0.0  0.102835  0.106654  -0.000125  0.985736  0.0
H  H47  1  0.54586865  0.55020320  0.42197394  1  0.08791  -0.000143  0.928525  0.0  0.107147  -0.000169  0.98604  0.0  0.107602  -0.000173  0.987079  0.0  0.102824  0.106632  -0.000125  0.985714  0.0
H  H48  1  0.93518470  0.03055955  0.79320862  1  0.097584  -0.000559  0.937744  0.0  0.112088  -0.000421  0.995802  0.0  0.113808  -0.000496  0.995207  0.0  0.116325  0.110769  -0.000278  0.996338  0.0
H  H49  1  0.56481533  0.53055954  0.79320912  1  0.097574  -0.000557  0.937741  0.0  0.11208  -0.000421  0.995795  0.0  0.1138  -0.000495  0.995198  0.0  0.116321  0.110761  -0.000278  0.996329  0.0
H  H50  1  0.06481590  0.96944067  0.20679169  1  0.097589  -0.00054  0.937687  0.0  0.112102  -0.000421  0.995743  0.0  0.113822  -0.000495  0.995148  0.0  0.116329  0.110783  -0.000278  0.996277  0.0
H  H51  1  0.43518417  0.46943864  0.20679242  1  0.097577  -0.000537  0.937739  0.0  0.112091  -0.000421  0.99581  0.0  0.113811  -0.000495  0.995215  0.0  0.116317  0.110773  -0.000278  0.996346  0.0
H  H52  1  0.06838383  0.89887666  0.78202154  1  0.089252  0.000492  0.913698  0.0  0.104984  0.001349  0.974723  0.0  0.106037  0.000988  0.974198  0.0  0.120118  0.103754  0.001587  0.976124  0.0
H  H53  1  0.43161575  0.39887770  0.78202222  1  0.08925  0.000515  0.913689  0.0  0.104963  0.001349  0.974739  0.0  0.106016  0.000989  0.974213  0.0  0.120125  0.103732  0.001587  0.976138  0.0
H  H54  1  0.93161677  0.10112254  0.21797758  1  0.089241  0.000518  0.91371  0.0  0.104988  0.001348  0.974729  0.0  0.10604  0.000989  0.974204  0.0  0.12012  0.103756  0.001586  0.976134  0.0
H  H55  1  0.56838486  0.60112253  0.21797899  1  0.089262  0.000537  0.913686  0.0  0.104965  0.001348  0.974775  0.0  0.106016  0.00099  0.974251  0.0  0.120117  0.103736  0.001587  0.976175  0.0
C  C56  1  0.84687689  0.88062762  0.93314795  1  -0.360196  0.000951  3.506298  0.002  -0.398227  0.001661  3.747621  0.002  -0.404489  0.000924  3.754302  0.002  -0.076431  -0.392896  0.00226  3.743316  0.003
C  C57  1  0.65312302  0.38062695  0.93314735  1  -0.360233  0.001016  3.506299  0.002  -0.398271  0.001657  3.747638  0.002  -0.404533  0.000929  3.754319  0.002  -0.07645  -0.392939  0.00226  3.743333  0.003
C  C58  1  0.15312261  0.11937260  0.06685326  1  -0.360223  0.000931  3.506293  0.002  -0.39824  0.001659  3.747647  0.002  -0.404497  0.000928  3.754322  0.002  -0.076428  -0.392906  0.00226  3.743342  0.003
C  C59  1  0.34687648  0.61937122  0.06685240  1  -0.360182  0.000961  3.506358  0.002  -0.398205  0.001658  3.747634  0.002  -0.404462  0.000928  3.754309  0.002  -0.076431  -0.392874  0.00226  3.743331  0.003
C  C60  1  0.87758956  0.68799231  0.73366771  1  0.000581  -5.8e-05  3.509887  0.0  -0.05653  5e-05  3.763731  0.0  -0.053266  -0.000114  3.773916  0.0  -0.059062  -0.058562  0.000244  3.756919  0.001
C  C61  1  0.62240875  0.18799156  0.73366709  1  0.000643  -0.000101  3.509888  0.0  -0.056475  4.8e-05  3.763723  0.0  -0.053211  -0.000111  3.773907  0.0  -0.059038  -0.058508  0.000244  3.756918  0.001
C  C62  1  0.12240993  0.31200894  0.26633289  1  0.000704  -9.7e-05  3.509832  0.0  -0.056449  5.3e-05  3.763723  0.0  -0.053185  -0.000117  3.773907  0.0  -0.05902  -0.058481  0.000244  3.756916  0.001
C  C63  1  0.37759407  0.81200661  0.26633265  1  0.000604  -8.4e-05  3.509905  0.0  -0.05657  5e-05  3.76385  0.0  -0.053309  -0.000115  3.774033  0.0  -0.059102  -0.058598  0.000244  3.757043  0.001
C  C64  1  0.87279245  0.65167699  0.59066495  1  -0.144386  0.000105  3.651653  0.0  -0.190941  0.000395  3.907146  0.001  -0.191501  0.000231  3.919583  0.0  -0.160933  -0.190349  0.000597  3.898789  0.001
C  C65  1  0.62720693  0.15167728  0.59066462  1  -0.144474  0.000127  3.651674  0.0  -0.190977  0.000396  3.907159  0.001  -0.191538  0.000227  3.919596  0.0  -0.16096  -0.190393  0.000596  3.898801  0.001
C  C66  1  0.12720704  0.34832323  0.40933536  1  -0.144455  7.9e-05  3.651672  0.0  -0.190974  0.000395  3.907179  0.001  -0.191535  0.000232  3.919617  0.0  -0.160953  -0.190381  0.000596  3.898822  0.001
C  C67  1  0.37279478  0.84832192  0.40933451  1  -0.144491  8.7e-05  3.651678  0.0  -0.191012  0.000396  3.907184  0.001  -0.191569  0.000228  3.919617  0.0  -0.160951  -0.190417  0.000596  3.898822  0.001
C  C68  1  0.98756045  0.73416944  0.54107041  1  -0.126569  -0.001212  3.650941  -0.001  -0.13035  -0.000477  3.896482  0.0  -0.13604  -0.000781  3.909259  -0.001  -0.093701  -0.126715  -0.000136  3.88792  0.0
C  C69  1  0.51243809  0.23416945  0.54107094  1  -0.126517  -0.00123  3.650844  -0.001  -0.130389  -0.000478  3.896528  0.0  -0.136078  -0.000776  3.9093  -0.001  -0.093711  -0.126755  -0.000136  3.887973  0.0
C  C70  1  0.01243904  0.26583180  0.45892929  1  -0.126498  -0.001191  3.650812  -0.001  -0.130364  -0.00048  3.896508  0.0  -0.136054  -0.000787  3.90928  -0.001  -0.093712  -0.12673  -0.000136  3.887952  0.0
C  C71  1  0.48756140  0.76583179  0.45892876  1  -0.126529  -0.001217  3.650888  -0.001  -0.130383  -0.000481  3.896547  0.0  -0.136072  -0.000781  3.909319  -0.001  -0.093704  -0.126744  -0.000136  3.887985  0.0
C  C72  1  0.95979537  0.88734941  0.60417747  1  -0.138673  0.000129  3.658712  0.0  -0.188031  0.000409  3.921142  0.001  -0.188326  0.000226  3.933214  0.0  -0.159704  -0.187973  0.000624  3.913317  0.001
C  C73  1  0.54020360  0.38734846  0.60417682  1  -0.138613  0.000157  3.658701  0.0  -0.187981  0.000408  3.921157  0.001  -0.188283  0.000227  3.933231  0.0  -0.159681  -0.187924  0.000624  3.913333  0.001
C  C74  1  0.04020301  0.11265286  0.39582341  1  -0.138664  8e-05  3.658682  0.0  -0.188047  0.000409  3.921175  0.001  -0.188343  0.000221  3.933248  0.0  -0.159696  -0.18799  0.000624  3.913351  0.001
C  C75  1  0.45979589  0.61265074  0.39582320  1  -0.138586  0.000125  3.658647  0.0  -0.187942  0.000411  3.921127  0.001  -0.188241  0.000224  3.933201  0.0  -0.159667  -0.187885  0.000624  3.913303  0.001
C  C76  1  0.96062427  0.92212930  0.74704089  1  0.002864  0.000436  3.493483  0.0  -0.052097  0.000959  3.745584  0.001  -0.048895  0.000697  3.75578  0.001  -0.056039  -0.054157  0.001239  3.739128  0.001
C  C77  1  0.53937585  0.42212937  0.74704053  1  0.002889  0.000387  3.493464  0.0  -0.052056  0.000959  3.745561  0.001  -0.048853  0.000694  3.755758  0.001  -0.056028  -0.054115  0.001239  3.739103  0.001
C  C78  1  0.03937522  0.07787195  0.25295970  1  0.002874  0.00037  3.493429  0.0  -0.052107  0.000961  3.74555  0.001  -0.048905  0.000696  3.755746  0.001  -0.056047  -0.054166  0.001239  3.739097  0.001
C  C79  1  0.46062476  0.57786880  0.25295831  1  0.002851  0.00033  3.493466  0.0  -0.05214  0.000962  3.745662  0.001  -0.048937  0.000694  3.755858  0.001  -0.056019  -0.054201  0.001239  3.739209  0.001
C  C80  1  0.97742326  0.69634944  0.39801243  1  0.668092  0.006624  3.830138  0.005  0.624008  0.011741  4.121004  0.009  0.65737  0.009347  4.116308  0.007  0.215605  0.600719  0.014152  4.12303  0.01
C  C81  1  0.52257635  0.19634947  0.39801206  1  0.668001  0.006601  3.830106  0.005  0.623899  0.011743  4.121026  0.009  0.657264  0.009346  4.116328  0.007  0.215535  0.600611  0.014152  4.123052  0.01
C  C82  1  0.02257623  0.30365078  0.60198698  1  0.668047  0.006626  3.830058  0.005  0.623949  0.011743  4.120981  0.009  0.657311  0.00935  4.116284  0.007  0.215559  0.60066  0.014153  4.123007  0.01
C  C83  1  0.47742426  0.80365075  0.60198735  1  0.668142  0.006643  3.830065  0.005  0.624047  0.01174  4.120978  0.009  0.657408  0.009351  4.116281  0.007  0.215601  0.600756  0.014152  4.123006  0.01
N  N84  1  0.84793291  0.83835369  0.79204505  1  -0.053324  -0.000152  3.36733  0.0  0.029351  9.2e-05  3.573205  0.0  0.017826  -4.9e-05  3.592563  0.0  -0.343579  0.037112  0.000278  3.560102  0.0
N  N85  1  0.65206583  0.33835404  0.79204473  1  -0.053286  -0.000131  3.367358  0.0  0.029396  9.3e-05  3.573228  0.0  0.01787  -4.8e-05  3.592588  0.0  -0.343572  0.037157  0.000278  3.560124  0.0
N  N86  1  0.15206659  0.16164653  0.20795526  1  -0.053294  -0.000114  3.367381  0.0  0.029396  9e-05  3.573259  0.0  0.017872  -4.9e-05  3.592618  0.0  -0.343573  0.037158  0.000278  3.560157  0.0
N  N87  1  0.34793366  0.66164516  0.20795440  1  -0.053287  -0.000123  3.36739  0.0  0.029414  9.2e-05  3.573288  0.0  0.01789  -5e-05  3.592647  0.0  -0.343556  0.037177  0.000278  3.560178  0.0
O  O88  1  0.73848292  0.69688108  0.05143025  1  -0.88724  0.049598  2.021222  0.033  -0.797346  0.059918  2.326922  0.037  -0.831086  0.052699  2.299328  0.031  -0.380076  -0.771252  0.066522  2.347391  0.043
O  O89  1  0.76151464  0.19688067  0.05142879  1  -0.887299  0.049597  2.021239  0.033  -0.79738  0.059921  2.32694  0.037  -0.831124  0.052703  2.299351  0.031  -0.380085  -0.771285  0.066524  2.34741  0.043
O  O90  1  0.26151547  0.30311915  0.94857096  1  -0.887324  0.049601  2.021202  0.033  -0.797426  0.05992  2.326925  0.037  -0.831166  0.052702  2.299333  0.031  -0.380092  -0.771331  0.066523  2.347394  0.043
O  O91  1  0.23848596  0.80311955  0.94857152  1  -0.887285  0.049604  2.021195  0.033  -0.797387  0.059919  2.326909  0.037  -0.831125  0.052699  2.299317  0.031  -0.380094  -0.771292  0.066524  2.347378  0.043
O  O92  1  0.63595248  0.93865227  0.11245357  1  -0.88756  0.048155  2.005955  0.029  -0.799825  0.059875  2.312231  0.034  -0.833405  0.052422  2.282888  0.028  -0.377538  -0.773454  0.066249  2.332155  0.039
O  O93  1  0.86404800  0.43865109  0.11245186  1  -0.887574  0.048147  2.005994  0.029  -0.799837  0.059875  2.312254  0.034  -0.833413  0.052425  2.28291  0.028  -0.377557  -0.773467  0.066247  2.33218  0.039
O  O94  1  0.36404813  0.06134898  0.88754793  1  -0.887583  0.04815  2.005971  0.029  -0.799857  0.059878  2.312247  0.034  -0.833427  0.05243  2.282896  0.028  -0.377572  -0.773486  0.066249  2.332173  0.039
O  O95  1  0.13595150  0.56134811  0.88754817  1  -0.887616  0.048151  2.006028  0.029  -0.79986  0.059879  2.312289  0.034  -0.833439  0.052429  2.282953  0.028  -0.377556  -0.773491  0.066251  2.332216  0.039
O  O96  1  0.57530521  0.76494972  0.89716772  1  -0.900496  0.048937  2.040074  0.03  -0.812557  0.057979  2.342623  0.033  -0.846219  0.050986  2.316167  0.027  -0.382466  -0.786276  0.065135  2.361426  0.04
O  O97  1  0.92469437  0.26494869  0.89716783  1  -0.900529  0.048931  2.040046  0.03  -0.812586  0.05798  2.342604  0.033  -0.846239  0.050985  2.316135  0.027  -0.38247  -0.786305  0.065135  2.361407  0.04
O  O98  1  0.42469429  0.23505153  0.10283287  1  -0.900567  0.048935  2.040081  0.03  -0.81259  0.057981  2.342626  0.033  -0.846242  0.050983  2.316151  0.027  -0.382484  -0.786308  0.065136  2.36143  0.04
O  O99  1  0.07530513  0.73505051  0.10283220  1  -0.900515  0.048939  2.040113  0.03  -0.812569  0.057979  2.342668  0.033  -0.846225  0.050985  2.3162  0.027  -0.382466  -0.786289  0.065136  2.361471  0.04
O  O100  1  0.08051312  0.62721501  0.33008856  1  -0.655451  0.012585  1.964643  0.008  -0.599676  0.020191  2.200089  0.015  -0.626357  0.017548  2.191195  0.013  -0.31264  -0.579387  0.02273  2.204592  0.017
O  O101  1  0.41948586  0.12721499  0.33008895  1  -0.655398  0.012597  1.964633  0.008  -0.599568  0.020191  2.200034  0.015  -0.626253  0.017544  2.191141  0.013  -0.3126  -0.579279  0.022729  2.204535  0.017
O  O102  1  0.91948527  0.37278522  0.66991085  1  -0.655451  0.012589  1.964606  0.008  -0.599628  0.020193  2.200023  0.015  -0.626308  0.017547  2.191129  0.013  -0.312623  -0.579339  0.02273  2.204524  0.017
O  O103  1  0.58051363  0.87278626  0.66991164  1  -0.655493  0.012577  1.964631  0.008  -0.599667  0.020193  2.200038  0.015  -0.626344  0.017548  2.191141  0.013  -0.312626  -0.579377  0.022729  2.204542  0.017
O  O104  1  0.86087137  0.73314126  0.34997231  1  -0.658378  0.035063  1.941304  0.022  -0.590457  0.039909  2.193423  0.022  -0.622298  0.034843  2.178664  0.018  -0.322568  -0.566582  0.044848  2.202667  0.026
O  O105  1  0.63912837  0.23314260  0.34997227  1  -0.658362  0.035067  1.941325  0.022  -0.590418  0.039908  2.193443  0.022  -0.622263  0.034845  2.178682  0.018  -0.322529  -0.566539  0.044847  2.202679  0.026
O  O106  1  0.13912812  0.26685794  0.65002771  1  -0.658356  0.03506  1.941235  0.022  -0.590442  0.039908  2.193375  0.022  -0.622281  0.034848  2.178615  0.018  -0.322537  -0.566562  0.044847  2.202609  0.026
O  O107  1  0.36087224  0.76685864  0.65002742  1  -0.658392  0.035057  1.941276  0.022  -0.590488  0.039908  2.19343  0.022  -0.622327  0.034842  2.17867  0.018  -0.322578  -0.566615  0.044848  2.202682  0.026
