# generated using pymatgen
data_CdH12C15N3O5
_symmetry_space_group_name_H-M   'P 1'
_cell_length_a   9.42219875
_cell_length_b   9.71511381
_cell_length_c   10.08482758
_cell_angle_alpha   76.66133102
_cell_angle_beta   89.58100340
_cell_angle_gamma   67.20069085
_symmetry_Int_Tables_number   1
_chemical_formula_structural   CdH12C15N3O5
_chemical_formula_sum   'Cd2 H24 C30 N6 O10'
_cell_volume   824.58301796
_cell_formula_units_Z   2
loop_
 _symmetry_equiv_pos_site_id
 _symmetry_equiv_pos_as_xyz
  1  'x, y, z'
loop_
 _atom_site_type_symbol
 _atom_site_label
 _atom_site_symmetry_multiplicity
 _atom_site_fract_x
 _atom_site_fract_y
 _atom_site_fract_z
 _atom_site_occupancy
 _atom_site_hle17_bader_spin_density
 _atom_site_hle17_ddec_charge
 _atom_site_hle17_ddec_spin_density
 _atom_site_hle17_ddec_sum_bond_order
 _atom_site_hle17_magmom
 _atom_site_hse06_10hf_bader_spin_density
 _atom_site_hse06_10hf_ddec_charge
 _atom_site_hse06_10hf_ddec_spin_density
 _atom_site_hse06_10hf_ddec_sum_bond_order
 _atom_site_hse06_10hf_magmom
 _atom_site_hse06_bader_spin_density
 _atom_site_hse06_ddec_charge
 _atom_site_hse06_ddec_spin_density
 _atom_site_hse06_ddec_sum_bond_order
 _atom_site_hse06_magmom
 _atom_site_pbe_bader_spin_density
 _atom_site_pbe_cm5_charge
 _atom_site_pbe_ddec_charge
 _atom_site_pbe_ddec_spin_density
 _atom_site_pbe_ddec_sum_bond_order
 _atom_site_pbe_magmom
Cd  Cd0  1  0.02394838  0.32968204  0.93013083  1  0  1.190082  0  1.661771  0  0  1.004775  0  2.112702  0  0  1.064217  0  2.055036  0  0  0.77752  0.962532  0  2.151775  0
Cd  Cd1  1  0.97605172  0.67031736  0.06986700  1  0  1.190068  0  1.661781  0  0  1.004748  0  2.11274  0  0  1.0642  0  2.05505  0  0  0.777506  0.962503  0  2.151802  0
H  H2  1  0.65986155  0.18142303  0.85230832  1  0  0.116418  0  0.919734  0  0  0.129294  0  0.980735  0  0  0.132086  0  0.977849  0  0  0.123123  0.127273  0  0.983055  0
H  H3  1  0.34014008  0.81857522  0.14769074  1  0  0.116445  0  0.919734  0  0  0.129318  0  0.980734  0  0  0.132106  0  0.97785  0  0  0.123148  0.127294  0  0.983051  0
H  H4  1  0.51814962  0.11710587  0.92548035  1  0  0.111349  0  0.926104  0  0  0.125478  0  0.988955  0  0  0.127049  0  0.988248  0  0  0.122007  0.124676  0  0.98904  0
H  H5  1  0.48185154  0.88289352  0.07451945  1  0  0.111341  0  0.926129  0  0  0.125491  0  0.988947  0  0  0.127061  0  0.988241  0  0  0.122012  0.124685  0  0.989032  0
H  H6  1  0.41898290  0.16904486  0.11905788  1  0  0.103784  0  0.96305  0  0  0.110976  0  1.028996  0  0  0.114144  0  1.026016  0  0  0.122902  0.108856  0  1.031058  0
H  H7  1  0.58101812  0.83095223  0.88094343  1  0  0.103791  0  0.963065  0  0  0.110986  0  1.029006  0  0  0.114155  0  1.026028  0  0  0.122914  0.108862  0  1.031068  0
H  H8  1  0.37151249  0.33266804  0.28539660  1  0  0.106613  0  0.995978  0  0  0.110963  0  1.06407  0  0  0.113438  0  1.066292  0  0  0.102097  0.109397  0  1.062477  0
H  H9  1  0.62848762  0.66733136  0.71460519  1  0  0.106555  0  0.996004  0  0  0.110911  0  1.064102  0  0  0.113383  0  1.066326  0  0  0.102086  0.109338  0  1.062513  0
H  H10  1  0.52839895  0.49279990  0.28044051  1  0  0.091621  0  0.946244  0  0  0.10328  0  1.007355  0  0  0.10669  0  1.003223  0  0  0.105084  0.100661  0  1.010515  0
H  H11  1  0.47159976  0.50720295  0.71955756  1  0  0.091622  0  0.946279  0  0  0.103277  0  1.007395  0  0  0.106688  0  1.00326  0  0  0.105079  0.100655  0  1.01056  0
H  H12  1  0.96110515  0.65229741  0.67678929  1  0  0.103108  0  0.923991  0  0  0.115276  0  0.981929  0  0  0.11758  0  0.979249  0  0  0.140478  0.11348  0  0.983921  0
H  H13  1  0.03889938  0.34769623  0.32321276  1  0  0.103038  0  0.924049  0  0  0.11525  0  0.981951  0  0  0.117553  0  0.979272  0  0  0.140452  0.113456  0  0.983945  0
H  H14  1  0.70341476  0.52660961  0.42139122  1  0  0.123182  0  0.980648  0  0  0.132147  0  1.042323  0  0  0.13511  0  1.040714  0  0  0.120847  0.129958  0  1.043407  0
H  H15  1  0.29658349  0.47339439  0.57860560  1  0  0.123134  0  0.980752  0  0  0.132113  0  1.042392  0  0  0.135075  0  1.040786  0  0  0.120854  0.129935  0  1.043473  0
H  H16  1  0.81462252  0.29596180  0.66775438  1  0  0.10771  0  0.93841  0  0  0.122196  0  0.98864  0  0  0.124676  0  0.987546  0  0  0.121716  0.120398  0  0.989545  0
H  H17  1  0.18537182  0.70403873  0.33224125  1  0  0.107673  0  0.938424  0  0  0.122188  0  0.98863  0  0  0.124683  0  0.987514  0  0  0.121701  0.120379  0  0.989546  0
H  H18  1  0.76097660  0.76295360  0.32002961  1  0  0.113414  0  0.942842  0  0  0.123343  0  1.01133  0  0  0.125436  0  1.009331  0  0  0.116852  0.121461  0  1.013401  0
H  H19  1  0.23902318  0.23704926  0.67997241  1  0  0.113403  0  0.942863  0  0  0.12331  0  1.011365  0  0  0.125405  0  1.009364  0  0  0.116814  0.121423  0  1.013445  0
H  H20  1  0.87603503  0.81424602  0.42091883  1  0  0.090984  0  0.910563  0  0  0.105769  0  0.969348  0  0  0.106924  0  0.968381  0  0  0.115689  0.105035  0  0.969746  0
H  H21  1  0.12396719  0.18575338  0.57908196  1  0  0.091012  0  0.910581  0  0  0.105787  0  0.969362  0  0  0.106943  0  0.968396  0  0  0.115687  0.10505  0  0.969762  0
H  H22  1  0.75824492  0.97111082  0.58839546  1  0  0.093174  0  0.941103  0  0  0.105847  0  0.996899  0  0  0.109093  0  0.995176  0  0  0.101743  0.103847  0  0.997272  0
H  H23  1  0.24175745  0.02889088  0.41160878  1  0  0.093175  0  0.941144  0  0  0.105855  0  0.996937  0  0  0.1091  0  0.995216  0  0  0.101735  0.103852  0  0.99731  0
H  H24  1  0.47969327  0.84592545  0.34127609  1  0  0.093475  0  0.952417  0  0  0.106848  0  1.010839  0  0  0.109091  0  1.010354  0  0  0.101707  0.104737  0  1.012016  0
H  H25  1  0.52030896  0.15407395  0.65872866  1  0  0.093475  0  0.952407  0  0  0.106825  0  1.010865  0  0  0.109069  0  1.010379  0  0  0.101703  0.104715  0  1.012039  0
C  C26  1  0.75591237  0.96396297  0.99977569  1  0  0.659422  0  3.905741  0  0  0.613818  0  4.20655  0  0  0.64651  0  4.201624  0  0  0.189852  0.59143  0  4.208966  0
C  C27  1  0.24408714  0.03603527  0.00022339  1  0  0.659495  0  3.905714  0  0  0.613869  0  4.206536  0  0  0.646564  0  4.201606  0  0  0.189899  0.591487  0  4.208943  0
C  C28  1  0.62813720  0.12479613  0.94784194  1  0  -0.146871  0  3.634081  0  0  -0.214228  0  3.894194  0  0  -0.213188  0  3.898896  0  0  -0.055993  -0.214938  0  3.890575  0
C  C29  1  0.37186291  0.87520327  0.05215886  1  0  -0.146916  0  3.634103  0  0  -0.214263  0  3.894189  0  0  -0.21322  0  3.898889  0  0  -0.056034  -0.214966  0  3.890558  0
C  C30  1  0.48987765  0.23302255  0.12845014  1  0  0.125015  0  3.628596  0  0  0.079883  0  3.885225  0  0  0.092559  0  3.899366  0  0  0.059284  0.07078  0  3.876053  0
C  C31  1  0.51012093  0.76697799  0.87154942  1  0  0.124996  0  3.628571  0  0  0.079847  0  3.885216  0  0  0.092518  0  3.899359  0  0  0.059255  0.070751  0  3.876031  0
C  C32  1  0.46320909  0.32523780  0.21836661  1  0  -0.158142  0  3.783579  0  0  -0.175332  0  4.056332  0  0  -0.187983  0  4.0793  0  0  -0.107196  -0.167064  0  4.04126  0
C  C33  1  0.53678903  0.67476390  0.78163171  1  0  -0.158027  0  3.783538  0  0  -0.175212  0  4.056256  0  0  -0.187859  0  4.079226  0  0  -0.107155  -0.166939  0  4.041178  0
C  C34  1  0.55274037  0.41157591  0.21624465  1  0  0.02509  0  3.744059  0  0  -0.011274  0  4.002638  0  0  0.001451  0  4.015777  0  0  -0.065395  -0.019716  0  3.994167  0
C  C35  1  0.44725669  0.58842578  0.78375369  1  0  0.025046  0  3.744143  0  0  -0.011323  0  4.002731  0  0  0.001405  0  4.015868  0  0  -0.065406  -0.019767  0  3.994262  0
C  C36  1  0.67135654  0.40128005  0.13156799  1  0  -0.255277  0  3.711695  0  0  -0.233893  0  3.959692  0  0  -0.253958  0  3.981809  0  0  -0.037346  -0.221365  0  3.944892  0
C  C37  1  0.32864204  0.59872049  0.86843059  1  0  -0.255259  0  3.711696  0  0  -0.233892  0  3.959709  0  0  -0.253958  0  3.981826  0  0  -0.037341  -0.221368  0  3.944912  0
C  C38  1  0.70536892  0.29680217  0.04333827  1  0  0.50318  0  3.786306  0  0  0.455258  0  4.061087  0  0  0.484268  0  4.065855  0  0  0.227296  0.436465  0  4.056673  0
C  C39  1  0.29463072  0.70319838  0.95666129  1  0  0.503174  0  3.786243  0  0  0.45525  0  4.06103  0  0  0.484259  0  4.065799  0  0  0.22731  0.436455  0  4.056617  0
C  C40  1  0.75393503  0.50581131  0.13257110  1  0  0.668605  0  3.930092  0  0  0.615935  0  4.227498  0  0  0.65176  0  4.221273  0  0  0.198151  0.591779  0  4.230633  0
C  C41  1  0.24606567  0.49418924  0.86742845  1  0  0.668593  0  3.93009  0  0  0.615938  0  4.227487  0  0  0.651764  0  4.22126  0  0  0.19813  0.591785  0  4.230625  0
C  C42  1  0.90743561  0.58459868  0.64229352  1  0  0.158933  0  3.669579  0  0  0.094906  0  3.944151  0  0  0.109156  0  3.956932  0  0  0.141732  0.085652  0  3.935153  0
C  C43  1  0.09256892  0.41539496  0.35770456  1  0  0.158959  0  3.669603  0  0  0.094884  0  3.944191  0  0  0.109134  0  3.956974  0  0  0.141721  0.085626  0  3.935197  0
C  C44  1  0.77025851  0.51648794  0.51286047  1  0  -0.076233  0  3.67762  0  0  -0.115143  0  3.936272  0  0  -0.114351  0  3.956134  0  0  -0.001672  -0.115007  0  3.921816  0
C  C45  1  0.22973338  0.48351604  0.48714037  1  0  -0.076173  0  3.677686  0  0  -0.115087  0  3.93635  0  0  -0.114292  0  3.956214  0  0  -0.001652  -0.114966  0  3.9219  0
C  C46  1  0.82776450  0.40425533  0.63302927  1  0  -0.005187  0  3.771338  0  0  -0.038815  0  4.040174  0  0  -0.037057  0  4.06112  0  0  -0.004143  -0.0401  0  4.026056  0
C  C47  1  0.17222998  0.59574751  0.36696982  1  0  -0.005186  0  3.771341  0  0  -0.038853  0  4.040189  0  0  -0.037108  0  4.061132  0  0  -0.004163  -0.040126  0  4.026074  0
C  C48  1  0.77825247  0.77959734  0.42145935  1  0  -0.05199  0  3.633245  0  0  -0.119053  0  3.881104  0  0  -0.114593  0  3.890725  0  0  -0.049618  -0.122228  0  3.875787  0
C  C49  1  0.22174778  0.22040436  0.57854292  1  0  -0.052071  0  3.633228  0  0  -0.119082  0  3.880999  0  0  -0.114625  0  3.890622  0  0  -0.049596  -0.122252  0  3.875679  0
C  C50  1  0.63452615  0.89705231  0.45916428  1  0  0.068091  0  3.759935  0  0  0.086716  0  4.000314  0  0  0.085647  0  4.025676  0  0  -0.012614  0.087165  0  3.983794  0
C  C51  1  0.36547833  0.10294941  0.54083795  1  0  0.068118  0  3.759991  0  0  0.086747  0  4.000318  0  0  0.085682  0  4.025675  0  0  -0.012643  0.087203  0  3.983787  0
C  C52  1  0.64503793  0.98429714  0.54850890  1  0  -0.112967  0  3.761669  0  0  -0.133262  0  4.009745  0  0  -0.135953  0  4.031665  0  0  -0.091177  -0.131277  0  3.995045  0
C  C53  1  0.35496291  0.01570572  0.45149212  1  0  -0.112954  0  3.76161  0  0  -0.133266  0  4.009698  0  0  -0.135957  0  4.031615  0  0  -0.091166  -0.131281  0  3.994993  0
C  C54  1  0.48838642  0.91361613  0.41105418  1  0  -0.105369  0  3.746089  0  0  -0.125034  0  3.993545  0  0  -0.127754  0  4.016282  0  0  -0.088494  -0.123587  0  3.979139  0
C  C55  1  0.51161607  0.08638789  0.58894558  1  0  -0.105383  0  3.746307  0  0  -0.125038  0  3.993763  0  0  -0.12776  0  4.016499  0  0  -0.088488  -0.123591  0  3.979352  0
N  N56  1  0.60348980  0.22213658  0.04344291  1  0  -0.113397  0  3.477194  0  0  -0.020936  0  3.692511  0  0  -0.040051  0  3.715319  0  0  -0.227099  -0.008152  0  3.676684  0
N  N57  1  0.39651030  0.77786282  0.95655690  1  0  -0.113397  0  3.477184  0  0  -0.020933  0  3.692496  0  0  -0.040049  0  3.715304  0  0  -0.227085  -0.008154  0  3.676662  0
N  N58  1  0.91329515  0.44819959  0.71243362  1  0  -0.39018  0  3.278559  0  0  -0.316662  0  3.571719  0  0  -0.338162  0  3.588927  0  0  -0.360247  -0.302203  0  3.560267  0
N  N59  1  0.08670634  0.55179635  0.28756397  1  0  -0.390075  0  3.278496  0  0  -0.316544  0  3.571655  0  0  -0.338051  0  3.58889  0  0  -0.360171  -0.302081  0  3.560198  0
N  N60  1  0.82256252  0.62947368  0.52037636  1  0  -0.056722  0  3.572871  0  0  0.038094  0  3.790896  0  0  0.023101  0  3.81797  0  0  -0.240076  0.048276  0  3.771764  0
N  N61  1  0.17743712  0.37052686  0.47962320  1  0  -0.056692  0  3.572831  0  0  0.038107  0  3.790856  0  0  0.023114  0  3.817931  0  0  -0.240055  0.048292  0  3.771726  0
O  O62  1  0.82285864  0.92300073  0.11846935  1  0  -0.616086  0  1.915837  0  0  -0.561714  0  2.140657  0  0  -0.587899  0  2.132109  0  0  -0.326456  -0.542757  0  2.145663  0
O  O63  1  0.17714133  0.07699636  0.88152999  1  0  -0.616079  0  1.915829  0  0  -0.561696  0  2.140645  0  0  -0.587882  0  2.132095  0  0  -0.32645  -0.542739  0  2.145641  0
O  O64  1  0.78474245  0.87761698  0.91567142  1  0  -0.655648  0  1.915253  0  0  -0.591876  0  2.147785  0  0  -0.621292  0  2.137374  0  0  -0.342299  -0.571292  0  2.153983  0
O  O65  1  0.21525553  0.12238241  0.08432841  1  0  -0.65571  0  1.915232  0  0  -0.591946  0  2.147784  0  0  -0.621359  0  2.137364  0  0  -0.342341  -0.571363  0  2.153983  0
O  O66  1  0.81046292  0.26756908  0.96365892  1  0  -0.583535  0  2.062092  0  0  -0.525685  0  2.316079  0  0  -0.552469  0  2.307278  0  0  -0.310783  -0.507316  0  2.321606  0
O  O67  1  0.18953719  0.73243031  0.03634089  1  0  -0.583525  0  2.062084  0  0  -0.525678  0  2.316067  0  0  -0.552461  0  2.307269  0  0  -0.310802  -0.507312  0  2.321595  0
O  O68  1  0.88168379  0.48069415  0.07410111  1  0  -0.700767  0  2.116095  0  0  -0.613599  0  2.386384  0  0  -0.647302  0  2.37199  0  0  -0.342707  -0.589838  0  2.395187  0
O  O69  1  0.11831678  0.51930409  0.92589895  1  0  -0.700783  0  2.116126  0  0  -0.613603  0  2.386377  0  0  -0.647303  0  2.371982  0  0  -0.342701  -0.589842  0  2.395181  0
O  O70  1  0.69720507  0.61403232  0.19051229  1  0  -0.624886  0  1.921321  0  0  -0.584302  0  2.162132  0  0  -0.60798  0  2.153264  0  0  -0.324763  -0.567017  0  2.167463  0
O  O71  1  0.30279655  0.38596593  0.80948776  1  0  -0.624874  0  1.9213  0  0  -0.584279  0  2.162062  0  0  -0.607971  0  2.153229  0  0  -0.324756  -0.566998  0  2.167401  0
