# generated using pymatgen
data_Co3H50(C11O4)6
_symmetry_space_group_name_H-M   'P 1'
_cell_length_a   11.11698444
_cell_length_b   14.26125184
_cell_length_c   18.10677980
_cell_angle_alpha   108.64571053
_cell_angle_beta   101.89181398
_cell_angle_gamma   99.62784640
_symmetry_Int_Tables_number   1
_chemical_formula_structural   Co3H50(C11O4)6
_chemical_formula_sum   'Co3 H50 C66 O24'
_cell_volume   2576.12859836
_cell_formula_units_Z   1
loop_
 _symmetry_equiv_pos_site_id
 _symmetry_equiv_pos_as_xyz
  1  'x, y, z'
loop_
 _atom_site_type_symbol
 _atom_site_label
 _atom_site_symmetry_multiplicity
 _atom_site_fract_x
 _atom_site_fract_y
 _atom_site_fract_z
 _atom_site_occupancy
 _atom_site_pbe_bader_charge
 _atom_site_pbe_bader_spin_density
 _atom_site_pbe_cm5_charge
 _atom_site_pbe_ddec_charge
 _atom_site_pbe_ddec_spin_density
 _atom_site_pbe_ddec_sum_bond_order
 _atom_site_pbe_magmom
Co  Co0  1  0.00001694  0.50000674  0.00000718  1  1.189695  1.04816  0.606863  0.885956  1.085189  2.658239  1.022
Co  Co1  1  0.31879892  0.61958671  0.10118940  1  1.30568  2.612133  0.65975  0.989882  2.806759  2.262772  2.587
Co  Co2  1  0.68121818  0.38041872  0.89880902  1  1.30604  2.612134  0.659688  0.989721  2.806812  2.262961  2.587
H  H3  1  0.95023125  0.88411853  0.72504247  1  0.071531  -3.4e-05  0.109166  0.083233  -2.6e-05  0.975272  0.0
H  H4  1  0.04977379  0.11588736  0.27496939  1  0.071722  -3.4e-05  0.109197  0.083322  -2.6e-05  0.975226  0.0
H  H5  1  0.96413563  0.76966985  0.65262634  1  0.055874  -5.2e-05  0.104397  0.072724  -4.2e-05  0.989165  0.0
H  H6  1  0.03584656  0.23033100  0.34738168  1  0.055676  -5.2e-05  0.104385  0.072728  -4.2e-05  0.989162  0.0
H  H7  1  0.33630542  0.86953770  0.84052688  1  0.082029  -8e-06  0.10877  0.124298  3e-06  0.984175  0.0
H  H8  1  0.66370215  0.13041038  0.15942844  1  0.08045  -8e-06  0.108746  0.124117  3e-06  0.98428  0.0
H  H9  1  0.35528013  0.78158261  0.94084189  1  0.11311  0.000272  0.111641  0.119542  9e-05  0.982041  0.0
H  H10  1  0.64475172  0.21837746  0.05911765  1  0.112995  0.000272  0.11171  0.119637  9e-05  0.981984  0.0
H  H11  1  0.95133251  0.65524377  0.85992434  1  0.104193  -3.2e-05  0.10995  0.121672  -0.000133  0.984644  0.0
H  H12  1  0.04868569  0.34478002  0.14010400  1  0.103899  -3.2e-05  0.109911  0.121535  -0.000133  0.984752  0.0
H  H13  1  0.93016350  0.74299303  0.76200403  1  0.037095  0.00013  0.102616  0.112939  7.5e-05  1.020718  0.0
H  H14  1  0.06983408  0.25703251  0.23802534  1  0.03752  0.00013  0.10268  0.112896  7.5e-05  1.020762  0.0
H  H15  1  0.85344931  0.95142495  0.61760375  1  0.087464  -1.3e-05  0.106188  0.084291  -1.2e-05  0.979399  0.0
H  H16  1  0.14653248  0.04856413  0.38240881  1  0.087868  -1.3e-05  0.106094  0.083983  -1.2e-05  0.979699  0.0
H  H17  1  0.92396918  0.94196002  0.53598743  1  0.05955  -1.4e-05  0.103158  0.071719  -1.2e-05  1.022312  0.0
H  H18  1  0.07600882  0.05804229  0.46402484  1  0.060374  -1.4e-05  0.103149  0.071698  -1.2e-05  1.022266  0.0
H  H19  1  0.71159457  0.61883397  0.45588427  1  0.060169  3.6e-05  0.106711  0.120767  1.5e-05  0.989596  0.0
H  H20  1  0.28839704  0.38115621  0.54411552  1  0.060153  3.6e-05  0.106704  0.120727  1.5e-05  0.989693  0.0
H  H21  1  0.55168199  0.55529192  0.31914441  1  0.102424  0.000485  0.109544  0.116792  0.000247  0.983668  0.0
H  H22  1  0.44830889  0.44470437  0.68085802  1  0.102265  0.000485  0.109548  0.116755  0.000248  0.983688  0.0
H  H23  1  0.60148745  0.86249271  0.32499131  1  0.089049  0.000362  0.105746  0.108436  0.000164  0.993315  0.0
H  H24  1  0.39850845  0.13750791  0.67501903  1  0.08854  0.000362  0.105737  0.10837  0.000164  0.993441  0.0
H  H25  1  0.75491691  0.92773509  0.46108743  1  0.108923  1.4e-05  0.095414  0.101506  7e-06  1.092337  0.0
H  H26  1  0.24507555  0.07225794  0.53891932  1  0.108896  1.4e-05  0.0954  0.101507  7e-06  1.092349  0.0
H  H27  1  0.20012574  0.85277715  0.61556489  1  0.096728  -1.2e-05  0.110347  0.087598  -1.1e-05  0.965834  0.0
H  H28  1  0.79986156  0.14722966  0.38442551  1  0.096397  -1.2e-05  0.110325  0.087514  -1.1e-05  0.965773  0.0
H  H29  1  0.05405338  0.77496010  0.54221491  1  0.053102  -2e-06  0.108205  0.077295  -3e-06  1.002045  0.0
H  H30  1  0.94593170  0.22503546  0.45778821  1  0.052888  -2e-06  0.108193  0.077224  -3e-06  1.001985  0.0
H  H31  1  0.94550106  0.74580487  0.41774020  1  0.09824  5e-05  0.105815  0.11958  2.5e-05  1.03579  0.0
H  H32  1  0.05447226  0.25417876  0.58223000  1  0.098254  5e-05  0.105757  0.119653  2.5e-05  1.035785  0.0
H  H33  1  0.94143606  0.65137094  0.27839917  1  0.052535  5.3e-05  0.107964  0.096313  -2.9e-05  1.003126  0.0
H  H34  1  0.05856238  0.34863247  0.72157358  1  0.052595  5.3e-05  0.107887  0.096092  -2.9e-05  1.003191  0.0
H  H35  1  0.30985758  0.84200516  0.31369514  1  0.120278  1.3e-05  0.1163  0.122109  -7.1e-05  0.98165  0.0
H  H36  1  0.69014884  0.15802389  0.68631921  1  0.12013  1.4e-05  0.116334  0.122117  -7.1e-05  0.981551  0.0
H  H37  1  0.31312196  0.93978603  0.45686616  1  0.059097  3.1e-05  0.110302  0.124761  1.9e-05  0.989905  0.0
H  H38  1  0.68684792  0.06021948  0.54314588  1  0.058931  3.1e-05  0.110277  0.12478  1.9e-05  0.989932  0.0
H  H39  1  0.20402659  0.02236745  0.71529321  1  0.093956  -1.5e-05  0.111408  0.085374  -1.5e-05  0.976573  0.0
H  H40  1  0.79595722  0.97763266  0.28471317  1  0.093726  -1.5e-05  0.111445  0.085356  -1.5e-05  0.976711  0.0
H  H41  1  0.11431440  0.06529084  0.64412516  1  0.053367  -3.3e-05  0.10076  0.072714  -2.9e-05  1.001338  0.0
H  H42  1  0.88567443  0.93470181  0.35587106  1  0.05334  -3.3e-05  0.100702  0.0726  -2.9e-05  1.001402  0.0
H  H43  1  0.94622765  0.12678531  0.85711752  1  0.079914  8.2e-05  0.111049  0.130304  3.6e-05  0.97433  0.0
H  H44  1  0.05376286  0.87322884  0.14288411  1  0.079427  8.2e-05  0.110993  0.130268  3.6e-05  0.974303  0.0
H  H45  1  0.03245160  0.29442489  0.97280503  1  0.108625  4.3e-05  0.108001  0.115133  -0.000101  1.040429  0.0
H  H46  1  0.96756716  0.70558327  0.02720374  1  0.108224  4.2e-05  0.10799  0.11516  -0.000101  1.04044  0.0
H  H47  1  0.35038621  0.35981592  0.88002171  1  0.151663  0.000138  0.11327  0.125014  -8.2e-05  0.991653  0.0
H  H48  1  0.64961662  0.64017684  0.11996646  1  0.151606  0.000138  0.113256  0.124941  -8.2e-05  0.991761  0.0
H  H49  1  0.26494271  0.19586472  0.76415020  1  0.099565  0.000348  0.09761  0.10851  0.000213  1.066725  0.0
H  H50  1  0.73503109  0.80413466  0.23583531  1  0.099386  0.000348  0.097622  0.108498  0.000213  1.066793  0.0
H  H51  1  0.98134347  0.57883539  0.18013739  1  0.632718  0.000434  0.3461  0.381079  6e-06  0.868706  0.0
H  H52  1  0.01877226  0.42110868  0.81987767  1  0.635938  0.000428  0.346118  0.381169  6e-06  0.868491  0.0
C  C53  1  0.03383163  0.90854225  0.63245801  1  0.071257  4e-06  -0.022825  0.040608  4e-06  3.829026  0.0
C  C54  1  0.96615490  0.09145484  0.36754517  1  0.071274  4e-06  -0.022667  0.04044  4e-06  3.829425  0.0
C  C55  1  0.01138246  0.85074596  0.68875910  1  0.413328  1.4e-05  -0.060944  -0.023053  -1.9e-05  3.867266  0.0
C  C56  1  0.98861124  0.14925332  0.31124561  1  0.413505  1.4e-05  -0.060949  -0.023082  -1.9e-05  3.867289  0.0
C  C57  1  0.13326483  0.81081391  0.79458589  1  0.416553  -0.002519  0.082918  0.264045  -0.002741  4.069083  -0.002
C  C58  1  0.86673857  0.18917550  0.20540974  1  0.416119  -0.002517  0.082812  0.263912  -0.002739  4.06904  -0.002
C  C59  1  0.25290928  0.82211368  0.84549781  1  -0.024241  0.000795  -0.105625  -0.207565  0.00029  4.004774  0.001
C  C60  1  0.74710113  0.17785463  0.15447765  1  -0.021934  0.000794  -0.105476  -0.207174  0.00029  4.00447  0.001
C  C61  1  0.26306604  0.77343428  0.90091960  1  -0.02565  -0.002416  -0.080913  -0.068937  -0.002603  3.993876  -0.002
C  C62  1  0.73695680  0.22653540  0.09905678  1  -0.025919  -0.002415  -0.081167  -0.069245  -0.002602  3.993892  -0.002
C  C63  1  0.15445344  0.71219724  0.90611567  1  -0.035647  0.004808  -0.034943  -0.074311  0.002147  4.016058  0.004
C  C64  1  0.84557031  0.28779801  0.09388368  1  -0.035008  0.004808  -0.034802  -0.074125  0.002147  4.015772  0.004
C  C65  1  0.03551470  0.70216933  0.85538760  1  -0.056018  -0.002312  -0.088545  -0.070337  -0.002581  4.000477  -0.001
C  C66  1  0.96450217  0.29784173  0.14462776  1  -0.05583  -0.00231  -0.088532  -0.070239  -0.002579  4.000367  -0.001
C  C67  1  0.02387361  0.75133192  0.80001812  1  0.012744  0.001085  -0.117839  -0.237333  0.000445  4.040131  0.001
C  C68  1  0.97613033  0.24867626  0.19999530  1  0.012039  0.001085  -0.117872  -0.23727  0.000445  4.040141  0.001
C  C69  1  0.16427913  0.65843800  0.96458226  1  1.529373  -0.008881  0.215544  0.582231  -0.010992  4.159789  -0.007
C  C70  1  0.83575340  0.34155868  0.03541754  1  1.527621  -0.008879  0.215577  0.582133  -0.010987  4.159901  -0.007
C  C71  1  0.90588702  0.90717550  0.58009755  1  0.401083  -4e-06  -0.064555  -0.027841  -1.3e-05  3.84943  0.0
C  C72  1  0.09409396  0.09281913  0.41991142  1  0.399871  -4e-06  -0.064497  -0.027401  -1.3e-05  3.849176  0.0
C  C73  1  0.74419190  0.77634922  0.46655193  1  0.357833  -0.000788  0.077278  0.256703  -0.000877  4.079129  -0.001
C  C74  1  0.25579877  0.22364390  0.53345294  1  0.357947  -0.00079  0.077345  0.256934  -0.000879  4.079113  -0.001
C  C75  1  0.68582718  0.67138494  0.42656768  1  0.041183  0.000574  -0.10964  -0.213644  0.000202  4.018569  0.0
C  C76  1  0.31416237  0.32860748  0.57343520  1  0.0406  0.000575  -0.109649  -0.213745  0.000203  4.018867  0.0
C  C77  1  0.59792424  0.63646502  0.35090237  1  -0.07963  0.000295  -0.080452  -0.070678  -0.000221  3.989447  0.0
C  C78  1  0.40206264  0.36353048  0.64910209  1  -0.078556  0.000294  -0.080489  -0.070639  -0.000222  3.989653  0.0
C  C79  1  0.56850553  0.70506653  0.31319347  1  0.02101  0.001154  -0.028332  -0.048723  0.00046  4.002998  0.0
C  C80  1  0.43148142  0.29493198  0.68681345  1  0.020891  0.001156  -0.028196  -0.048555  0.000461  4.0029  0.001
C  C81  1  0.62589488  0.80948796  0.35421998  1  -0.005105  4.9e-05  -0.0873  -0.074911  -0.000461  4.00928  0.0
C  C82  1  0.37409452  0.19050971  0.64578815  1  -0.005078  4.7e-05  -0.087402  -0.074852  -0.000463  4.009316  0.0
C  C83  1  0.71229871  0.84607540  0.43097889  1  -0.108489  0.000462  -0.120966  -0.245548  0.000143  4.040492  0.0
C  C84  1  0.28769219  0.15391844  0.56902731  1  -0.108294  0.000462  -0.120943  -0.24573  0.000143  4.040473  0.0
C  C85  1  0.47761955  0.66823544  0.23124339  1  1.524622  -0.006816  0.186147  0.542411  -0.00905  4.23502  -0.007
C  C86  1  0.52236430  0.33177309  0.76876635  1  1.524513  -0.006817  0.185966  0.542084  -0.009053  4.235104  -0.007
C  C87  1  0.10937908  0.85399402  0.57810700  1  0.392679  -5.2e-05  -0.057612  -0.017198  -7.9e-05  3.828224  0.0
C  C88  1  0.89059928  0.14600574  0.42188862  1  0.392864  -5.3e-05  -0.057535  -0.016934  -8e-05  3.827784  0.0
C  C89  1  0.13142123  0.84779462  0.44658730  1  0.429701  -0.001259  0.090825  0.264819  -0.001407  4.045939  -0.001
C  C90  1  0.86854533  0.15220000  0.55340372  1  0.429163  -0.001269  0.090919  0.265007  -0.001417  4.045548  -0.001
C  C91  1  0.02673713  0.76631499  0.39605473  1  -0.020659  0.000604  -0.101754  -0.2017  0.000238  3.969135  0.0
C  C92  1  0.97324245  0.23367675  0.60392565  1  -0.020346  0.000607  -0.101834  -0.202311  0.000239  3.96941  0.0
C  C93  1  0.02578584  0.71270160  0.31668058  1  -0.023441  -0.000748  -0.077587  -0.066949  -0.001125  3.998922  0.0
C  C94  1  0.97421184  0.28730001  0.68329987  1  -0.023102  -0.000758  -0.077252  -0.065983  -0.001132  3.998641  0.0
C  C95  1  0.12814453  0.73909964  0.28671538  1  -0.037001  0.002721  -0.026626  -0.090687  0.001146  4.042302  0.002
C  C96  1  0.87186533  0.26091685  0.71327951  1  -0.037386  0.002726  -0.026807  -0.091378  0.001148  4.042536  0.002
C  C97  1  0.23092596  0.82234536  0.33757878  1  -0.008043  -0.000571  -0.067094  -0.039956  -0.000802  3.946766  0.0
C  C98  1  0.76907399  0.17767239  0.66242783  1  -0.008055  -0.000579  -0.06709  -0.039618  -0.000809  3.946558  0.0
C  C99  1  0.23276169  0.87629804  0.41666519  1  0.011709  0.000218  -0.097533  -0.200356  4.7e-05  3.99314  0.0
C  C100  1  0.76721613  0.12370606  0.58333980  1  0.011985  0.00022  -0.097431  -0.200523  4.8e-05  3.992856  0.0
C  C101  1  0.13700490  0.68352250  0.20476137  1  1.501268  -0.000394  0.241582  0.578909  -0.001717  4.088845  0.001
C  C102  1  0.86302342  0.31650769  0.79523466  1  1.499153  -0.000419  0.241533  0.579091  -0.001736  4.088212  0.001
C  C103  1  0.10745628  0.01997970  0.68298659  1  0.392515  0.0  -0.059895  -0.018439  -2.7e-05  3.839888  0.0
C  C104  1  0.89253020  0.98001980  0.31701391  1  0.392743  0.0  -0.059814  -0.018147  -2.7e-05  3.839984  0.0
C  C105  1  0.09791280  0.15177047  0.80265071  1  0.38596  -0.001583  0.082954  0.26174  -0.001761  4.063139  -0.001
C  C106  1  0.90207288  0.84823461  0.19734564  1  0.38454  -0.001584  0.082962  0.261578  -0.001762  4.063335  -0.001
C  C107  1  0.03387437  0.17914657  0.86244910  1  0.022628  0.000548  -0.106266  -0.20594  0.000152  3.996346  0.0
C  C108  1  0.96611984  0.82086214  0.13755158  1  0.024193  0.000549  -0.10606  -0.205591  0.000152  3.995906  0.0
C  C109  1  0.08205596  0.27224902  0.92659381  1  -0.081664  -0.00056  -0.08622  -0.077073  -0.00097  3.998012  0.0
C  C110  1  0.91795414  0.72775783  0.07341070  1  -0.080773  -0.00056  -0.086343  -0.077346  -0.00097  3.997906  0.0
C  C111  1  0.19506003  0.33918560  0.93248478  1  0.012644  0.003369  -0.035734  -0.080967  0.001713  4.043432  0.002
C  C112  1  0.80495358  0.66081513  0.06751635  1  0.012174  0.003369  -0.035789  -0.080952  0.001713  4.043519  0.002
C  C113  1  0.26083281  0.30936891  0.87415632  1  -0.101989  -0.001098  -0.074727  -0.054516  -0.001373  3.954366  -0.001
C  C114  1  0.73916764  0.69063068  0.12583722  1  -0.101075  -0.001098  -0.074647  -0.054442  -0.001374  3.954189  -0.001
C  C115  1  0.21246251  0.21632707  0.80887838  1  0.039122  0.001156  -0.112366  -0.2259  0.000508  4.003244  0.001
C  C116  1  0.78752136  0.78367512  0.19111254  1  0.038766  0.001156  -0.112427  -0.225811  0.000508  4.00325  0.001
C  C117  1  0.24453113  0.44030127  0.99816891  1  1.445908  -0.004156  0.211004  0.566551  -0.006064  4.121359  -0.005
C  C118  1  0.75549592  0.55969847  0.00183429  1  1.447069  -0.004155  0.210832  0.56645  -0.006062  4.121726  -0.005
O  O119  1  0.13220149  0.86025362  0.74097159  1  -1.080671  -0.000787  -0.181761  -0.204594  -0.000764  2.557734  -0.001
O  O120  1  0.86779458  0.13973588  0.25902365  1  -1.080301  -0.000786  -0.181705  -0.204585  -0.000763  2.557692  -0.001
O  O121  1  0.05889215  0.59759529  0.95708762  1  -1.126612  -0.003643  -0.315265  -0.550652  -0.006253  2.537381  -0.004
O  O122  1  0.94113707  0.40242250  0.04293119  1  -1.124755  -0.003637  -0.315406  -0.550778  -0.00625  2.537312  -0.004
O  O123  1  0.27039983  0.67680829  0.01578719  1  -1.152279  0.069376  -0.307252  -0.543282  0.035906  2.353612  0.058
O  O124  1  0.72964414  0.32317249  0.98419774  1  -1.152869  0.069355  -0.30714  -0.543118  0.035892  2.353879  0.058
O  O125  1  0.83355213  0.80269865  0.53920873  1  -1.090741  -0.000181  -0.185627  -0.211542  -0.000171  2.558557  0.0
O  O126  1  0.16643577  0.19729447  0.46079688  1  -1.090763  -0.000181  -0.185675  -0.211577  -0.000171  2.558448  0.0
O  O127  1  0.39517006  0.58248370  0.20407903  1  -1.1372  0.07375  -0.329165  -0.554589  0.037288  2.14131  0.063
O  O128  1  0.60479494  0.41753438  0.79592964  1  -1.13703  0.073751  -0.329039  -0.554459  0.037289  2.141233  0.063
O  O129  1  0.48105749  0.72407998  0.18799533  1  -1.142384  0.076964  -0.32169  -0.551846  0.039335  2.190137  0.066
O  O130  1  0.51894489  0.27592606  0.81201290  1  -1.142437  0.076974  -0.3217  -0.551708  0.039336  2.190004  0.066
O  O131  1  0.13828997  0.90626399  0.52485335  1  -1.092797  -0.000105  -0.18978  -0.221253  -7.2e-05  2.539895  0.0
O  O132  1  0.86165699  0.09373250  0.47513500  1  -1.092534  -0.000107  -0.190031  -0.221381  -7.4e-05  2.539588  0.0
O  O133  1  0.22512665  0.71251079  0.17910027  1  -1.135555  0.032349  -0.254402  -0.471392  0.016302  2.340559  0.025
O  O134  1  0.77487741  0.28754787  0.82088742  1  -1.135892  0.032386  -0.254381  -0.471518  0.016315  2.340453  0.025
O  O135  1  0.04849002  0.59637960  0.15600118  1  -1.134802  0.017249  -0.302163  -0.466284  0.009075  2.42676  0.011
O  O136  1  0.95157119  0.40363082  0.84399561  1  -1.135584  0.017241  -0.302117  -0.466229  0.009067  2.426044  0.011
O  O137  1  0.03991284  0.06046774  0.74013899  1  -1.090017  -0.000427  -0.180645  -0.206104  -0.000395  2.574553  0.0
O  O138  1  0.96006915  0.93953736  0.25985798  1  -1.089942  -0.000427  -0.180695  -0.206159  -0.000395  2.574786  0.0
O  O139  1  0.16793541  0.48650368  0.03494615  1  -1.103423  0.049994  -0.32044  -0.571871  0.025608  2.586083  0.042
O  O140  1  0.83209639  0.51350456  0.96505609  1  -1.103467  0.049981  -0.320399  -0.571967  0.025603  2.586131  0.042
O  O141  1  0.35978397  0.48822019  0.02221631  1  -1.100927  0.063292  -0.277405  -0.478596  0.031837  2.169923  0.055
O  O142  1  0.64024590  0.51177169  0.97778903  1  -1.102048  0.063297  -0.277243  -0.478414  0.031842  2.170078  0.055
