# generated using pymatgen
data_ZnH42C54(N3O)2
_symmetry_space_group_name_H-M   'P 1'
_cell_length_a   10.69957836
_cell_length_b   13.59640572
_cell_length_c   19.13173988
_cell_angle_alpha   89.99990666
_cell_angle_beta   89.99992692
_cell_angle_gamma   95.81668906
_symmetry_Int_Tables_number   1
_chemical_formula_structural   ZnH42C54(N3O)2
_chemical_formula_sum   'Zn2 H84 C108 N12 O4'
_cell_volume   2768.87524297
_cell_formula_units_Z   2
loop_
 _symmetry_equiv_pos_site_id
 _symmetry_equiv_pos_as_xyz
  1  'x, y, z'
loop_
 _atom_site_type_symbol
 _atom_site_label
 _atom_site_symmetry_multiplicity
 _atom_site_fract_x
 _atom_site_fract_y
 _atom_site_fract_z
 _atom_site_occupancy
 _atom_site_pbe_bader_charge
 _atom_site_pbe_bader_spin_density
 _atom_site_pbe_cm5_charge
 _atom_site_pbe_ddec_charge
 _atom_site_pbe_ddec_spin_density
 _atom_site_pbe_ddec_sum_bond_order
 _atom_site_pbe_magmom
Zn  Zn0  1  0.74849279  0.24921694  0.67330166  1  1.248253  0  0.697806  0.589794  0  2.632581  0
Zn  Zn1  1  0.25150592  0.75078272  0.17330259  1  1.248242  0  0.697828  0.589896  0  2.632484  0
H  H2  1  0.32964531  0.33438081  0.54817409  1  0.056738  0  0.099818  0.114855  0  1.035848  0
H  H3  1  0.67036401  0.66561913  0.04818004  1  0.056665  0  0.099864  0.114952  0  1.035713  0
H  H4  1  0.39400916  0.17017063  0.48293022  1  0.109716  0  0.103704  0.120672  0  1.012971  0
H  H5  1  0.60600905  0.82983338  0.98293761  1  0.108993  0  0.103724  0.120625  0  1.013078  0
H  H6  1  0.76841676  0.94233736  0.50476613  1  0.091727  0  0.10206  0.118854  0  1.017434  0
H  H7  1  0.23158741  0.05765827  0.00476213  1  0.097528  0  0.102076  0.118863  0  1.017553  0
H  H8  1  0.98317321  0.94846784  0.57977857  1  0.089425  0  0.105612  0.126555  0  1.009242  0
H  H9  1  0.01682860  0.05152539  0.07977682  1  0.089538  0  0.105615  0.126549  0  1.009271  0
H  H10  1  0.16775708  0.16446227  0.79805324  1  0.080577  0  0.102275  0.119952  0  1.026911  0
H  H11  1  0.83224303  0.83554298  0.29805732  1  0.080499  0  0.102304  0.119957  0  1.026906  0
H  H12  1  0.09401459  0.32007987  0.87002468  1  0.078843  0  0.102684  0.121792  0  1.012778  0
H  H13  1  0.90598204  0.67992152  0.37002575  1  0.078806  0  0.10271  0.121763  0  1.012805  0
H  H14  1  0.71039820  0.54009886  0.85421343  1  0.098192  0  0.102081  0.119616  0  1.014051  0
H  H15  1  0.28960269  0.45990625  0.35421885  1  0.098105  0  0.102095  0.11964  0  1.014072  0
H  H16  1  0.50799813  0.54435099  0.76983644  1  0.080185  0  0.098866  0.111366  0  1.058481  0
H  H17  1  0.49200363  0.45565212  0.26984068  1  0.080233  0  0.098902  0.111416  0  1.058467  0
H  H18  1  0.29646968  0.01869201  0.37943113  1  0.073077  0  0.109975  0.116852  0  0.990963  0
H  H19  1  0.70353395  0.98131304  0.87942782  1  0.073199  0  0.110005  0.116949  0  0.99076  0
H  H20  1  0.20832882  0.93022215  0.27304774  1  0.083756  0  0.112766  0.079077  0  1.014686  0
H  H21  1  0.79166958  0.06978391  0.77303967  1  0.083711  0  0.112738  0.078999  0  1.01462  0
H  H22  1  0.50694092  0.76038072  0.26120563  1  0.085569  0  0.112352  0.077366  0  1.015637  0
H  H23  1  0.49304513  0.23961652  0.76119757  1  0.085905  0  0.112307  0.077359  0  1.015561  0
H  H24  1  0.61091006  0.84276511  0.36584109  1  0.074556  0  0.108657  0.117599  0  0.99272  0
H  H25  1  0.38908477  0.15722964  0.86583373  1  0.074529  0  0.10859  0.117557  0  0.992806  0
H  H26  1  0.01512071  0.91259933  0.71727924  1  0.059299  0  0.096309  0.092221  0  1.018512  0
H  H27  1  0.98488118  0.08740391  0.21728668  1  0.059149  0  0.096361  0.092262  0  1.018321  0
H  H28  1  0.20487933  0.82542143  0.72752816  1  0.052402  0  0.099841  0.109884  0  1.052146  0
H  H29  1  0.79512214  0.17457882  0.22753721  1  0.052445  0  0.099863  0.109902  0  1.052171  0
H  H30  1  0.43291907  0.08991807  0.66406590  1  0.100997  0  0.10322  0.120692  0  1.032866  0
H  H31  1  0.56708769  0.91007863  0.16406903  1  0.101336  0  0.103218  0.120655  0  1.03284  0
H  H32  1  0.24100767  0.17727721  0.65330004  1  0.068201  0  0.09371  0.09343  0  1.029354  0
H  H33  1  0.75900664  0.82272690  0.15330523  1  0.068305  0  0.093673  0.093352  0  1.02933  0
H  H34  1  0.36889837  0.76580884  0.70757752  1  0.037199  0  0.097681  0.033725  0  0.99899  0
H  H35  1  0.63110763  0.23418998  0.20758086  1  0.037399  0  0.097719  0.033773  0  0.999041  0
H  H36  1  0.51691305  0.84937975  0.83445924  1  0.009482  0  0.085126  0.079316  0  1.011497  0
H  H37  1  0.48308564  0.15062246  0.33446226  1  0.009476  0  0.085136  0.079331  0  1.011446  0
H  H38  1  0.35742077  0.86549092  0.82464627  1  0.025666  0  0.090072  0.087108  0  1.002784  0
H  H39  1  0.64257952  0.13450910  0.32465130  1  0.025716  0  0.090058  0.087056  0  1.002811  0
H  H40  1  0.29274331  0.70370587  0.85904577  1  0.033852  0  0.083702  0.112352  0  1.020514  0
H  H41  1  0.70725831  0.29629775  0.35904585  1  0.033834  0  0.083687  0.112362  0  1.02048  0
H  H42  1  0.44852929  0.69815208  0.88832272  1  0.032562  0  0.08231  0.112071  0  1.017856  0
H  H43  1  0.55147093  0.30184851  0.38832552  1  0.032527  0  0.082342  0.112164  0  1.017761  0
H  H44  1  0.40248161  0.65375659  0.80415060  1  0.018733  0  0.081806  0.105764  0  1.039671  0
H  H45  1  0.59751593  0.34624347  0.30415279  1  0.018805  0  0.081799  0.105772  0  1.039651  0
H  H46  1  0.64795932  0.83360770  0.73002855  1  0.049287  0  0.090086  0.125903  0  0.998747  0
H  H47  1  0.35204534  0.16639550  0.23002695  1  0.049378  0  0.090065  0.125878  0  0.998817  0
H  H48  1  0.57868795  0.78047403  0.65234043  1  0.049426  0  0.091217  0.127891  0  0.999327  0
H  H49  1  0.42132252  0.21952935  0.15234342  1  0.049458  0  0.091186  0.127807  0  0.999258  0
H  H50  1  0.58208679  0.70755470  0.72946205  1  0.040839  0  0.088722  0.124878  0  1.0286  0
H  H51  1  0.41792018  0.29244480  0.22946287  1  0.040584  0  0.088757  0.1249  0  1.028602  0
H  H52  1  0.85159595  0.58500437  0.02805954  1  0.036367  0  0.106842  0.116144  0  1.010624  0
H  H53  1  0.14839415  0.41499123  0.52805518  1  0.036485  0  0.106862  0.116183  0  1.010567  0
H  H54  1  0.97193738  0.68413669  0.12052933  1  0.090043  0  0.111317  0.0784  0  1.026692  0
H  H55  1  0.02806089  0.31585866  0.62052832  1  0.089992  0  0.111363  0.078404  0  1.026794  0
H  H56  1  0.31267420  0.62058208  0.03940264  1  0.088413  0  0.11277  0.078363  0  1.030392  0
H  H57  1  0.68731735  0.37941053  0.53940787  1  0.088307  0  0.112794  0.078394  0  1.030199  0
H  H58  1  0.20857866  0.52015224  0.94252237  1  0.093707  0  0.111404  0.120374  0  0.984664  0
H  H59  1  0.79140504  0.47984455  0.44252323  1  0.093741  0  0.111383  0.120364  0  0.98453  0
H  H60  1  0.27397942  0.35604287  0.72495154  1  0.060785  0  0.094352  0.095744  0  1.025267  0
H  H61  1  0.72601523  0.64395518  0.22494859  1  0.060787  0  0.094383  0.095738  0  1.025249  0
H  H62  1  0.09732999  0.45657086  0.72814153  1  0.074198  0  0.09848  0.106735  0  1.058727  0
H  H63  1  0.90266681  0.54342940  0.22813753  1  0.074321  0  0.098506  0.106775  0  1.058746  0
H  H64  1  0.30021595  0.67259550  0.59392876  1  0.100704  0  0.109504  0.125912  0  0.982342  0
H  H65  1  0.69977978  0.32740140  0.09392777  1  0.100672  0  0.109513  0.125971  0  0.982231  0
H  H66  1  0.48192151  0.57134481  0.59328636  1  0.069484  0  0.101231  0.103327  0  0.997325  0
H  H67  1  0.51806945  0.42865136  0.09328957  1  0.069333  0  0.101148  0.103223  0  0.997362  0
H  H68  1  0.95579158  0.54045595  0.70947220  1  0.057244  0  0.100242  0.040045  0  0.986735  0
H  H69  1  0.04420984  0.45954361  0.20946786  1  0.057247  0  0.100244  0.040053  0  0.986702  0
H  H70  1  0.92843403  0.75488283  0.67213517  1  0.044674  0  0.090742  0.086286  0  0.990869  0
H  H71  1  0.07156075  0.24511536  0.17213420  1  0.04465  0  0.090732  0.086269  0  0.990919  0
H  H72  1  0.81807424  0.68118146  0.72369042  1  -0.0033  0  0.090597  0.086991  0  0.996329  0
H  H73  1  0.18192322  0.31881659  0.22368667  1  -0.003269  0  0.090636  0.087023  0  0.996303  0
H  H74  1  0.89224620  0.62790420  0.57370459  1  0.045182  0  0.08267  0.113146  0  1.019785  0
H  H75  1  0.10774874  0.37209350  0.07370136  1  0.045174  0  0.082651  0.113154  0  1.019845  0
H  H76  1  0.75248023  0.68064573  0.59674747  1  0.012414  0  0.081774  0.107267  0  1.015966  0
H  H77  1  0.24751643  0.31935116  0.09674420  1  0.013132  0  0.081733  0.107247  0  1.015953  0
H  H78  1  0.77676611  0.56012728  0.62634181  1  0.042419  0  0.0804  0.109964  0  1.031047  0
H  H79  1  0.22322880  0.43987102  0.12633789  1  0.042655  0  0.080364  0.109965  0  1.030882  0
H  H80  1  0.96183790  0.63638027  0.81983377  1  0.069978  0  0.088041  0.129289  0  1.02479  0
H  H81  1  0.03816475  0.36362345  0.31983112  1  0.070041  0  0.088057  0.129301  0  1.024807  0
H  H82  1  0.06543492  0.73264044  0.78184324  1  -0.004779  0  0.089315  0.1302  0  1.012208  0
H  H83  1  0.93456681  0.26736263  0.28184267  1  -0.004718  0  0.089279  0.130179  0  1.012139  0
H  H84  1  0.11720390  0.61407897  0.79785908  1  0.04551  0  0.086929  0.122829  0  1.033339  0
H  H85  1  0.88279694  0.38592481  0.29785737  1  0.045488  0  0.086937  0.122843  0  1.033303  0
C  C86  1  0.49925105  0.31517140  0.61491130  1  0.439897  0  0.08631  0.165092  0  4.057797  0
C  C87  1  0.50075455  0.68482986  0.11491631  1  0.439802  0  0.086249  0.165106  0  4.057895  0
C  C88  1  0.40802383  0.29230163  0.55980815  1  -0.023544  0  -0.106326  -0.187954  0  3.993419  0
C  C89  1  0.59198472  0.70769977  0.05981412  1  -0.02329  0  -0.106402  -0.188142  0  3.99345  0
C  C90  1  0.44087919  0.20955658  0.52647406  1  -0.146024  0  -0.10214  -0.178873  0  3.975245  0
C  C91  1  0.55913393  0.79044342  0.02647733  1  -0.14595  0  -0.102059  -0.178681  0  3.97522  0
C  C92  1  0.55233190  0.18178703  0.56114626  1  0.4811  0  0.101636  0.187521  0  4.019947  0
C  C93  1  0.44768534  0.81821657  0.06115220  1  0.481915  0  0.101609  0.187527  0  4.020092  0
C  C94  1  0.61767194  0.09935418  0.54235865  1  0.116787  0  0.00915  -0.00753  0  4.024632  0
C  C95  1  0.38233765  0.90064061  0.04235723  1  0.116684  0  0.009104  -0.007731  0  4.024848  0
C  C96  1  0.73194620  0.07302002  0.57169156  1  0.472219  0  0.103855  0.203566  0  4.000827  0
C  C97  1  0.26806257  0.92697617  0.07169123  1  0.472182  0  0.103913  0.203653  0  4.000556  0
C  C98  1  0.79952973  0.99281984  0.54667812  1  -0.059861  0  -0.106125  -0.183957  0  3.976455  0
C  C99  1  0.20047276  0.00717791  0.04667524  1  -0.065337  0  -0.106195  -0.184063  0  3.976525  0
C  C100  1  0.90790986  0.99582493  0.58483875  1  -0.061923  0  -0.104065  -0.180859  0  3.974694  0
C  C101  1  0.09209317  0.00417050  0.08483700  1  -0.062258  0  -0.104025  -0.180767  0  3.974937  0
C  C102  1  0.90573547  0.07709897  0.63393257  1  0.414085  0  0.090703  0.177915  0  4.030577  0
C  C103  1  0.09426915  0.92290226  0.13393184  1  0.413956  0  0.090624  0.177734  0  4.03097  0
C  C104  1  0.00152427  0.10703955  0.68252124  1  -0.01178  0  0.008468  -0.05655  0  3.927096  0
C  C105  1  0.99848479  0.89296080  0.18252147  1  -0.011914  0  0.008498  -0.056432  0  3.926853  0
C  C106  1  0.00059489  0.18678060  0.73006209  1  0.430144  0  0.087716  0.165349  0  4.042248  0
C  C107  1  0.99940806  0.81321669  0.23006241  1  0.430236  0  0.087713  0.165252  0  4.042224  0
C  C108  1  0.08944153  0.20682011  0.78684203  1  -0.087936  0  -0.105651  -0.183534  0  3.986754  0
C  C109  1  0.91055934  0.79318369  0.28684558  1  -0.087874  0  -0.10567  -0.183502  0  3.986643  0
C  C110  1  0.05195433  0.28523695  0.82342310  1  -0.037699  0  -0.108192  -0.188487  0  3.978965  0
C  C111  1  0.94804532  0.71476528  0.32342514  1  -0.037746  0  -0.108146  -0.188376  0  3.978964  0
C  C112  1  0.94044927  0.31319109  0.78899777  1  0.46386  0  0.097454  0.188855  0  4.019982  0
C  C113  1  0.05954187  0.68680977  0.28899787  1  0.463699  0  0.097408  0.188802  0  4.020171  0
C  C114  1  0.86893597  0.38970237  0.81232391  1  0.077864  0  0.003787  -0.019527  0  4.045303  0
C  C115  1  0.13105456  0.61030139  0.31232404  1  0.077887  0  0.003668  -0.019462  0  4.045601  0
C  C116  1  0.75641344  0.41753109  0.78198116  1  0.491764  0  0.098886  0.192549  0  4.021879  0
C  C117  1  0.24358071  0.58247126  0.28198386  1  0.491796  0  0.099002  0.192599  0  4.02175  0
C  C118  1  0.68559417  0.49485289  0.80852708  1  -0.12321  0  -0.106817  -0.185904  0  3.974822  0
C  C119  1  0.31440439  0.50514791  0.30852982  1  -0.123297  0  -0.106833  -0.18592  0  3.974698  0
C  C120  1  0.58359869  0.49730378  0.76564811  1  -0.048611  0  -0.105707  -0.183326  0  3.984272  0
C  C121  1  0.41640046  0.50270082  0.26565026  1  -0.048536  0  -0.105759  -0.183467  0  3.984461  0
C  C122  1  0.59179134  0.42124356  0.71319239  1  0.447493  0  0.088347  0.171596  0  4.048206  0
C  C123  1  0.40820447  0.57875600  0.21319445  1  0.447451  0  0.088275  0.171583  0  4.048181  0
C  C124  1  0.50002502  0.39554560  0.66158710  1  -0.05407  0  0.004764  -0.062429  0  3.927773  0
C  C125  1  0.49997102  0.60445483  0.16158906  1  -0.053987  0  0.004753  -0.062374  0  3.927778  0
C  C126  1  0.56486350  0.03966743  0.48758690  1  -0.418366  0  -0.024299  -0.048549  0  4.135322  0
C  C127  1  0.43514393  0.96033290  0.98758014  1  -0.418084  0  -0.024197  -0.048356  0  4.135554  0
C  C128  1  0.51739053  0.98981259  0.43948515  1  0.050737  0  -0.044778  -0.133044  0  4.091446  0
C  C129  1  0.48260278  0.01017902  0.93947998  1  0.050883  0  -0.044774  -0.133029  0  4.091848  0
C  C130  1  0.46227544  0.93843742  0.38160233  1  0.008477  0  0.015633  0.178903  0  4.124442  0
C  C131  1  0.53771688  0.06156690  0.88159915  1  0.009047  0  0.015736  0.179036  0  4.124293  0
C  C132  1  0.34633881  0.96222749  0.35439312  1  0.019638  0  -0.081389  -0.182809  0  3.931695  0
C  C133  1  0.65365112  0.03777247  0.85438728  1  0.019225  0  -0.081455  -0.183017  0  3.931673  0
C  C134  1  0.29730188  0.91299821  0.29549889  1  0.510969  0  0.047304  0.102854  0  3.965955  0
C  C135  1  0.70269140  0.08700484  0.79549348  1  0.51038  0  0.047346  0.102964  0  3.965852  0
C  C136  1  0.46363719  0.81835821  0.28893858  1  0.563135  0  0.046365  0.099445  0  3.979877  0
C  C137  1  0.53634962  0.18163822  0.78892795  1  0.562265  0  0.046401  0.099531  0  3.97971  0
C  C138  1  0.52111916  0.86377327  0.34721656  1  -0.033416  0  -0.081582  -0.17993  0  3.919456  0
C  C139  1  0.47887698  0.13623113  0.84721125  1  -0.033215  0  -0.08162  -0.180015  0  3.919576  0
C  C140  1  0.11387783  0.05148971  0.68526223  1  -0.03916  0  -0.026085  0.044147  0  4.043589  0
C  C141  1  0.88613481  0.94851654  0.18526457  1  -0.039094  0  -0.026134  0.044216  0  4.043485  0
C  C142  1  0.10659898  0.95191950  0.70507904  1  -0.000595  0  -0.095  -0.112963  0  4.025208  0
C  C143  1  0.89340556  0.04808228  0.20508712  1  -0.000713  0  -0.095062  -0.112959  0  4.024783  0
C  C144  1  0.21429140  0.90260743  0.71166024  1  0.019081  0  -0.117639  -0.233692  0  4.034494  0
C  C145  1  0.78571508  0.09739507  0.21166625  1  0.01902  0  -0.117688  -0.233859  0  4.034353  0
C  C146  1  0.33264170  0.95312438  0.69780361  1  0.388454  0  0.082764  0.265015  0  4.071506  0
C  C147  1  0.66736723  0.04687520  0.19780872  1  0.388684  0  0.082707  0.265059  0  4.071145  0
C  C148  1  0.34087069  0.05216830  0.67604291  1  -0.023847  0  -0.107824  -0.198113  0  3.999229  0
C  C149  1  0.65913707  0.94782911  0.17604907  1  -0.024073  0  -0.10777  -0.197998  0  3.998832  0
C  C150  1  0.23317133  0.10035265  0.67031945  1  -0.060579  0  -0.094887  -0.11406  0  4.011253  0
C  C151  1  0.76684313  0.89965290  0.17032402  1  -0.060734  0  -0.094816  -0.114006  0  4.011144  0
C  C152  1  0.44549053  0.81473950  0.73183297  1  0.42921  0  0.00179  0.220388  0  3.847273  0
C  C153  1  0.55450936  0.18526296  0.23183381  1  0.429038  0  0.001749  0.220369  0  3.847426  0
C  C154  1  0.42862407  0.81573525  0.81142375  1  -0.003625  0  -0.171975  -0.171048  0  3.913624  0
C  C155  1  0.57137541  0.18426553  0.31142458  1  -0.003772  0  -0.172005  -0.171021  0  3.913631  0
C  C156  1  0.39143306  0.71248086  0.84247118  1  -0.076494  0  -0.246227  -0.342394  0  3.926877  0
C  C157  1  0.60856728  0.28751984  0.34247343  1  -0.076466  0  -0.246228  -0.342517  0  3.926769  0
C  C158  1  0.57097999  0.78188106  0.70954328  1  -0.095762  0  -0.244803  -0.426997  0  3.94349  0
C  C159  1  0.42902369  0.21812145  0.20954418  1  -0.095486  0  -0.244772  -0.426818  0  3.943538  0
C  C160  1  0.91522341  0.44264670  0.87183074  1  -0.226393  0  -0.026515  -0.056482  0  4.148558  0
C  C161  1  0.08477492  0.55736059  0.37182992  1  -0.226566  0  -0.026439  -0.056433  0  4.148306  0
C  C162  1  0.95948802  0.48872683  0.92242254  1  -0.15336  0  -0.044199  -0.12923  0  4.084358  0
C  C163  1  0.04050518  0.51127073  0.42242128  1  -0.153321  0  -0.044253  -0.129351  0  4.083941  0
C  C164  1  0.02036569  0.54469003  0.97677127  1  0.099328  0  0.014617  0.175694  0  4.121668  0
C  C165  1  0.97963287  0.45530665  0.47677150  1  0.099572  0  0.014575  0.17572  0  4.121387  0
C  C166  1  0.95389451  0.59239486  0.02814835  1  0.035508  0  -0.0814  -0.177429  0  3.916865  0
C  C167  1  0.04609923  0.40759999  0.52814826  1  0.039725  0  -0.081407  -0.177512  0  3.916855  0
C  C168  1  0.02071053  0.64686370  0.07981515  1  0.471984  0  0.045141  0.097759  0  3.965505  0
C  C169  1  0.97928858  0.35313027  0.57981550  1  0.467656  0  0.045089  0.097785  0  3.96555  0
C  C170  1  0.21055164  0.61121308  0.03482860  1  0.582124  0  0.045169  0.091973  0  3.981809  0
C  C171  1  0.78944498  0.38878249  0.53483010  1  0.582099  0  0.045138  0.091883  0  3.981512  0
C  C172  1  0.15277304  0.55537714  0.98104108  1  -0.082196  0  -0.078755  -0.177619  0  3.927363  0
C  C173  1  0.84722271  0.44461953  0.48104142  1  -0.082104  0  -0.078701  -0.177574  0  3.926831  0
C  C174  1  0.39115968  0.45608419  0.65897991  1  -0.012334  0  -0.025755  0.043172  0  4.051589  0
C  C175  1  0.60883253  0.54391552  0.15898553  1  -0.012588  0  -0.025826  0.042991  0  4.05154  0
C  C176  1  0.28111692  0.42559835  0.69602156  1  -0.05299  0  -0.095891  -0.114465  0  4.005642  0
C  C177  1  0.71888089  0.57440199  0.19602027  1  -0.053043  0  -0.095909  -0.114389  0  4.005647  0
C  C178  1  0.18021198  0.48302624  0.69803967  1  0.032073  0  -0.114278  -0.223374  0  4.027697  0
C  C179  1  0.81978480  0.51697335  0.19803890  1  0.03207  0  -0.114291  -0.223412  0  4.027685  0
C  C180  1  0.18702536  0.57270114  0.66122122  1  0.39347  0  0.080644  0.257799  0  4.085415  0
C  C181  1  0.81297225  0.42729707  0.16122317  1  0.393432  0  0.08068  0.257978  0  4.08518  0
C  C182  1  0.29600921  0.60312338  0.62273486  1  -0.048727  0  -0.106788  -0.206774  0  4.013249  0
C  C183  1  0.70398767  0.39687566  0.12273692  1  -0.048616  0  -0.106955  -0.207116  0  4.012842  0
C  C184  1  0.39680756  0.54582956  0.62222941  1  -0.051867  0  -0.093214  -0.118235  0  4.016044  0
C  C185  1  0.60318475  0.45417024  0.12223252  1  -0.0516  0  -0.09296  -0.117913  0  4.01543  0
C  C186  1  0.99117858  0.61953771  0.70894161  1  0.400837  0  0.002187  0.228401  0  3.832083  0
C  C187  1  0.00882014  0.38046260  0.20893895  1  0.400618  0  0.002134  0.22828  0  3.832058  0
C  C188  1  0.88765785  0.67831108  0.68157348  1  0.011191  0  -0.16671  -0.158666  0  3.943464  0
C  C189  1  0.11233804  0.32168856  0.18157030  1  0.011407  0  -0.166701  -0.158574  0  3.943448  0
C  C190  1  0.82373486  0.63435594  0.61577449  1  -0.083672  0  -0.251298  -0.353414  0  3.969832  0
C  C191  1  0.17626185  0.36564164  0.11577069  1  -0.084658  0  -0.251219  -0.353449  0  3.969721  0
C  C192  1  0.03697276  0.65269749  0.78130388  1  -0.085963  0  -0.252583  -0.451693  0  3.942946  0
C  C193  1  0.96302803  0.34730559  0.28130163  1  -0.085956  0  -0.252526  -0.451643  0  3.942812  0
N  N194  1  0.58520990  0.24626521  0.61412728  1  -1.213933  0  -0.361158  -0.354485  0  3.466463  0
N  N195  1  0.41479158  0.75373311  0.11412913  1  -1.214267  0  -0.361123  -0.354476  0  3.466328  0
N  N196  1  0.79708470  0.12161223  0.62462919  1  -1.211538  0  -0.356321  -0.348866  0  3.455076  0
N  N197  1  0.20291965  0.87838680  0.12462949  1  -1.211692  0  -0.356345  -0.348868  0  3.455179  0
N  N198  1  0.91221900  0.25336646  0.73275463  1  -1.224436  0  -0.358575  -0.35254  0  3.461666  0
N  N199  1  0.08778197  0.74663008  0.23275516  1  -1.224311  0  -0.358581  -0.352591  0  3.461797  0
N  N200  1  0.69871209  0.37524457  0.72432571  1  -1.201444  0  -0.359194  -0.355587  0  3.464211  0
N  N201  1  0.30128452  0.62475422  0.22432832  1  -1.201407  0  -0.359173  -0.35565  0  3.464281  0
N  N202  1  0.35399364  0.84203012  0.26294463  1  -1.203914  0  -0.313317  -0.226292  0  3.464078  0
N  N203  1  0.64599653  0.15797007  0.76293447  1  -1.203351  0  -0.313298  -0.226332  0  3.464035  0
N  N204  1  0.14675500  0.65646152  0.08381735  1  -1.2242  0  -0.311341  -0.225789  0  3.451396  0
N  N205  1  0.85324553  0.34353614  0.58381833  1  -1.22425  0  -0.311343  -0.225737  0  3.451371  0
O  O206  1  0.44425897  0.91344271  0.70324847  1  -1.057318  0  -0.18035  -0.232291  0  2.486763  0
O  O207  1  0.55574788  0.08655538  0.20325361  1  -1.057389  0  -0.18029  -0.232427  0  2.486396  0
O  O208  1  0.09399985  0.63430700  0.65892399  1  -1.062197  0  -0.182607  -0.242863  0  2.482608  0
O  O209  1  0.90600013  0.36569490  0.15892385  1  -1.062238  0  -0.18263  -0.242911  0  2.482595  0
