# generated using pymatgen
data_Zn6H36C61O26
_symmetry_space_group_name_H-M   'P 1'
_cell_length_a   18.63282366
_cell_length_b   18.77077835
_cell_length_c   18.66949762
_cell_angle_alpha   109.86508594
_cell_angle_beta   109.19116156
_cell_angle_gamma   109.30006100
_symmetry_Int_Tables_number   1
_chemical_formula_structural   Zn6H36C61O26
_chemical_formula_sum   'Zn6 H36 C61 O26'
_cell_volume   5029.97362285
_cell_formula_units_Z   1
loop_
 _symmetry_equiv_pos_site_id
 _symmetry_equiv_pos_as_xyz
  1  'x, y, z'
loop_
 _atom_site_type_symbol
 _atom_site_label
 _atom_site_symmetry_multiplicity
 _atom_site_fract_x
 _atom_site_fract_y
 _atom_site_fract_z
 _atom_site_occupancy
 _atom_site_pbe_bader_charge
 _atom_site_pbe_bader_spin_density
 _atom_site_pbe_cm5_charge
 _atom_site_pbe_ddec_charge
 _atom_site_pbe_ddec_spin_density
 _atom_site_pbe_ddec_sum_bond_order
 _atom_site_pbe_magmom
Zn  Zn0  1  0.94470900  0.00176328  0.44286992  1  1.304537  0  0.715147  0.942657  0  2.169853  0
Zn  Zn1  1  0.06983419  0.00920316  0.57472126  1  1.30335  0  0.716926  0.949212  0  2.141189  0
Zn  Zn2  1  0.05575205  0.56246172  0.00151265  1  1.301021  0  0.715256  0.94289  0  2.167969  0
Zn  Zn3  1  0.92791550  0.43932324  0.99931072  1  1.306942  0  0.715749  0.944547  0  2.158053  0
Zn  Zn4  1  0.50052673  0.44685077  0.43696787  1  1.307376  0  0.717816  0.942564  0  2.175965  0
Zn  Zn5  1  0.50043330  0.56691172  0.56752193  1  1.305091  0  0.717997  0.94974  0  2.130306  0
H  H6  1  0.15809400  0.83121103  0.27362005  1  0.068731  0  0.101084  0.089565  0  0.991145  0
H  H7  1  0.77966071  0.15330022  0.55222061  1  0.061489  0  0.098862  0.107564  0  0.981326  0
H  H8  1  0.30044577  0.27453577  0.68172153  1  0.064378  0  0.105983  0.110217  0  0.992281  0
H  H9  1  0.10371804  0.80089927  0.39165127  1  0.057524  0  0.099836  0.090515  0  0.99219  0
H  H10  1  0.39818527  0.40143474  0.68090238  1  0.075322  0  0.105026  0.10906  0  0.994274  0
H  H11  1  0.18901657  0.25431013  0.33623923  1  0.047024  0  0.097454  0.105737  0  0.982861  0
H  H12  1  0.25543268  0.20464614  0.33236981  1  0.051394  0  0.099696  0.112155  0  0.977986  0
H  H13  1  0.08390675  0.13030866  0.33811052  1  0.054921  0  0.098294  0.109874  0  0.980632  0
H  H14  1  0.14980088  0.08009386  0.33307609  1  0.055217  0  0.094897  0.099729  0  0.993791  0
H  H15  1  0.09292204  0.45080868  0.25609680  1  0.08896  0  0.108006  0.111639  0  0.988013  0
H  H16  1  0.22104095  0.46381903  0.36830523  1  0.086109  0  0.108203  0.112932  0  0.98778  0
H  H17  1  0.60293355  0.61704747  0.32916675  1  0.058972  0  0.095597  0.108242  0  0.988002  0
H  H18  1  0.40050939  0.53774665  0.21053951  1  0.069937  0  0.112374  0.110454  0  0.953929  0
H  H19  1  0.27368114  0.52397004  0.09440451  1  0.060134  0  0.10176  0.117373  0  0.977081  0
H  H20  1  0.96334013  0.63224770  0.24919544  1  0.062964  0  0.098724  0.088161  0  0.992691  0
H  H21  1  0.22451323  0.40697960  0.03924798  1  0.065862  0  0.104905  0.1234  0  0.976561  0
H  H22  1  0.68789508  0.44509954  0.83225604  1  0.061664  0  0.106263  0.111802  0  0.989587  0
H  H23  1  0.58979662  0.45067698  0.70965136  1  0.091197  0  0.103747  0.108273  0  0.997981  0
H  H24  1  0.77940741  0.40428152  0.55175222  1  0.070175  0  0.098343  0.107075  0  0.981835  0
H  H25  1  0.82838678  0.52042577  0.60841317  1  0.038198  0  0.098596  0.106739  0  0.981343  0
H  H26  1  0.88713995  0.41445636  0.68380123  1  0.043348  0  0.095329  0.10296  0  0.996877  0
H  H27  1  0.93387681  0.53013695  0.74121834  1  0.088416  0  0.099936  0.113069  0  0.977659  0
H  H28  1  0.79175283  0.67979457  0.36226976  1  0.041357  0  0.095355  0.101974  0  0.986305  0
H  H29  1  0.85479262  0.70764952  0.21589723  1  0.072632  0  0.099592  0.084534  0  0.994799  0
H  H30  1  0.91006512  0.73557226  0.09797492  1  0.078946  0  0.102914  0.088609  0  0.989124  0
H  H31  1  0.04744664  0.90394469  0.23948208  1  0.076662  0  0.099671  0.083421  0  1.002228  0
H  H32  1  0.88500136  0.91577417  0.68372579  1  0.076746  0  0.108576  0.114132  0  0.986162  0
H  H33  1  0.75635636  0.81323741  0.67857238  1  0.07302  0  0.107648  0.112744  0  0.989715  0
H  H34  1  0.66858241  0.57152319  0.36228558  1  0.03395  0  0.096583  0.107438  0  0.98053  0
H  H35  1  0.45598284  0.38156996  0.15244938  1  0.616652  0  0.344286  0.379926  0  0.855042  0
H  H36  1  0.72784074  0.72855794  0.33296605  1  0.041511  0  0.097369  0.108216  0  0.983269  0
H  H37  1  0.12792550  0.27703415  0.72300667  1  0.089883  0  0.105261  0.110798  0  0.991703  0
H  H38  1  0.14319274  0.39999607  0.84471461  1  0.078194  0  0.105288  0.109544  0  0.992648  0
H  H39  1  0.80532505  0.20859511  0.73855104  1  0.05258  0  0.100199  0.112961  0  0.976239  0
H  H40  1  0.79429366  0.26884756  0.68363576  1  0.035466  0  0.095162  0.103238  0  0.995472  0
H  H41  1  0.78682697  0.09146486  0.60613100  1  0.050611  0  0.099017  0.107304  0  0.980737  0
C  C42  1  0.91463248  0.90087942  0.54377361  1  1.562122  0  0.225248  0.619225  0  4.130988  0
C  C43  1  0.70815286  0.69903097  0.46940509  1  -0.019306  0  -0.00356  0.066736  0  3.887247  0
C  C44  1  0.66884081  0.63302061  0.37374024  1  -0.003137  0  -0.151679  -0.195656  0  3.876155  0
C  C45  1  0.99223158  0.88874033  0.37369465  1  1.510468  0  0.219214  0.60676  0  4.13904  0
C  C46  1  0.74710121  0.70165197  0.37503050  1  0.00303  0  -0.151939  -0.19798  0  3.883129  0
C  C47  1  0.91409293  0.20771391  0.65828150  1  0.006501  0  -0.006069  0.052102  0  3.893323  0
C  C48  1  0.98663389  0.20556303  0.65427422  1  -0.024227  0  -0.010419  -0.063869  0  3.972732  0
C  C49  1  0.06956146  0.27683851  0.72360664  1  -0.036701  0  -0.08507  -0.102941  0  3.987249  0
C  C50  1  0.07826881  0.34535806  0.79272498  1  -0.04869  0  -0.085334  -0.105395  0  3.996167  0
C  C51  1  0.00465589  0.34352894  0.79959593  1  0.025788  0  -0.012789  -0.071979  0  3.990207  0
C  C52  1  0.92312629  0.27328364  0.73066206  1  -0.031732  0  -0.006035  0.054851  0  3.893942  0
C  C53  1  0.95248803  0.75085585  0.16402171  1  -0.026492  0  -0.065406  -0.055313  0  3.614751  0
C  C54  1  0.82530970  0.23086364  0.69743900  1  -0.000759  0  -0.149525  -0.19608  0  3.870507  0
C  C55  1  0.81492648  0.15727277  0.61480752  1  -0.039094  0  -0.149872  -0.197118  0  3.879388  0
C  C56  1  0.20734843  0.19569553  0.46327708  1  -0.060206  0  -0.005135  0.05838  0  3.889622  0
C  C57  1  0.15175661  0.12335534  0.53857282  1  1.528565  0  0.218738  0.608624  0  4.144881  0
C  C58  1  0.21776304  0.19638539  0.54095828  1  0.030073  0  -0.011925  -0.064749  0  3.974988  0
C  C59  1  0.28955610  0.27165751  0.61948013  1  -0.010029  0  -0.084724  -0.105605  0  3.987853  0
C  C60  1  0.34498622  0.34291596  0.61897355  1  -0.038715  0  -0.085737  -0.108578  0  3.993199  0
C  C61  1  0.33462266  0.34058908  0.53977975  1  -0.062909  0  -0.011606  -0.067635  0  3.982421  0
C  C62  1  0.26549493  0.26449325  0.46261363  1  0.050369  0  -0.005418  0.058576  0  3.89237  0
C  C63  1  0.21770516  0.22051322  0.36330122  1  -0.023652  0  -0.149958  -0.195633  0  3.870673  0
C  C64  1  0.02976508  0.84317817  0.24135280  1  -0.032221  0  -0.069696  -0.059417  0  3.626069  0
C  C65  1  0.15142091  0.14239194  0.36406241  1  -0.010639  0  -0.149854  -0.194569  0  3.876952  0
C  C66  1  0.07831628  0.46567071  0.11012285  1  1.551009  0  0.222102  0.61387  0  4.14098  0
C  C67  1  0.01598840  0.64234920  0.11682401  1  1.528358  0  0.221005  0.608414  0  4.137458  0
C  C68  1  0.85209397  0.46836270  0.87401951  1  1.538958  0  0.219511  0.612169  0  4.14734  0
C  C69  1  0.98150360  0.12946040  0.58817463  1  1.548997  0  0.221941  0.615959  0  4.137922  0
C  C70  1  0.01365162  0.41047373  0.87797089  1  1.522744  0  0.218114  0.611112  0  4.143375  0
C  C71  1  0.61150823  0.46723881  0.58066283  1  1.528973  0  0.219674  0.6147  0  4.135264  0
C  C72  1  0.62065000  0.65023040  0.53636895  1  1.537491  0  0.2209  0.612252  0  4.137584  0
C  C73  1  0.37186521  0.47816213  0.36747467  1  1.548354  0  0.224173  0.616433  0  4.136393  0
C  C74  1  0.39455055  0.41257623  0.53584003  1  1.537905  0  0.217848  0.608511  0  4.143612  0
C  C75  1  0.00036605  0.82619138  0.30709316  1  0.01783  0  -0.007625  -0.027028  0  3.642347  0
C  C76  1  0.21888295  0.46243093  0.16117514  1  -0.012319  0  1.7e-05  0.069428  0  3.886416  0
C  C77  1  0.14701108  0.45850025  0.17122274  1  0.022827  0  -0.007972  -0.06057  0  3.955852  0
C  C78  1  0.14835002  0.45546457  0.24602058  1  -0.034248  0  -0.079668  -0.100189  0  3.977609  0
C  C79  1  0.22043843  0.46208674  0.30913151  1  -0.016479  0  -0.081583  -0.102462  0  3.977853  0
C  C80  1  0.29339339  0.46740465  0.29892261  1  0.010724  0  -0.007025  -0.056048  0  3.969072  0
C  C81  1  0.06064917  0.78601729  0.32606066  1  -0.022091  0  -0.078219  -0.069284  0  3.637949  0
C  C82  1  0.28855355  0.46498730  0.22211269  1  -0.044974  0  -0.001164  0.03672  0  3.877609  0
C  C83  1  0.34086203  0.47389626  0.17447877  1  -0.008356  0  -0.070554  -0.147813  0  3.814497  0
C  C84  1  0.25916324  0.46688192  0.10315173  1  -0.001601  0  -0.140041  -0.209454  0  3.826599  0
C  C85  1  0.80407838  0.45914462  0.72708623  1  -0.051637  0  -0.005113  0.054023  0  3.890787  0
C  C86  1  0.77779453  0.75895398  0.47095477  1  -0.036607  0  -0.008557  0.048671  0  3.896478  0
C  C87  1  0.78639474  0.45685506  0.79346537  1  0.029249  0  -0.01423  -0.071514  0  3.987921  0
C  C88  1  0.70512046  0.44886295  0.78269946  1  -0.012116  0  -0.085539  -0.10731  0  3.996952  0
C  C89  1  0.64936786  0.45078770  0.71301670  1  -0.037858  0  -0.084742  -0.100684  0  3.990337  0
C  C90  1  0.66847334  0.45466895  0.64676901  1  0.012373  0  -0.0112  -0.065395  0  3.973057  0
C  C91  1  0.74532897  0.45497054  0.65403137  1  -0.04484  0  -0.006061  0.053424  0  3.888745  0
C  C92  1  0.80509454  0.46208712  0.61463496  1  -0.029228  0  -0.14929  -0.197635  0  3.880922  0
C  C93  1  0.09085892  0.80362624  0.26156654  1  -0.009605  0  -0.073811  -0.067298  0  3.631978  0
C  C94  1  0.87196874  0.46779422  0.69777949  1  -0.043282  0  -0.150222  -0.195236  0  3.871346  0
C  C95  1  0.01405092  0.71032496  0.18469205  1  -0.001153  0  -0.007198  -0.027437  0  3.636228  0
C  C96  1  0.98268877  0.69359558  0.24848500  1  -0.021798  0  -0.076754  -0.066474  0  3.641825  0
C  C97  1  0.84349270  0.83791468  0.54698161  1  -0.03992  0  -0.007179  -0.054882  0  3.965216  0
C  C98  1  0.92213557  0.73353249  0.22807914  1  -0.032195  0  -0.071501  -0.063143  0  3.633655  0
C  C99  1  0.36108989  0.40150200  0.14236767  1  1.533613  0  0.23057  0.608701  0  4.083687  0
C  C100  1  0.83479020  0.85501169  0.62241219  1  0.000713  0  -0.085157  -0.114178  0  3.98481  0
C  C101  1  0.76223305  0.79685568  0.61963037  1  -0.014878  0  -0.081289  -0.09625  0  3.979481  0
C  C102  1  0.69682239  0.71637013  0.54253152  1  -0.010316  0  -0.015621  -0.080972  0  3.983019  0
O  O103  1  0.88923871  0.91668797  0.48189796  1  -1.166113  0  -0.309348  -0.568502  0  2.311502  0
O  O104  1  0.58919307  0.52269525  0.61017461  1  -1.164064  0  -0.310487  -0.572617  0  2.322915  0
O  O105  1  0.58407646  0.57269732  0.47334809  1  -1.18251  0  -0.310615  -0.570792  0  2.349126  0
O  O106  1  0.99505789  0.93323997  0.60083938  1  -1.127051  0  -0.316348  -0.526629  0  2.211802  0
O  O107  1  0.59507470  0.67301545  0.59253788  1  -1.126678  0  -0.318729  -0.52915  0  2.214981  0
O  O108  1  0.40638464  0.43381337  0.33918370  1  -1.121361  0  -0.31295  -0.525194  0  2.256098  0
O  O109  1  0.39899746  0.52983363  0.44720096  1  -1.166967  0  -0.310405  -0.56383  0  2.287124  0
O  O110  1  0.41177776  0.38953474  0.47408308  1  -1.169006  0  -0.308993  -0.567443  0  2.314091  0
O  O111  1  0.42419136  0.49220996  0.59327467  1  -1.124025  0  -0.319389  -0.528949  0  2.220038  0
O  O112  1  0.93681309  0.91279930  0.34458500  1  -1.132736  0  -0.325898  -0.538589  0  2.236733  0
O  O113  1  0.03950866  0.91405454  0.45398061  1  -1.166523  0  -0.313918  -0.571138  0  2.298537  0
O  O114  1  0.99727181  0.41862859  0.08588622  1  -1.131748  0  -0.31766  -0.528484  0  2.212917  0
O  O115  1  0.07330346  0.08757783  0.47789500  1  -1.177692  0  -0.310083  -0.5719  0  2.321006  0
O  O116  1  0.17651286  0.10083736  0.59630348  1  -1.129265  0  -0.319647  -0.528712  0  2.213879  0
O  O117  1  0.92528101  0.09332720  0.50623911  1  -1.127962  0  -0.320482  -0.530525  0  2.203909  0
O  O118  1  0.03372069  0.10433707  0.61816438  1  -1.16976  0  -0.309747  -0.570607  0  2.325495  0
O  O119  1  0.10605540  0.51965252  0.08601481  1  -1.165341  0  -0.309089  -0.568088  0  2.315949  0
O  O120  1  0.30700269  0.32431634  0.09216158  1  -1.146937  0  -0.301024  -0.495732  0  2.037411  0
O  O121  1  0.44918684  0.43279170  0.17580606  1  -1.121065  0  -0.343289  -0.500367  0  2.204128  0
O  O122  1  0.07073897  0.66639763  0.09027447  1  -1.133432  0  -0.322775  -0.534856  0  2.224147  0
O  O123  1  0.96203143  0.56344253  0.08853467  1  -1.178784  0  -0.315708  -0.575605  0  2.322435  0
O  O124  1  0.93136284  0.52380249  0.90479638  1  -1.176691  0  -0.30973  -0.566759  0  2.309247  0
O  O125  1  0.82493601  0.42205951  0.90692645  1  -1.132831  0  -0.321023  -0.532681  0  2.225939  0
O  O126  1  0.07312749  0.49056331  0.91303196  1  -1.133109  0  -0.321594  -0.534631  0  2.230035  0
O  O127  1  0.96131287  0.38391403  0.90463130  1  -1.16713  0  -0.308133  -0.564935  0  2.299166  0
O  O128  1  0.58778186  0.42232587  0.49890407  1  -1.122705  0  -0.321649  -0.532135  0  2.193569  0
