# generated using pymatgen
data_Bi2H3C7NO6
_symmetry_space_group_name_H-M   'P 1'
_cell_length_a   3.98141121
_cell_length_b   11.91096110
_cell_length_c   20.81097517
_cell_angle_alpha   89.08424016
_cell_angle_beta   84.52330089
_cell_angle_gamma   80.40016202
_symmetry_Int_Tables_number   1
_chemical_formula_structural   Bi2H3C7NO6
_chemical_formula_sum   'Bi8 H12 C28 N4 O24'
_cell_volume   968.64490104
_cell_formula_units_Z   4
loop_
 _symmetry_equiv_pos_site_id
 _symmetry_equiv_pos_as_xyz
  1  'x, y, z'
loop_
 _atom_site_type_symbol
 _atom_site_label
 _atom_site_symmetry_multiplicity
 _atom_site_fract_x
 _atom_site_fract_y
 _atom_site_fract_z
 _atom_site_occupancy
 _atom_site_hle17_bader_spin_density
 _atom_site_hle17_ddec_charge
 _atom_site_hle17_ddec_spin_density
 _atom_site_hle17_ddec_sum_bond_order
 _atom_site_hle17_magmom
 _atom_site_hse06_10hf_bader_spin_density
 _atom_site_hse06_10hf_ddec_charge
 _atom_site_hse06_10hf_ddec_spin_density
 _atom_site_hse06_10hf_ddec_sum_bond_order
 _atom_site_hse06_10hf_magmom
 _atom_site_hse06_bader_spin_density
 _atom_site_hse06_ddec_charge
 _atom_site_hse06_ddec_spin_density
 _atom_site_hse06_ddec_sum_bond_order
 _atom_site_hse06_magmom
 _atom_site_pbe_bader_spin_density
 _atom_site_pbe_cm5_charge
 _atom_site_pbe_ddec_charge
 _atom_site_pbe_ddec_spin_density
 _atom_site_pbe_ddec_sum_bond_order
 _atom_site_pbe_magmom
Bi  Bi0  1  0.18690123  0.72619938  0.90863926  1  0  1.680161  0  2.306436  0  0  1.468456  0  2.790389  0  0  1.54267  0  2.740763  0  0  0.827529  1.415775  0  2.824302  0
Bi  Bi1  1  0.82140918  0.27387700  0.09149468  1  0  1.681907  0  2.306117  0  0  1.470572  0  2.790281  0  0  1.544735  0  2.740494  0  0  0.828088  1.417862  0  2.824372  0
Bi  Bi2  1  0.84684213  0.22608943  0.59135733  1  0  1.679853  0  2.306509  0  0  1.468312  0  2.790421  0  0  1.542484  0  2.740797  0  0  0.82739  1.415628  0  2.824405  0
Bi  Bi3  1  0.66348726  0.77372937  0.40850590  1  0  1.682966  0  2.305178  0  0  1.471725  0  2.78913  0  0  1.545957  0  2.739361  0  0  0.828879  1.418978  0  2.823196  0
Bi  Bi4  1  0.78698091  0.46874616  0.92644436  1  0  1.741133  0  2.254565  0  0  1.538352  0  2.714324  0  0  1.610586  0  2.665592  0  0  0.815913  1.486919  0  2.747899  0
Bi  Bi5  1  0.18454689  0.53113715  0.07347114  1  0  1.739398  0  2.255496  0  0  1.536369  0  2.715487  0  0  1.608694  0  2.666697  0  0  0.814721  1.484867  0  2.749114  0
Bi  Bi6  1  0.46494874  0.96851312  0.57351076  1  0  1.741742  0  2.254121  0  0  1.53935  0  2.713715  0  0  1.61147  0  2.665025  0  0  0.816098  1.488005  0  2.747269  0
Bi  Bi7  1  0.00947238  0.03112569  0.42653698  1  0  1.73988  0  2.256773  0  0  1.536943  0  2.716925  0  0  1.609213  0  2.668169  0  0  0.815018  1.485472  0  2.750509  0
H  H8  1  0.20690128  0.02153728  0.04857711  1  0  0.082804  0  0.983231  0  0  0.087812  0  1.05488  0  0  0.091779  0  1.049905  0  0  0.111306  0.084981  0  1.058265  0
H  H9  1  0.27886599  0.97841135  0.95153825  1  0  0.08269  0  0.983107  0  0  0.08782  0  1.054747  0  0  0.091834  0  1.049669  0  0  0.111313  0.085015  0  1.058117  0
H  H10  1  0.00546849  0.52167155  0.45142038  1  0  0.083478  0  0.981019  0  0  0.087877  0  1.053461  0  0  0.091974  0  1.048349  0  0  0.11138  0.084969  0  1.056939  0
H  H11  1  0.98017776  0.47825353  0.54842898  1  0  0.083136  0  0.982455  0  0  0.088104  0  1.054169  0  0  0.09214  0  1.049129  0  0  0.111546  0.085173  0  1.057677  0
H  H12  1  0.63246086  0.77207634  0.18362807  1  0  0.120445  0  0.92716  0  0  0.128485  0  0.991378  0  0  0.133122  0  0.986075  0  0  0.115898  0.125079  0  0.995216  0
H  H13  1  0.58437161  0.22820490  0.81610340  1  0  0.119702  0  0.928253  0  0  0.127703  0  0.99254  0  0  0.132297  0  0.98728  0  0  0.11565  0.124299  0  0.996386  0
H  H14  1  0.56507492  0.27204524  0.31637601  1  0  0.121473  0  0.926954  0  0  0.128964  0  0.991695  0  0  0.133556  0  0.986444  0  0  0.11622  0.125561  0  0.995521  0
H  H15  1  0.15123399  0.72804322  0.68381506  1  0  0.120687  0  0.926994  0  0  0.128471  0  0.991651  0  0  0.133067  0  0.986374  0  0  0.115859  0.1251  0  0.995417  0
H  H16  1  0.35106079  0.12920953  0.23086242  1  0  0.099379  0  0.918787  0  0  0.104816  0  0.986332  0  0  0.10909  0  0.980868  0  0  0.120839  0.101677  0  0.990271  0
H  H17  1  0.70793451  0.87103187  0.76892783  1  0  0.099484  0  0.918776  0  0  0.104734  0  0.986515  0  0  0.109006  0  0.981082  0  0  0.120927  0.101524  0  0.990516  0
H  H18  1  0.33198301  0.62918715  0.26913429  1  0  0.099351  0  0.918283  0  0  0.105023  0  0.985766  0  0  0.109304  0  0.980293  0  0  0.120937  0.101871  0  0.989704  0
H  H19  1  0.22651184  0.37093726  0.73108978  1  0  0.099641  0  0.917771  0  0  0.104947  0  0.985301  0  0  0.109205  0  0.979895  0  0  0.121308  0.101818  0  0.989224  0
C  C20  1  0.29863106  0.99835061  0.09550068  1  0  0.119414  0  3.707537  0  0  0.078843  0  3.960145  0  0  0.088249  0  3.97722  0  0  0.048783  0.072785  0  3.948714  0
C  C21  1  0.39185476  0.00172770  0.90444661  1  0  0.117161  0  3.708722  0  0  0.076585  0  3.960704  0  0  0.085973  0  3.977895  0  0  0.047681  0.070335  0  3.949559  0
C  C22  1  0.14384206  0.49839526  0.40449641  1  0  0.119197  0  3.707161  0  0  0.078747  0  3.959683  0  0  0.088119  0  3.976712  0  0  0.048745  0.07276  0  3.948202  0
C  C23  1  0.04605446  0.50161119  0.59552770  1  0  0.119695  0  3.705808  0  0  0.07922  0  3.957889  0  0  0.088565  0  3.975023  0  0  0.049748  0.073351  0  3.946237  0
C  C24  1  0.42688202  0.88505089  0.10946210  1  0  -0.107304  0  3.727789  0  0  -0.078703  0  3.964142  0  0  -0.092109  0  3.986908  0  0  -0.01553  -0.070342  0  3.948948  0
C  C25  1  0.41923721  0.11513951  0.89040397  1  0  -0.104231  0  3.726181  0  0  -0.075197  0  3.961466  0  0  -0.088708  0  3.98442  0  0  -0.013989  -0.066725  0  3.946058  0
C  C26  1  0.28573696  0.38506223  0.39055593  1  0  -0.106867  0  3.728495  0  0  -0.077287  0  3.963538  0  0  -0.090811  0  3.986464  0  0  -0.015166  -0.068861  0  3.948243  0
C  C27  1  0.05980343  0.61500265  0.60955304  1  0  -0.10722  0  3.72964  0  0  -0.077901  0  3.96513  0  0  -0.091423  0  3.98811  0  0  -0.015478  -0.069482  0  3.949807  0
C  C28  1  0.53501343  0.85966911  0.17062595  1  0  -0.000422  0  3.633896  0  0  -0.041942  0  3.878943  0  0  -0.034008  0  3.894046  0  0  -0.050569  -0.046613  0  3.86855  0
C  C29  1  0.56223270  0.14058069  0.82918648  1  0  -0.000738  0  3.634001  0  0  -0.042283  0  3.878981  0  0  -0.034317  0  3.894163  0  0  -0.050647  -0.046952  0  3.868523  0
C  C30  1  0.45481694  0.35963990  0.32939311  1  0  -0.002487  0  3.635281  0  0  -0.043842  0  3.880305  0  0  -0.035861  0  3.895439  0  0  -0.05129  -0.04852  0  3.869915  0
C  C31  1  0.14195337  0.64043329  0.67075174  1  0  -0.001456  0  3.635918  0  0  -0.043091  0  3.881232  0  0  -0.035152  0  3.896457  0  0  -0.050582  -0.047768  0  3.870796  0
C  C32  1  0.50572061  0.94761889  0.21561996  1  0  -0.108124  0  3.709866  0  0  -0.080953  0  3.950057  0  0  -0.095014  0  3.973801  0  0  -0.011297  -0.072198  0  3.934244  0
C  C33  1  0.66691083  0.05259312  0.78425777  1  0  -0.111173  0  3.711447  0  0  -0.084059  0  3.952093  0  0  -0.098141  0  3.975828  0  0  -0.0133  -0.075312  0  3.936287  0
C  C34  1  0.47071975  0.44756004  0.28437746  1  0  -0.109022  0  3.70959  0  0  -0.081849  0  3.94992  0  0  -0.095909  0  3.973623  0  0  -0.012152  -0.073147  0  3.934196  0
C  C35  1  0.20124797  0.55247621  0.71571423  1  0  -0.110204  0  3.711617  0  0  -0.083114  0  3.952395  0  0  -0.097152  0  3.976062  0  0  -0.012858  -0.074372  0  3.936634  0
C  C36  1  0.37667575  0.05876123  0.19696274  1  0  0.145579  0  3.657208  0  0  0.100685  0  3.919888  0  0  0.111442  0  3.934515  0  0  0.059583  0.093922  0  3.909667  0
C  C37  1  0.63009886  0.94144364  0.80288268  1  0  0.146195  0  3.657945  0  0  0.101194  0  3.92067  0  0  0.111957  0  3.935343  0  0  0.059856  0.0945  0  3.910421  0
C  C38  1  0.32350955  0.55872466  0.30302647  1  0  0.145596  0  3.655845  0  0  0.100208  0  3.919138  0  0  0.110961  0  3.933764  0  0  0.059166  0.093473  0  3.908932  0
C  C39  1  0.18277559  0.44133172  0.69712055  1  0  0.145784  0  3.657985  0  0  0.101125  0  3.920421  0  0  0.111897  0  3.935036  0  0  0.059361  0.09432  0  3.910252  0
C  C40  1  0.42234710  0.79363850  0.06074379  1  0  0.67737  0  3.918976  0  0  0.62098  0  4.22067  0  0  0.657534  0  4.212223  0  0  0.211764  0.596231  0  4.225573  0
C  C41  1  0.27644238  0.20636370  0.93933273  1  0  0.676572  0  3.916953  0  0  0.620164  0  4.218634  0  0  0.656725  0  4.21024  0  0  0.210591  0.595438  0  4.223444  0
C  C42  1  0.23291139  0.29371485  0.43934832  1  0  0.678485  0  3.91483  0  0  0.621531  0  4.217295  0  0  0.658104  0  4.208829  0  0  0.212013  0.596768  0  4.222205  0
C  C43  1  0.96613582  0.70623146  0.56061767  1  0  0.678778  0  3.916019  0  0  0.622026  0  4.21803  0  0  0.658576  0  4.209618  0  0  0.212368  0.597263  0  4.222914  0
C  C44  1  0.58972948  0.92301622  0.28388899  1  0  0.668044  0  3.8908  0  0  0.611539  0  4.190523  0  0  0.648061  0  4.183147  0  0  0.212667  0.586839  0  4.194745  0
C  C45  1  0.79613870  0.07704756  0.71605625  1  0  0.668966  0  3.892903  0  0  0.612474  0  4.192601  0  0  0.649006  0  4.185213  0  0  0.212581  0.587785  0  4.19681  0
C  C46  1  0.62315742  0.42296366  0.21613302  1  0  0.669242  0  3.8906  0  0  0.612934  0  4.189896  0  0  0.649463  0  4.182553  0  0  0.213492  0.588245  0  4.194084  0
C  C47  1  0.26194175  0.57698482  0.78393425  1  0  0.666866  0  3.892447  0  0  0.610074  0  4.192504  0  0  0.646576  0  4.185168  0  0  0.212036  0.585393  0  4.19668  0
N  N48  1  0.27716120  0.08395702  0.13768779  1  0  -0.39475  0  3.234309  0  0  -0.328592  0  3.506261  0  0  -0.350059  0  3.527922  0  0  -0.31171  -0.313872  0  3.491001  0
N  N49  1  0.49724330  0.91620156  0.86218896  1  0  -0.392863  0  3.233258  0  0  -0.326394  0  3.504493  0  0  -0.347909  0  3.526281  0  0  -0.310563  -0.311594  0  3.489063  0
N  N50  1  0.16485243  0.58397144  0.36229845  1  0  -0.395072  0  3.23448  0  0  -0.328654  0  3.506261  0  0  -0.350147  0  3.527959  0  0  -0.311137  -0.313935  0  3.490987  0
N  N51  1  0.10920022  0.41609912  0.63781008  1  0  -0.393224  0  3.233329  0  0  -0.327039  0  3.50485  0  0  -0.348529  0  3.526578  0  0  -0.311389  -0.312337  0  3.489564  0
O  O52  1  0.24416231  0.82254413  0.01355571  1  0  -0.673578  0  2.012761  0  0  -0.608941  0  2.26126  0  0  -0.639829  0  2.252847  0  0  -0.307949  -0.587188  0  2.266217  0
O  O53  1  0.07992455  0.17750492  0.98652328  1  0  -0.673917  0  2.011385  0  0  -0.609368  0  2.259776  0  0  -0.640249  0  2.251357  0  0  -0.308297  -0.587649  0  2.264821  0
O  O54  1  0.00742758  0.32262943  0.48650241  1  0  -0.673452  0  2.013026  0  0  -0.608401  0  2.261392  0  0  -0.639388  0  2.253166  0  0  -0.307746  -0.586649  0  2.266357  0
O  O55  1  0.81627162  0.67744969  0.51347056  1  0  -0.673893  0  2.012198  0  0  -0.608982  0  2.260632  0  0  -0.639858  0  2.252215  0  0  -0.308015  -0.587291  0  2.26573  0
O  O56  1  0.58047122  0.69425025  0.07086149  1  0  -0.712632  0  2.07858  0  0  -0.652335  0  2.334946  0  0  -0.683095  0  2.327749  0  0  -0.308019  -0.630703  0  2.339238  0
O  O57  1  0.34732943  0.30559961  0.92943644  1  0  -0.712491  0  2.077012  0  0  -0.652553  0  2.333471  0  0  -0.683131  0  2.326056  0  0  -0.307655  -0.631004  0  2.337823  0
O  O58  1  0.40176344  0.19440020  0.42934903  1  0  -0.713716  0  2.076737  0  0  -0.653546  0  2.333583  0  0  -0.684145  0  2.326162  0  0  -0.308448  -0.631981  0  2.337976  0
O  O59  1  0.02787706  0.80539074  0.57045655  1  0  -0.714668  0  2.0757  0  0  -0.654937  0  2.33287  0  0  -0.685484  0  2.32542  0  0  -0.309502  -0.633455  0  2.337398  0
O  O60  1  0.68162714  0.81731396  0.29727072  1  0  -0.614611  0  1.977026  0  0  -0.548945  0  2.220116  0  0  -0.579108  0  2.210759  0  0  -0.292267  -0.527928  0  2.22581  0
O  O61  1  0.79523675  0.18274540  0.70257050  1  0  -0.614405  0  1.978796  0  0  -0.548457  0  2.221608  0  0  -0.578638  0  2.212257  0  0  -0.292013  -0.527425  0  2.227294  0
O  O62  1  0.72872827  0.31727405  0.20277559  1  0  -0.615171  0  1.977625  0  0  -0.549344  0  2.220335  0  0  -0.579513  0  2.210964  0  0  -0.292252  -0.528304  0  2.226011  0
O  O63  1  0.24699545  0.68269722  0.79742036  1  0  -0.613362  0  1.978329  0  0  -0.547142  0  2.221001  0  0  -0.577225  0  2.211557  0  0  -0.291815  -0.526186  0  2.226755  0
O  O64  1  0.55564712  0.00507195  0.32315307  1  0  -0.683823  0  1.99107  0  0  -0.624865  0  2.227186  0  0  -0.653215  0  2.21898  0  0  -0.310027  -0.604987  0  2.23225  0
O  O65  1  0.88554675  0.99483101  0.67696383  1  0  -0.684182  0  1.991117  0  0  -0.625386  0  2.22706  0  0  -0.653697  0  2.218833  0  0  -0.309853  -0.605517  0  2.232077  0
O  O66  1  0.62840428  0.50502882  0.17686238  1  0  -0.68298  0  1.989954  0  0  -0.623981  0  2.22563  0  0  -0.652369  0  2.217484  0  0  -0.309907  -0.604073  0  2.23065  0
O  O67  1  0.31237361  0.49479293  0.82305012  1  0  -0.683224  0  1.99121  0  0  -0.624276  0  2.227361  0  0  -0.652645  0  2.219238  0  0  -0.309545  -0.604392  0  2.232375  0
O  O68  1  0.71333105  0.64658679  0.89903540  1  0  -1.022937  0  1.832551  0  0  -0.896793  0  2.106904  0  0  -0.941157  0  2.091522  0  0  -0.475749  -0.865419  0  2.116415  0
O  O69  1  0.25919475  0.35339535  0.10117154  1  0  -1.023461  0  1.832758  0  0  -0.89748  0  2.107581  0  0  -0.941709  0  2.091827  0  0  -0.475909  -0.866158  0  2.117336  0
O  O70  1  0.36339652  0.14639763  0.60088153  1  0  -1.022661  0  1.83123  0  0  -0.89664  0  2.105719  0  0  -0.940841  0  2.090059  0  0  -0.475974  -0.865345  0  2.115401  0
O  O71  1  0.11064904  0.85338593  0.39892570  1  0  -1.024432  0  1.833049  0  0  -0.898314  0  2.107524  0  0  -0.942683  0  2.092059  0  0  -0.476423  -0.866873  0  2.116971  0
O  O72  1  0.22478894  0.55043683  0.96397723  1  0  -1.015734  0  1.730554  0  0  -0.877532  0  1.974772  0  0  -0.924704  0  1.960683  0  0  -0.440331  -0.844467  0  1.983499  0
O  O73  1  0.73916275  0.44933700  0.03593431  1  0  -1.015889  0  1.729635  0  0  -0.878033  0  1.974369  0  0  -0.925149  0  1.960166  0  0  -0.440463  -0.845026  0  1.983216  0
O  O74  1  0.93943243  0.05023028  0.53600992  1  0  -1.016363  0  1.73035  0  0  -0.878439  0  1.974913  0  0  -0.925595  0  1.960828  0  0  -0.440696  -0.845419  0  1.983719  0
O  O75  1  0.52596527  0.94933191  0.46407488  1  0  -1.015515  0  1.729868  0  0  -0.877575  0  1.974328  0  0  -0.924715  0  1.960298  0  0  -0.440743  -0.844512  0  1.982976  0
