# generated using pymatgen
data_GdFe2H25C36(NO4)2
_symmetry_space_group_name_H-M   'P 1'
_cell_length_a   11.47598677
_cell_length_b   11.96832396
_cell_length_c   13.61010000
_cell_angle_alpha   94.90320769
_cell_angle_beta   109.04139868
_cell_angle_gamma   117.20290556
_symmetry_Int_Tables_number   1
_chemical_formula_structural   GdFe2H25C36(NO4)2
_chemical_formula_sum   'Gd2 Fe4 H50 C72 N4 O16'
_cell_volume   1509.15902576
_cell_formula_units_Z   2
loop_
 _symmetry_equiv_pos_site_id
 _symmetry_equiv_pos_as_xyz
  1  'x, y, z'
loop_
 _atom_site_type_symbol
 _atom_site_label
 _atom_site_symmetry_multiplicity
 _atom_site_fract_x
 _atom_site_fract_y
 _atom_site_fract_z
 _atom_site_occupancy
 _atom_site_hle17_bader_spin_density
 _atom_site_hle17_ddec_charge
 _atom_site_hle17_ddec_spin_density
 _atom_site_hle17_ddec_sum_bond_order
 _atom_site_hle17_magmom
 _atom_site_hse06_10hf_bader_spin_density
 _atom_site_hse06_10hf_ddec_charge
 _atom_site_hse06_10hf_ddec_spin_density
 _atom_site_hse06_10hf_ddec_sum_bond_order
 _atom_site_hse06_10hf_magmom
 _atom_site_hse06_bader_spin_density
 _atom_site_hse06_ddec_charge
 _atom_site_hse06_ddec_spin_density
 _atom_site_hse06_ddec_sum_bond_order
 _atom_site_hse06_magmom
 _atom_site_pbe_bader_charge
 _atom_site_pbe_bader_spin_density
 _atom_site_pbe_cm5_charge
 _atom_site_pbe_ddec_charge
 _atom_site_pbe_ddec_spin_density
 _atom_site_pbe_ddec_sum_bond_order
 _atom_site_pbe_magmom
Gd  Gd0  1  0.79869123  0.35963994  0.38157934  1  0  2.147575  0  1.826126  0  0  2.028266  0  2.214799  0  0  2.089861  0  2.150818  0  2.188251  0  1.466647  1.981421  0  2.264436  0
Gd  Gd1  1  0.20130978  0.64036028  0.61842022  1  0  2.147581  0  1.826108  0  0  2.028275  0  2.214771  0  0  2.089872  0  2.150787  0  2.188282  0  1.466643  1.981427  0  2.264412  0
Fe  Fe2  1  0.85101167  0.76301834  0.25026749  1  0  0.115587  0  3.549055  0  0  0.214366  0  3.965067  0  0  0.219798  0  3.950551  0  0.7283  0  0.539299  0.218208  0  3.967765  0
Fe  Fe3  1  0.14898749  0.23698188  0.74973303  1  0  0.115534  0  3.54904  0  0  0.2142  0  3.965109  0  0  0.219787  0  3.950575  0  0.728304  0  0.539293  0.218177  0  3.967772  0
Fe  Fe4  1  0.77305919  0.65284356  0.74979480  1  0  0.125383  0  3.560044  0  0  0.226709  0  3.970966  0  0  0.231682  0  3.957263  0  0.73871  0  0.544878  0.230593  0  3.973205  0
Fe  Fe5  1  0.22694034  0.34715568  0.25020501  1  0  0.125517  0  3.560124  0  0  0.226685  0  3.971087  0  0  0.231594  0  3.957385  0  0.738686  0  0.544883  0.230571  0  3.973305  0
H  H6  1  0.52417589  0.32339048  0.11586473  1  0  0.386814  0  0.920984  0  0  0.353873  0  1.003683  0  0  0.367622  0  0.990063  0  0.633206  0  0.29503  0.34434  0  1.013048  0
H  H7  1  0.47582622  0.67660681  0.88413198  1  0  0.38677  0  0.921011  0  0  0.353834  0  1.003713  0  0  0.367585  0  0.990091  0  0.633111  0  0.295023  0.344298  0  1.013082  0
H  H8  1  0.07880303  0.97306039  0.42973010  1  0  0.123447  0  0.939978  0  0  0.140174  0  0.990765  0  0  0.143027  0  0.989982  0  0.116321  0  0.111554  0.138095  0  0.991617  0
H  H9  1  0.92119871  0.02694277  0.57026988  1  0  0.123458  0  0.939999  0  0  0.140182  0  0.990787  0  0  0.143035  0  0.990006  0  0.11632  0  0.111558  0.138088  0  0.991658  0
H  H10  1  0.85003155  0.99436317  0.31718824  1  0  0.120578  0  0.942349  0  0  0.135652  0  0.995109  0  0  0.138456  0  0.994602  0  0.093866  0  0.109756  0.13369  0  0.995648  0
H  H11  1  0.14996816  0.00563802  0.68281178  1  0  0.1206  0  0.942341  0  0  0.135671  0  0.995102  0  0  0.138477  0  0.994595  0  0.093879  0  0.109767  0.133702  0  0.99565  0
H  H12  1  0.60851494  0.76024385  0.26404554  1  0  0.109023  0  0.967273  0  0  0.122294  0  1.025397  0  0  0.124622  0  1.025768  0  0.079169  0  0.102718  0.120648  0  1.025327  0
H  H13  1  0.39148367  0.23975540  0.73595108  1  0  0.109018  0  0.967234  0  0  0.122294  0  1.025356  0  0  0.124623  0  1.025726  0  0.079093  0  0.102715  0.120638  0  1.025293  0
H  H14  1  0.68723643  0.59254225  0.34436786  1  0  0.137957  0  0.954208  0  0  0.150037  0  1.011581  0  0  0.153484  0  1.010128  0  0.163094  0  0.116852  0.147452  0  1.012939  0
H  H15  1  0.31276291  0.40745504  0.65562882  1  0  0.137959  0  0.954241  0  0  0.150038  0  1.011603  0  0  0.153488  0  1.010153  0  0.163072  0  0.116852  0.147444  0  1.012968  0
H  H16  1  0.02514912  0.66303075  0.23922799  1  0  0.125412  0  0.940262  0  0  0.140747  0  0.994157  0  0  0.143877  0  0.992382  0  0.076738  0  0.115194  0.138514  0  0.995594  0
H  H17  1  0.97484968  0.33697045  0.76077397  1  0  0.125383  0  0.940281  0  0  0.140717  0  0.994175  0  0  0.143848  0  0.9924  0  0.076483  0  0.115169  0.138475  0  0.995619  0
H  H18  1  0.08963763  0.90080408  0.20028797  1  0  0.113523  0  0.968103  0  0  0.127834  0  1.023025  0  0  0.13042  0  1.023124  0  0.112403  0  0.104159  0.126076  0  1.023022  0
H  H19  1  0.91036172  0.09919810  0.79971349  1  0  0.113553  0  0.968098  0  0  0.127867  0  1.023013  0  0  0.130456  0  1.023106  0  0.112387  0  0.104161  0.126099  0  1.023018  0
H  H20  1  0.83858426  0.88294300  0.07997556  1  0  0.108731  0  0.953575  0  0  0.123718  0  1.009904  0  0  0.126647  0  1.008601  0  0.075159  0  0.106265  0.121669  0  1.011014  0
H  H21  1  0.16141232  0.11705918  0.92002587  1  0  0.108765  0  0.95358  0  0  0.123751  0  1.009907  0  0  0.12668  0  1.008603  0  0.075238  0  0.106268  0.121696  0  1.011018  0
H  H22  1  0.62113083  0.63741653  0.04356197  1  0  0.136373  0  0.963378  0  0  0.146962  0  1.022874  0  0  0.151124  0  1.019402  0  0.159869  0  0.111926  0.143983  0  1.02548  0
H  H23  1  0.37886427  0.36258467  0.95644044  1  0  0.136387  0  0.963337  0  0  0.146967  0  1.022838  0  0  0.151134  0  1.019362  0  0.15999  0  0.111926  0.14398  0  1.02545  0
H  H24  1  0.01804178  0.64067432  0.86930639  1  0  0.11829  0  0.954053  0  0  0.13636  0  1.003548  0  0  0.139532  0  1.001549  0  0.057712  0  0.110342  0.1342  0  1.005035  0
H  H25  1  0.98195885  0.35932688  0.13069315  1  0  0.118277  0  0.954033  0  0  0.136335  0  1.003544  0  0  0.139506  0  1.001546  0  0.05771  0  0.110335  0.134163  0  1.005038  0
H  H26  1  0.83764736  0.62534414  0.96239359  1  0  0.120134  0  0.981529  0  0  0.138097  0  1.029147  0  0  0.139751  0  1.03113  0  0.109402  0  0.104217  0.136953  0  1.027907  0
H  H27  1  0.16235217  0.37465510  0.03760549  1  0  0.12016  0  0.98157  0  0  0.138137  0  1.029161  0  0  0.139792  0  1.031142  0  0.109387  0  0.104231  0.136988  0  1.027917  0
H  H28  1  0.56535533  0.47459672  0.81096445  1  0  0.123776  0  0.932503  0  0  0.141119  0  0.981552  0  0  0.143667  0  0.981236  0  0.102994  0  0.114547  0.139226  0  0.981984  0
H  H29  1  0.43464567  0.52540350  0.18903657  1  0  0.123773  0  0.932487  0  0  0.141115  0  0.981536  0  0  0.143662  0  0.98122  0  0.102977  0  0.114525  0.139214  0  0.981972  0
H  H30  1  0.57549434  0.39511752  0.62255706  1  0  0.11546  0  0.950343  0  0  0.132695  0  1.003049  0  0  0.135634  0  1.001311  0  0.081043  0  0.110221  0.130626  0  1.004435  0
H  H31  1  0.42450537  0.60488368  0.37744295  1  0  0.115508  0  0.950289  0  0  0.132736  0  1.002998  0  0  0.135675  0  1.001257  0  0.081021  0  0.110215  0.130656  0  1.004394  0
H  H32  1  0.57060353  0.63227843  0.55602969  1  0  0.119885  0  0.941041  0  0  0.135751  0  0.994903  0  0  0.138928  0  0.992661  0  0.095474  0  0.113486  0.133436  0  0.996666  0
H  H33  1  0.42939729  0.36771984  0.44397040  1  0  0.119884  0  0.941063  0  0  0.135748  0  0.994926  0  0  0.138925  0  0.992683  0  0.095457  0  0.11347  0.133422  0  0.996696  0
H  H34  1  0.84833722  0.73693258  0.58156203  1  0  0.125755  0  0.947605  0  0  0.143742  0  0.992855  0  0  0.146052  0  0.993368  0  0.112513  0  0.11424  0.142173  0  0.992573  0
H  H35  1  0.15166268  0.26306568  0.41843928  1  0  0.125758  0  0.947601  0  0  0.143748  0  0.99284  0  0  0.146059  0  0.993351  0  0.112505  0  0.114246  0.142174  0  0.992558  0
H  H36  1  0.02028492  0.89378370  0.78529087  1  0  0.103617  0  0.968303  0  0  0.117714  0  1.028184  0  0  0.120072  0  1.027931  0  0.083725  0  0.105703  0.116047  0  1.028655  0
H  H37  1  0.97971609  0.10621652  0.21471016  1  0  0.103595  0  0.968325  0  0  0.117684  0  1.028215  0  0  0.120039  0  1.027964  0  0.083722  0  0.105689  0.116008  0  1.028692  0
H  H38  1  0.84925352  0.88527824  0.88812210  1  0  0.118784  0  0.942894  0  0  0.135508  0  0.994327  0  0  0.13922  0  0.991285  0  0.093194  0  0.109516  0.132857  0  0.996661  0
H  H39  1  0.15074657  0.11472198  0.11187794  1  0  0.118805  0  0.94291  0  0  0.135527  0  0.994339  0  0  0.139236  0  0.991296  0  0.093181  0  0.10952  0.132864  0  0.996679  0
H  H40  1  0.56843502  0.24628173  0.50924090  1  0  0.07976  0  0.963885  0  0  0.08532  0  1.032511  0  0  0.088538  0  1.028873  0  0.120921  0  0.118658  0.082875  0  1.035252  0
H  H41  1  0.43156488  0.75371653  0.49075894  1  0  0.079723  0  0.963892  0  0  0.085294  0  1.032509  0  0  0.088515  0  1.028864  0  0.120897  0  0.118662  0.082852  0  1.03525  0
H  H42  1  0.34110081  0.05462807  0.50084884  1  0  0.111558  0  0.931596  0  0  0.125524  0  0.982937  0  0  0.128703  0  0.982551  0  0.080667  0  0.113  0.123074  0  0.983713  0
H  H43  1  0.65890112  0.94537215  0.49915171  1  0  0.111599  0  0.931604  0  0  0.12556  0  0.982948  0  0  0.128739  0  0.982561  0  0.080655  0  0.113  0.123113  0  0.983721  0
H  H44  1  0.22694515  0.84273528  0.36380510  1  0  0.112106  0  0.932941  0  0  0.123806  0  0.991491  0  0  0.12622  0  0.990196  0  0.120947  0  0.116599  0.122021  0  0.992458  0
H  H45  1  0.77305622  0.15726397  0.63619595  1  0  0.112113  0  0.932919  0  0  0.123801  0  0.991487  0  0  0.126215  0  0.990193  0  0.121086  0  0.116597  0.122013  0  0.992458  0
H  H46  1  0.52993524  0.82792067  0.01085815  1  0  0.111445  0  0.955714  0  0  0.122579  0  1.014638  0  0  0.125461  0  1.012706  0  0.104911  0  0.115489  0.120431  0  1.016218  0
H  H47  1  0.47006355  0.17208053  0.98913940  1  0  0.111387  0  0.955623  0  0  0.122534  0  1.014551  0  0  0.125419  0  1.012614  0  0.104959  0  0.115465  0.120387  0  1.01613  0
H  H48  1  0.74350147  0.03599021  0.02683501  1  0  0.107996  0  0.932629  0  0  0.121457  0  0.984432  0  0  0.124863  0  0.983485  0  0.080936  0  0.112352  0.118899  0  0.985474  0
H  H49  1  0.25649825  0.96401099  0.97316427  1  0  0.107991  0  0.932608  0  0  0.121453  0  0.984415  0  0  0.124858  0  0.983468  0  0.080958  0  0.112353  0.118895  0  0.985458  0
H  H50  1  0.83962354  0.23706797  0.17549680  1  0  0.082208  0  0.978209  0  0  0.086223  0  1.049294  0  0  0.089472  0  1.045504  0  0.122088  0  0.120903  0.083674  0  1.052301  0
H  H51  1  0.16037839  0.76293225  0.82450522  1  0  0.082198  0  0.9782  0  0  0.086213  0  1.049285  0  0  0.089462  0  1.045495  0  0.122107  0  0.120907  0.083661  0  1.052294  0
H  H52  1  0.22857349  0.71519151  0.20491309  1  0  0.103461  0  0.95348  0  0  0.118112  0  1.007128  0  0  0.120014  0  1.00812  0  0.083675  0  0.106215  0.116608  0  1.006822  0
H  H53  1  0.77142604  0.28480773  0.79508673  1  0  0.103482  0  0.953475  0  0  0.118135  0  1.007123  0  0  0.120037  0  1.008114  0  0.08368  0  0.106223  0.11663  0  1.006816  0
H  H54  1  0.34008070  0.71025689  0.07836892  1  0  0.106669  0  0.940076  0  0  0.120219  0  0.993844  0  0  0.122786  0  0.99347  0  0.07821  0  0.107704  0.118348  0  0.994163  0
H  H55  1  0.65991846  0.28974332  0.92163013  1  0  0.106658  0  0.940035  0  0  0.12021  0  0.993807  0  0  0.122776  0  0.993433  0  0.078238  0  0.1077  0.11834  0  0.994125  0
C  C56  1  0.99774773  0.70761545  0.46153138  1  0  0.716777  0  3.875058  0  0  0.67381  0  4.166046  0  0  0.71116  0  4.153605  0  1.568128  0  0.223428  0.6482  0  4.173961  0
C  C57  1  0.00225291  0.29238575  0.53847183  1  0  0.716808  0  3.874898  0  0  0.673813  0  4.165935  0  0  0.711165  0  4.153491  0  1.568223  0  0.223449  0.648209  0  4.173838  0
C  C58  1  0.91295175  0.76546413  0.40825744  1  0  -0.103502  0  3.722076  0  0  -0.09403  0  3.981509  0  0  -0.104167  0  3.99976  0  -0.10494  0  -0.079352  -0.088273  0  3.969986  0
C  C59  1  0.08704777  0.23453511  0.59174384  1  0  -0.103498  0  3.722057  0  0  -0.094009  0  3.981487  0  0  -0.104165  0  3.999765  0  -0.104945  0  -0.079356  -0.088275  0  3.969983  0
C  C60  1  0.96649608  0.89677538  0.39826337  1  0  -0.104798  0  3.681782  0  0  -0.140675  0  3.95221  0  0  -0.140993  0  3.967267  0  -0.141926  0  -0.142472  -0.140933  0  3.942388  0
C  C61  1  0.03350345  0.10322386  0.60173791  1  0  -0.104767  0  3.681749  0  0  -0.140634  0  3.952157  0  0  -0.140968  0  3.967238  0  -0.141992  0  -0.142452  -0.140909  0  3.942375  0
C  C62  1  0.84574593  0.90747814  0.33825230  1  0  -0.098209  0  3.70199  0  0  -0.129088  0  3.980215  0  0  -0.132085  0  3.996097  0  -0.115315  0  -0.145331  -0.127861  0  3.969866  0
C  C63  1  0.15425618  0.09252404  0.66174918  1  0  -0.098232  0  3.701931  0  0  -0.129097  0  3.980138  0  0  -0.132113  0  3.996042  0  -0.115265  0  -0.14537  -0.127899  0  3.969827  0
C  C64  1  0.71750298  0.78356881  0.31107884  1  0  -0.111599  0  3.719389  0  0  -0.137937  0  3.993074  0  0  -0.141807  0  4.01121  0  -0.151412  0  -0.149661  -0.135938  0  3.981176  0
C  C65  1  0.28249673  0.21643239  0.68892117  1  0  -0.111585  0  3.719377  0  0  -0.137915  0  3.993043  0  0  -0.141799  0  4.0112  0  -0.151347  0  -0.149674  -0.135935  0  3.981173  0
C  C66  1  0.75804000  0.69524075  0.35309369  1  0  -0.115166  0  3.659081  0  0  -0.154821  0  3.934166  0  0  -0.157539  0  3.951625  0  -0.210612  0  -0.143816  -0.153485  0  3.92285  0
C  C67  1  0.24196008  0.30475947  0.64690782  1  0  -0.115139  0  3.659155  0  0  -0.154774  0  3.93422  0  0  -0.157515  0  3.951709  0  -0.210596  0  -0.143807  -0.153456  0  3.922929  0
C  C68  1  0.71946259  0.47136829  0.14945818  1  0  0.701437  0  3.820966  0  0  0.655244  0  4.113014  0  0  0.693377  0  4.098191  0  1.563031  0  0.237325  0.629065  0  4.122753  0
C  C69  1  0.28054375  0.52862509  0.85054380  1  0  0.701435  0  3.820514  0  0  0.65529  0  4.112499  0  0  0.693426  0  4.097675  0  1.563009  0  0.237323  0.629112  0  4.122234  0
C  C70  1  0.79750077  0.60401983  0.13980411  1  0  -0.117953  0  3.768445  0  0  -0.107727  0  4.027406  0  0  -0.119256  0  4.046213  0  -0.138831  0  -0.084982  -0.100734  0  4.015018  0
C  C71  1  0.20249599  0.39597941  0.86019568  1  0  -0.118042  0  3.768501  0  0  -0.107839  0  4.027485  0  0  -0.119383  0  4.046312  0  -0.13891  0  -0.085032  -0.100862  0  4.01511  0
C  C72  1  0.95118834  0.69024548  0.19152309  1  0  -0.119593  0  3.693684  0  0  -0.160258  0  3.971751  0  0  -0.160658  0  3.986452  0  -0.123398  0  -0.147608  -0.160406  0  3.962012  0
C  C73  1  0.04880990  0.30975474  0.80847571  1  0  -0.119503  0  3.693649  0  0  -0.160142  0  3.971695  0  0  -0.16056  0  3.986417  0  -0.123228  0  -0.147578  -0.160311  0  3.961975  0
C  C74  1  0.98360515  0.81374490  0.17055821  1  0  -0.118546  0  3.732636  0  0  -0.14501  0  4.005035  0  0  -0.148088  0  4.021301  0  -0.181266  0  -0.15161  -0.14344  0  3.99417  0
C  C75  1  0.01639217  0.18625532  0.82944107  1  0  -0.118586  0  3.732574  0  0  -0.14504  0  4.004955  0  0  -0.148133  0  4.021241  0  -0.181313  0  -0.151619  -0.143491  0  3.994117  0
C  C76  1  0.85053060  0.80470724  0.10728508  1  0  -0.101309  0  3.719158  0  0  -0.131067  0  3.997632  0  0  -0.133917  0  4.01301  0  -0.111399  0  -0.146989  -0.129935  0  3.987479  0
C  C77  1  0.14946525  0.19529201  0.89271592  1  0  -0.10139  0  3.719149  0  0  -0.131148  0  3.997631  0  0  -0.134013  0  4.01303  0  -0.110518  0  -0.147022  -0.130034  0  3.98749  0
C  C78  1  0.73511355  0.67580948  0.08828040  1  0  -0.114454  0  3.665819  0  0  -0.154866  0  3.943944  0  0  -0.154074  0  3.956608  0  -0.158238  0  -0.146908  -0.155702  0  3.935485  0
C  C79  1  0.26488468  0.32419074  0.91172060  1  0  -0.114381  0  3.665643  0  0  -0.154757  0  3.943745  0  0  -0.153987  0  3.956429  0  -0.159245  0  -0.146885  -0.155611  0  3.935307  0
C  C80  1  0.87551691  0.50840236  0.63586537  1  0  0.729564  0  3.84462  0  0  0.684782  0  4.137875  0  0  0.722699  0  4.124418  0  1.605083  0  0.231691  0.658636  0  4.146621  0
C  C81  1  0.12448667  0.49160080  0.36413659  1  0  0.729485  0  3.844667  0  0  0.684769  0  4.137839  0  0  0.722688  0  4.124378  0  1.60489  0  0.23167  0.658626  0  4.146578  0
C  C82  1  0.81637500  0.51180493  0.71773914  1  0  -0.107092  0  3.730452  0  0  -0.101468  0  3.996024  0  0  -0.111092  0  4.01413  0  -0.101695  0  -0.083756  -0.095855  0  3.984398  0
C  C83  1  0.18362545  0.48819431  0.28226019  1  0  -0.106985  0  3.730429  0  0  -0.101401  0  3.996017  0  0  -0.11102  0  4.014112  0  -0.101537  0  -0.083757  -0.0958  0  3.984393  0
C  C84  1  0.90156596  0.58713413  0.82982272  1  0  -0.120957  0  3.700227  0  0  -0.157074  0  3.969538  0  0  -0.157795  0  3.984042  0  -0.165489  0  -0.147964  -0.157053  0  3.959803  0
C  C85  1  0.09843505  0.41286609  0.17017757  1  0  -0.120981  0  3.70014  0  0  -0.157057  0  3.969455  0  0  -0.157771  0  3.983949  0  -0.165492  0  -0.147993  -0.157043  0  3.959727  0
C  C86  1  0.80624230  0.57707608  0.87928113  1  0  -0.107477  0  3.70682  0  0  -0.132861  0  3.971388  0  0  -0.135972  0  3.989188  0  -0.094352  0  -0.151583  -0.131248  0  3.959163  0
C  C87  1  0.19375907  0.42292316  0.12071919  1  0  -0.107497  0  3.706808  0  0  -0.132876  0  3.971343  0  0  -0.135979  0  3.989129  0  -0.094356  0  -0.151581  -0.131273  0  3.959113  0
C  C88  1  0.66167026  0.49607365  0.79883732  1  0  -0.099767  0  3.703427  0  0  -0.131457  0  3.984475  0  0  -0.135121  0  4.00179  0  -0.183464  0  -0.148196  -0.129203  0  3.972556  0
C  C89  1  0.33833019  0.50392559  0.20116348  1  0  -0.099765  0  3.703384  0  0  -0.131438  0  3.98441  0  0  -0.135095  0  4.001717  0  -0.183458  0  -0.148203  -0.129192  0  3.972498  0
C  C90  1  0.66713293  0.45472032  0.69939349  1  0  -0.126221  0  3.700176  0  0  -0.165586  0  3.980654  0  0  -0.166705  0  3.99635  0  -0.135712  0  -0.149351  -0.165275  0  3.970059  0
C  C91  1  0.33286604  0.54527795  0.30060757  1  0  -0.126324  0  3.700182  0  0  -0.165656  0  3.980649  0  0  -0.166768  0  3.996337  0  -0.135758  0  -0.14935  -0.165355  0  3.97007  0
C  C92  1  0.54145757  0.71345794  0.75491873  1  0  0.695246  0  3.869479  0  0  0.645162  0  4.171757  0  0  0.682628  0  4.159307  0  1.587441  0  0.220057  0.619247  0  4.180155  0
C  C93  1  0.45854343  0.28654228  0.24508009  1  0  0.69532  0  3.869416  0  0  0.645216  0  4.171731  0  0  0.682682  0  4.15928  0  1.587457  0  0.220062  0.619302  0  4.180121  0
C  C94  1  0.66684937  0.75113868  0.72851113  1  0  -0.112434  0  3.765691  0  0  -0.104701  0  4.027626  0  0  -0.115597  0  4.047697  0  -0.108608  0  -0.086406  -0.098032  0  4.014341  0
C  C95  1  0.33315127  0.24886252  0.27148840  1  0  -0.11248  0  3.765705  0  0  -0.104738  0  4.027644  0  0  -0.115629  0  4.047708  0  -0.10858  0  -0.086438  -0.098074  0  4.014356  0
C  C96  1  0.66621495  0.70208602  0.62774152  1  0  -0.120257  0  3.699895  0  0  -0.157892  0  3.975226  0  0  -0.158767  0  3.990597  0  -0.125903  0  -0.146997  -0.157558  0  3.964741  0
C  C97  1  0.33378476  0.29791518  0.37225849  1  0  -0.120263  0  3.699947  0  0  -0.157881  0  3.975265  0  0  -0.158749  0  3.990626  0  -0.125917  0  -0.147001  -0.157555  0  3.964785  0
C  C98  1  0.81224749  0.75776578  0.64142785  1  0  -0.086573  0  3.672946  0  0  -0.113423  0  3.940236  0  0  -0.11657  0  3.957533  0  -0.183687  0  -0.143269  -0.111901  0  3.928711  0
C  C99  1  0.18775352  0.24223444  0.35857318  1  0  -0.086623  0  3.672986  0  0  -0.113458  0  3.940263  0  0  -0.116598  0  3.957549  0  -0.183713  0  -0.143312  -0.111946  0  3.928741  0
C  C100  1  0.90364953  0.84013100  0.75018906  1  0  -0.101212  0  3.710088  0  0  -0.130375  0  3.987211  0  0  -0.133532  0  4.004076  0  -0.095925  0  -0.148114  -0.128895  0  3.97607  0
C  C101  1  0.09635055  0.15986922  0.24981171  1  0  -0.101189  0  3.710088  0  0  -0.130333  0  3.987197  0  0  -0.133479  0  4.004049  0  -0.095844  0  -0.148114  -0.128863  0  3.976071  0
C  C102  1  0.81470819  0.83629112  0.80442016  1  0  -0.122772  0  3.703196  0  0  -0.159609  0  3.975302  0  0  -0.15943  0  3.989195  0  -0.180894  0  -0.149852  -0.160198  0  3.96592  0
C  C103  1  0.18529152  0.16371008  0.19557912  1  0  -0.122807  0  3.703247  0  0  -0.159629  0  3.975343  0  0  -0.159438  0  3.98922  0  -0.180976  0  -0.14987  -0.160228  0  3.965971  0
C  C104  1  0.51128596  0.15319809  0.44764763  1  0  0.151582  0  3.708358  0  0  0.122846  0  3.970505  0  0  0.130644  0  3.986571  0  0.497879  0  0.061914  0.117833  0  3.959377  0
C  C105  1  0.48871504  0.84680213  0.55235266  1  0  0.15161  0  3.708377  0  0  0.122863  0  3.970531  0  0  0.130662  0  3.986599  0  0.497896  0  0.061914  0.117845  0  3.959412  0
C  C106  1  0.38495227  0.04576846  0.44264936  1  0  -0.10696  0  3.723486  0  0  -0.122161  0  3.978153  0  0  -0.128446  0  3.999043  0  -0.026186  0  -0.078669  -0.118006  0  3.964196  0
C  C107  1  0.61504910  0.95423078  0.55735096  1  0  -0.106999  0  3.723512  0  0  -0.122195  0  3.978188  0  0  -0.128481  0  3.999078  0  -0.026109  0  -0.078666  -0.118044  0  3.964235  0
C  C108  1  0.32147869  0.92868309  0.36608138  1  0  -0.043677  0  3.673191  0  0  -0.067602  0  3.924847  0  0  -0.065168  0  3.942431  0  -0.011897  0  -0.058933  -0.068995  0  3.912825  0
C  C109  1  0.67852323  0.07131713  0.63391916  1  0  -0.043645  0  3.673184  0  0  -0.067572  0  3.924819  0  0  -0.065138  0  3.942401  0  -0.012109  0  -0.058921  -0.068958  0  3.912792  0
C  C110  1  0.38217569  0.92073233  0.29229938  1  0  0.019388  0  3.781685  0  0  0.034897  0  4.012683  0  0  0.032151  0  4.037096  0  -0.041295  0  -0.003028  0.036537  0  3.996371  0
C  C111  1  0.61782476  0.07926691  0.70769995  1  0  0.019334  0  3.781704  0  0  0.0349  0  4.012642  0  0  0.032155  0  4.037053  0  -0.041269  0  -0.003024  0.036541  0  3.996328  0
C  C112  1  0.50794328  0.03592858  0.30189574  1  0  0.14113  0  3.738556  0  0  0.137753  0  3.977185  0  0  0.142039  0  3.998181  0  0.496819  0  0.126296  0.1349  0  3.962982  0
C  C113  1  0.49205588  0.96407164  0.69810331  1  0  0.141274  0  3.738543  0  0  0.137828  0  3.977171  0  0  0.142114  0  3.998165  0  0.496822  0  0.126312  0.134973  0  3.962973  0
C  C114  1  0.57115034  0.03364128  0.22635338  1  0  0.157002  0  3.727925  0  0  0.151625  0  3.967612  0  0  0.156704  0  3.987819  0  0.484796  0  0.130248  0.148111  0  3.953953  0
C  C115  1  0.42885122  0.96635992  0.77364640  1  0  0.156759  0  3.728148  0  0  0.151514  0  3.967734  0  0  0.156592  0  3.98794  0  0.48475  0  0.130201  0.148  0  3.954074  0
C  C116  1  0.50954697  0.91507377  0.14597617  1  0  0.020011  0  3.798447  0  0  0.036448  0  4.029712  0  0  0.033297  0  4.054856  0  -0.017353  0  -0.000651  0.038471  0  4.012715  0
C  C117  1  0.49045348  0.08492548  0.85402389  1  0  0.020168  0  3.798389  0  0  0.036475  0  4.029773  0  0  0.033325  0  4.054915  0  -0.017345  0  -0.000618  0.0385  0  4.012769  0
C  C118  1  0.57454223  0.91660483  0.07376010  1  0  -0.032827  0  3.669843  0  0  -0.058864  0  3.91873  0  0  -0.056308  0  3.937463  0  -0.032862  0  -0.059162  -0.060407  0  3.90609  0
C  C119  1  0.42545878  0.08339539  0.92623946  1  0  -0.032816  0  3.669742  0  0  -0.058843  0  3.918675  0  0  -0.056286  0  3.937405  0  -0.032961  0  -0.059177  -0.060382  0  3.906022  0
C  C120  1  0.69289598  0.03158682  0.08278873  1  0  -0.126856  0  3.749577  0  0  -0.140912  0  4.008934  0  0  -0.148196  0  4.030109  0  -0.052887  0  -0.083051  -0.136196  0  3.994835  0
C  C121  1  0.30710503  0.96841340  0.91721083  1  0  -0.126859  0  3.749576  0  0  -0.140913  0  4.008929  0  0  -0.148196  0  4.030103  0  -0.052879  0  -0.083043  -0.136195  0  3.994827  0
C  C122  1  0.74576219  0.14435609  0.16417189  1  0  0.147042  0  3.708272  0  0  0.115765  0  3.97416  0  0  0.123796  0  3.989608  0  0.521989  0  0.060824  0.110411  0  3.963933  0
C  C123  1  0.25423882  0.85564413  0.83582840  1  0  0.147036  0  3.708185  0  0  0.115757  0  3.974088  0  0  0.123787  0  3.989535  0  0.521989  0  0.060813  0.110401  0  3.96387  0
C  C124  1  0.32322682  0.80333270  0.21014395  1  0  -0.095408  0  3.744266  0  0  -0.114719  0  3.989757  0  0  -0.117405  0  4.01332  0  -0.010075  0  -0.083351  -0.113052  0  3.974316  0
C  C125  1  0.67677234  0.19666752  0.78985583  1  0  -0.095492  0  3.744343  0  0  -0.114821  0  3.989815  0  0  -0.117506  0  4.013376  0  -0.010079  0  -0.08339  -0.113154  0  3.974377  0
C  C126  1  0.38479716  0.80038994  0.14005721  1  0  -0.108982  0  3.758375  0  0  -0.129873  0  4.009493  0  0  -0.133317  0  4.032339  0  -0.050249  0  -0.083837  -0.127459  0  3.994088  0
C  C127  1  0.61520237  0.19960931  0.85994187  1  0  -0.108966  0  3.758291  0  0  -0.129825  0  4.009443  0  0  -0.133268  0  4.032287  0  -0.050271  0  -0.08382  -0.12741  0  3.994038  0
N  N128  1  0.57161595  0.14933277  0.37979396  1  0  -0.395074  0  3.228655  0  0  -0.351693  0  3.491882  0  0  -0.367364  0  3.510519  0  -1.208793  0  -0.349402  -0.340711  0  3.479087  0
N  N129  1  0.42838414  0.85066745  0.62020535  1  0  -0.395071  0  3.228612  0  0  -0.351685  0  3.491874  0  0  -0.367356  0  3.51051  0  -1.208813  0  -0.349376  -0.340708  0  3.479084  0
N  N130  1  0.68738545  0.14609455  0.23398274  1  0  -0.412555  0  3.233098  0  0  -0.37033  0  3.504789  0  0  -0.385756  0  3.521652  0  -1.223156  0  -0.367397  -0.359605  0  3.493554  0
N  N131  1  0.31261592  0.85390469  0.76601831  1  0  -0.412463  0  3.233021  0  0  -0.370266  0  3.50468  0  0  -0.385693  0  3.521544  0  -1.223139  0  -0.36739  -0.359548  0  3.493453  0
O  O132  1  0.93512246  0.58298217  0.43895344  1  0  -0.78268  0  2.169541  0  0  -0.733583  0  2.431661  0  0  -0.762581  0  2.419755  0  -1.192819  0  -0.418331  -0.712745  0  2.439457  0
O  O133  1  0.06487578  0.41701805  0.56104609  1  0  -0.782729  0  2.169538  0  0  -0.733641  0  2.431707  0  0  -0.76264  0  2.419798  0  -1.192841  0  -0.418376  -0.712815  0  2.439498  0
O  O134  1  0.12760781  0.78181078  0.52975773  1  0  -0.68271  0  1.955308  0  0  -0.645617  0  2.195212  0  0  -0.671025  0  2.186254  0  -1.189983  0  -0.371654  -0.627593  0  2.201171  0
O  O135  1  0.87239246  0.21819140  0.47024397  1  0  -0.68271  0  1.955202  0  0  -0.645603  0  2.195116  0  0  -0.671012  0  2.186157  0  -1.190077  0  -0.371669  -0.6276  0  2.201077  0
O  O136  1  0.78108219  0.42569863  0.21170965  1  0  -0.666316  0  2.070299  0  0  -0.626281  0  2.320822  0  0  -0.649944  0  2.309349  0  -1.19564  0  -0.347522  -0.609598  0  2.328479  0
O  O137  1  0.21891735  0.57431039  0.78828943  1  0  -0.66642  0  2.06967  0  0  -0.626382  0  2.320152  0  0  -0.650049  0  2.308682  0  -1.195642  0  -0.347549  -0.609718  0  2.327813  0
O  O138  1  0.58069166  0.40597093  0.08708133  1  0  -0.567172  0  2.084626  0  0  -0.508904  0  2.301347  0  0  -0.532481  0  2.286288  0  -1.176427  0  -0.322533  -0.492738  0  2.311468  0
O  O139  1  0.41930713  0.59402537  0.91291512  1  0  -0.567032  0  2.08466  0  0  -0.508815  0  2.301411  0  0  -0.532396  0  2.286353  0  -1.176536  0  -0.322529  -0.492661  0  2.311539  0
O  O140  1  0.79327978  0.41396767  0.54899432  1  0  -0.715605  0  2.030976  0  0  -0.669913  0  2.281844  0  0  -0.696811  0  2.26976  0  -1.185096  0  -0.393045  -0.650648  0  2.289865  0
O  O141  1  0.20671790  0.58603157  0.45100425  1  0  -0.715539  0  2.031211  0  0  -0.669859  0  2.282039  0  0  -0.696756  0  2.269952  0  -1.185127  0  -0.393012  -0.650615  0  2.290067  0
O  O142  1  0.00292073  0.59963796  0.65882573  1  0  -0.703652  0  2.079239  0  0  -0.657423  0  2.33446  0  0  -0.684296  0  2.323616  0  -1.193842  0  -0.38226  -0.637716  0  2.34145  0
O  O143  1  0.99707770  0.40035932  0.34117217  1  0  -0.703707  0  2.079111  0  0  -0.6575  0  2.334312  0  0  -0.684373  0  2.323466  0  -1.193796  0  -0.382295  -0.637804  0  2.341303  0
O  O144  1  0.41581991  0.62910282  0.68334860  1  0  -0.727127  0  2.021524  0  0  -0.682366  0  2.276219  0  0  -0.708224  0  2.264131  0  -1.208326  0  -0.389921  -0.663596  0  2.284435  0
O  O145  1  0.58418202  0.37089740  0.31665048  1  0  -0.727159  0  2.02146  0  0  -0.682376  0  2.276152  0  0  -0.708231  0  2.264063  0  -1.208358  0  -0.389934  -0.663647  0  2.284432  0
O  O146  1  0.56782108  0.76909269  0.85079818  1  0  -0.612992  0  1.964351  0  0  -0.56301  0  2.191789  0  0  -0.587536  0  2.181548  0  -1.188288  0  -0.322109  -0.546322  0  2.198787  0
O  O147  1  0.43217956  0.23090850  0.14919988  1  0  -0.613026  0  1.964315  0  0  -0.563027  0  2.191753  0  0  -0.587554  0  2.181512  0  -1.188499  0  -0.322117  -0.54635  0  2.198752  0
